MODEL 1
REMARK VINA RESULT:    -7.263      0.000      0.000
REMARK INTER + INTRA:          -9.538
REMARK INTER:                  -8.961
REMARK INTRA:                  -0.577
REMARK UNBOUND:                -0.577
REMARK  Name = 
REMARK  5 active torsions:
REMARK  status: ('A' for Active; 'I' for Inactive)
REMARK    1  A    between atoms: C_1  and  O_2
REMARK    2  A    between atoms: O_2  and  C_3
REMARK    3  A    between atoms: C_7  and  C_8
REMARK    4  A    between atoms: C_8  and  N_9
REMARK    5  A    between atoms: C_10  and  C_12
REMARK                            x       y       z     vdW  Elec       q    Type
REMARK                         _______ _______ _______ _____ _____    ______ ____
ROOT
ATOM      1  N   UNL     1      46.979   4.547  15.957  0.00  0.00    +0.000 N 
ATOM      2  C   UNL     1      47.039   4.268  14.617  0.00  0.00    +0.000 C 
ATOM      3  O   UNL     1      47.307   3.145  14.194  0.00  0.00    +0.000 OA
ATOM      4  H   UNL     1      46.978   5.515  16.263  0.00  0.00    +0.000 HD
ENDROOT
BRANCH   2   5
ATOM      5  C   UNL     1      46.699   5.364  13.700  0.00  0.00    +0.000 A 
ATOM      6  C   UNL     1      47.646   6.340  13.419  0.00  0.00    +0.000 A 
ATOM      7  S   UNL     1      47.105   7.524  12.321  0.00  0.00    +0.000 S 
ATOM      8  C   UNL     1      45.568   6.800  12.215  0.00  0.00    +0.000 A 
ATOM      9  N   UNL     1      44.590   7.350  11.444  0.00  0.00    +0.000 NA
ATOM     10  C   UNL     1      43.466   6.719  11.483  0.00  0.00    +0.000 A 
ATOM     11  N   UNL     1      43.231   5.584  12.216  0.00  0.00    +0.000 N 
ATOM     12  C   UNL     1      44.200   4.972  12.977  0.00  0.00    +0.000 A 
ATOM     13  O   UNL     1      43.980   3.922  13.571  0.00  0.00    +0.000 OA
ATOM     14  C   UNL     1      45.478   5.657  12.988  0.00  0.00    +0.000 A 
ATOM     15  H   UNL     1      42.329   5.131  12.192  0.00  0.00    +0.000 HD
ENDBRANCH   2   5
BRANCH   1  16
ATOM     16  C   UNL     1      47.273   3.552  16.962  0.00  0.00    +0.000 C 
BRANCH  16  21
ATOM     17  C   UNL     1      50.850   2.258  17.308  0.00  0.00    +0.000 A 
ATOM     18  C   UNL     1      51.533   3.428  17.640  0.00  0.00    +0.000 A 
ATOM     19  C   UNL     1      50.835   4.631  17.775  0.00  0.00    +0.000 A 
ATOM     20  C   UNL     1      49.455   4.672  17.572  0.00  0.00    +0.000 A 
ATOM     21  C   UNL     1      48.753   3.505  17.242  0.00  0.00    +0.000 A 
ATOM     22  C   UNL     1      49.465   2.304  17.116  0.00  0.00    +0.000 A 
BRANCH  17  24
ATOM     23  C   UNL     1      52.736   0.844  17.617  0.00  0.00    +0.000 C 
ATOM     24  O   UNL     1      51.410   1.022  17.134  0.00  0.00    +0.000 OA
ENDBRANCH  17  24
ENDBRANCH  16  21
ENDBRANCH   1  16
TORSDOF 4
ENDMDL
MODEL 2
REMARK VINA RESULT:    -6.964      1.253      2.092
REMARK INTER + INTRA:          -9.169
REMARK INTER:                  -8.577
REMARK INTRA:                  -0.593
REMARK UNBOUND:                -0.577
REMARK  Name = 
REMARK  5 active torsions:
REMARK  status: ('A' for Active; 'I' for Inactive)
REMARK    1  A    between atoms: C_1  and  O_2
REMARK    2  A    between atoms: O_2  and  C_3
REMARK    3  A    between atoms: C_7  and  C_8
REMARK    4  A    between atoms: C_8  and  N_9
REMARK    5  A    between atoms: C_10  and  C_12
REMARK                            x       y       z     vdW  Elec       q    Type
REMARK                         _______ _______ _______ _____ _____    ______ ____
ROOT
ATOM      1  N   UNL     1      46.889   4.414  15.900  0.00  0.00    +0.000 N 
ATOM      2  C   UNL     1      46.907   4.144  14.556  0.00  0.00    +0.000 C 
ATOM      3  O   UNL     1      47.229   3.043  14.116  0.00  0.00    +0.000 OA
ATOM      4  H   UNL     1      46.838   5.379  16.211  0.00  0.00    +0.000 HD
ENDROOT
BRANCH   2   5
ATOM      5  C   UNL     1      46.455   5.218  13.662  0.00  0.00    +0.000 A 
ATOM      6  C   UNL     1      47.281   6.310  13.433  0.00  0.00    +0.000 A 
ATOM      7  S   UNL     1      46.623   7.453  12.354  0.00  0.00    +0.000 S 
ATOM      8  C   UNL     1      45.189   6.550  12.188  0.00  0.00    +0.000 A 
ATOM      9  N   UNL     1      44.168   6.999  11.408  0.00  0.00    +0.000 NA
ATOM     10  C   UNL     1      43.129   6.235  11.401  0.00  0.00    +0.000 A 
ATOM     11  N   UNL     1      43.021   5.058  12.096  0.00  0.00    +0.000 N 
ATOM     12  C   UNL     1      44.040   4.545  12.864  0.00  0.00    +0.000 A 
ATOM     13  O   UNL     1      43.937   3.459  13.423  0.00  0.00    +0.000 OA
ATOM     14  C   UNL     1      45.224   5.381  12.927  0.00  0.00    +0.000 A 
ATOM     15  H   UNL     1      42.182   4.499  12.036  0.00  0.00    +0.000 HD
ENDBRANCH   2   5
BRANCH   1  16
ATOM     16  C   UNL     1      47.292   3.438  16.885  0.00  0.00    +0.000 C 
BRANCH  16  21
ATOM     17  C   UNL     1      50.785   4.775  17.662  0.00  0.00    +0.000 A 
ATOM     18  C   UNL     1      51.537   3.601  17.644  0.00  0.00    +0.000 A 
ATOM     19  C   UNL     1      50.920   2.379  17.359  0.00  0.00    +0.000 A 
ATOM     20  C   UNL     1      49.551   2.326  17.097  0.00  0.00    +0.000 A 
ATOM     21  C   UNL     1      48.781   3.496  17.107  0.00  0.00    +0.000 A 
ATOM     22  C   UNL     1      49.414   4.715  17.389  0.00  0.00    +0.000 A 
BRANCH  17  24
ATOM     23  C   UNL     1      50.288   7.051  18.133  0.00  0.00    +0.000 C 
ATOM     24  O   UNL     1      51.257   6.029  17.936  0.00  0.00    +0.000 OA
ENDBRANCH  17  24
ENDBRANCH  16  21
ENDBRANCH   1  16
TORSDOF 4
ENDMDL
MODEL 3
REMARK VINA RESULT:    -6.931      2.914      7.132
REMARK INTER + INTRA:          -9.129
REMARK INTER:                  -8.322
REMARK INTRA:                  -0.807
REMARK UNBOUND:                -0.577
REMARK  Name = 
REMARK  5 active torsions:
REMARK  status: ('A' for Active; 'I' for Inactive)
REMARK    1  A    between atoms: C_1  and  O_2
REMARK    2  A    between atoms: O_2  and  C_3
REMARK    3  A    between atoms: C_7  and  C_8
REMARK    4  A    between atoms: C_8  and  N_9
REMARK    5  A    between atoms: C_10  and  C_12
REMARK                            x       y       z     vdW  Elec       q    Type
REMARK                         _______ _______ _______ _____ _____    ______ ____
ROOT
ATOM      1  N   UNL     1      46.754   6.726  13.659  0.00  0.00    +0.000 N 
ATOM      2  C   UNL     1      48.091   6.477  13.838  0.00  0.00    +0.000 C 
ATOM      3  O   UNL     1      48.897   6.545  12.914  0.00  0.00    +0.000 OA
ATOM      4  H   UNL     1      46.097   6.446  14.380  0.00  0.00    +0.000 HD
ENDROOT
BRANCH   2   5
ATOM      5  C   UNL     1      48.529   6.192  15.210  0.00  0.00    +0.000 A 
ATOM      6  C   UNL     1      49.480   7.008  15.809  0.00  0.00    +0.000 A 
ATOM      7  S   UNL     1      49.861   6.559  17.407  0.00  0.00    +0.000 S 
ATOM      8  C   UNL     1      48.801   5.229  17.342  0.00  0.00    +0.000 A 
ATOM      9  N   UNL     1      48.674   4.386  18.404  0.00  0.00    +0.000 NA
ATOM     10  C   UNL     1      47.865   3.401  18.206  0.00  0.00    +0.000 A 
ATOM     11  N   UNL     1      47.164   3.186  17.048  0.00  0.00    +0.000 N 
ATOM     12  C   UNL     1      47.229   4.033  15.965  0.00  0.00    +0.000 A 
ATOM     13  O   UNL     1      46.542   3.850  14.966  0.00  0.00    +0.000 OA
ATOM     14  C   UNL     1      48.147   5.144  16.126  0.00  0.00    +0.000 A 
ATOM     15  H   UNL     1      46.534   2.401  16.963  0.00  0.00    +0.000 HD
ENDBRANCH   2   5
BRANCH   1  16
ATOM     16  C   UNL     1      46.199   7.037  12.363  0.00  0.00    +0.000 C 
BRANCH  16  21
ATOM     17  C   UNL     1      44.173   4.465  10.395  0.00  0.00    +0.000 A 
ATOM     18  C   UNL     1      43.215   4.094  11.336  0.00  0.00    +0.000 A 
ATOM     19  C   UNL     1      43.208   4.690  12.600  0.00  0.00    +0.000 A 
ATOM     20  C   UNL     1      44.161   5.654  12.930  0.00  0.00    +0.000 A 
ATOM     21  C   UNL     1      45.129   6.042  11.995  0.00  0.00    +0.000 A 
ATOM     22  C   UNL     1      45.121   5.440  10.728  0.00  0.00    +0.000 A 
BRANCH  17  24
ATOM     23  C   UNL     1      44.654   2.582   9.027  0.00  0.00    +0.000 C 
ATOM     24  O   UNL     1      44.300   3.955   9.132  0.00  0.00    +0.000 OA
ENDBRANCH  17  24
ENDBRANCH  16  21
ENDBRANCH   1  16
TORSDOF 4
ENDMDL
MODEL 4
REMARK VINA RESULT:    -6.856      2.337      3.114
REMARK INTER + INTRA:          -9.036
REMARK INTER:                  -8.402
REMARK INTRA:                  -0.634
REMARK UNBOUND:                -0.577
REMARK  Name = 
REMARK  5 active torsions:
REMARK  status: ('A' for Active; 'I' for Inactive)
REMARK    1  A    between atoms: C_1  and  O_2
REMARK    2  A    between atoms: O_2  and  C_3
REMARK    3  A    between atoms: C_7  and  C_8
REMARK    4  A    between atoms: C_8  and  N_9
REMARK    5  A    between atoms: C_10  and  C_12
REMARK                            x       y       z     vdW  Elec       q    Type
REMARK                         _______ _______ _______ _____ _____    ______ ____
ROOT
ATOM      1  N   UNL     1      47.591   6.254  14.933  0.00  0.00    +0.000 N 
ATOM      2  C   UNL     1      47.718   6.121  13.574  0.00  0.00    +0.000 C 
ATOM      3  O   UNL     1      48.812   6.015  13.027  0.00  0.00    +0.000 OA
ATOM      4  H   UNL     1      46.705   6.559  15.321  0.00  0.00    +0.000 HD
ENDROOT
BRANCH   2   5
ATOM      5  C   UNL     1      46.471   6.042  12.802  0.00  0.00    +0.000 A 
ATOM      6  C   UNL     1      45.935   7.197  12.247  0.00  0.00    +0.000 A 
ATOM      7  S   UNL     1      44.504   6.932  11.361  0.00  0.00    +0.000 S 
ATOM      8  C   UNL     1      44.524   5.269  11.725  0.00  0.00    +0.000 A 
ATOM      9  N   UNL     1      43.531   4.448  11.285  0.00  0.00    +0.000 NA
ATOM     10  C   UNL     1      43.652   3.221  11.663  0.00  0.00    +0.000 A 
ATOM     11  N   UNL     1      44.677   2.737  12.434  0.00  0.00    +0.000 N 
ATOM     12  C   UNL     1      45.721   3.521  12.868  0.00  0.00    +0.000 A 
ATOM     13  O   UNL     1      46.658   3.048  13.502  0.00  0.00    +0.000 OA
ATOM     14  C   UNL     1      45.620   4.918  12.491  0.00  0.00    +0.000 A 
ATOM     15  H   UNL     1      44.719   1.760  12.685  0.00  0.00    +0.000 HD
ENDBRANCH   2   5
BRANCH   1  16
ATOM     16  C   UNL     1      48.739   6.325  15.807  0.00  0.00    +0.000 C 
BRANCH  16  21
ATOM     17  C   UNL     1      49.242   4.364  19.046  0.00  0.00    +0.000 A 
ATOM     18  C   UNL     1      48.527   3.199  18.774  0.00  0.00    +0.000 A 
ATOM     19  C   UNL     1      47.900   3.035  17.536  0.00  0.00    +0.000 A 
ATOM     20  C   UNL     1      47.981   4.037  16.568  0.00  0.00    +0.000 A 
ATOM     21  C   UNL     1      48.698   5.213  16.823  0.00  0.00    +0.000 A 
ATOM     22  C   UNL     1      49.327   5.361  18.068  0.00  0.00    +0.000 A 
BRANCH  17  24
ATOM     23  C   UNL     1      49.074   4.925  21.350  0.00  0.00    +0.000 C 
ATOM     24  O   UNL     1      49.889   4.657  20.215  0.00  0.00    +0.000 OA
ENDBRANCH  17  24
ENDBRANCH  16  21
ENDBRANCH   1  16
TORSDOF 4
ENDMDL
MODEL 5
REMARK VINA RESULT:    -6.623      2.218      3.278
REMARK INTER + INTRA:          -8.749
REMARK INTER:                  -8.220
REMARK INTRA:                  -0.529
REMARK UNBOUND:                -0.577
REMARK  Name = 
REMARK  5 active torsions:
REMARK  status: ('A' for Active; 'I' for Inactive)
REMARK    1  A    between atoms: C_1  and  O_2
REMARK    2  A    between atoms: O_2  and  C_3
REMARK    3  A    between atoms: C_7  and  C_8
REMARK    4  A    between atoms: C_8  and  N_9
REMARK    5  A    between atoms: C_10  and  C_12
REMARK                            x       y       z     vdW  Elec       q    Type
REMARK                         _______ _______ _______ _____ _____    ______ ____
ROOT
ATOM      1  N   UNL     1      46.891   4.497  15.573  0.00  0.00    +0.000 N 
ATOM      2  C   UNL     1      46.783   4.240  14.231  0.00  0.00    +0.000 C 
ATOM      3  O   UNL     1      47.167   3.184  13.735  0.00  0.00    +0.000 OA
ATOM      4  H   UNL     1      46.774   5.448  15.907  0.00  0.00    +0.000 HD
ENDROOT
BRANCH   2   5
ATOM      5  C   UNL     1      46.119   5.266  13.416  0.00  0.00    +0.000 A 
ATOM      6  C   UNL     1      46.753   6.482  13.197  0.00  0.00    +0.000 A 
ATOM      7  S   UNL     1      45.864   7.551  12.212  0.00  0.00    +0.000 S 
ATOM      8  C   UNL     1      44.578   6.443  12.079  0.00  0.00    +0.000 A 
ATOM      9  N   UNL     1      43.455   6.760  11.378  0.00  0.00    +0.000 NA
ATOM     10  C   UNL     1      42.546   5.844  11.389  0.00  0.00    +0.000 A 
ATOM     11  N   UNL     1      42.661   4.638  12.030  0.00  0.00    +0.000 N 
ATOM     12  C   UNL     1      43.791   4.259  12.717  0.00  0.00    +0.000 A 
ATOM     13  O   UNL     1      43.890   3.148  13.227  0.00  0.00    +0.000 OA
ATOM     14  C   UNL     1      44.835   5.265  12.757  0.00  0.00    +0.000 A 
ATOM     15  H   UNL     1      41.915   3.958  11.988  0.00  0.00    +0.000 HD
ENDBRANCH   2   5
BRANCH   1  16
ATOM     16  C   UNL     1      47.507   3.562  16.486  0.00  0.00    +0.000 C 
BRANCH  16  21
ATOM     17  C   UNL     1      47.731   6.195  19.245  0.00  0.00    +0.000 A 
ATOM     18  C   UNL     1      48.414   5.493  20.237  0.00  0.00    +0.000 A 
ATOM     19  C   UNL     1      48.823   4.177  20.008  0.00  0.00    +0.000 A 
ATOM     20  C   UNL     1      48.546   3.555  18.790  0.00  0.00    +0.000 A 
ATOM     21  C   UNL     1      47.864   4.246  17.781  0.00  0.00    +0.000 A 
ATOM     22  C   UNL     1      47.464   5.569  18.022  0.00  0.00    +0.000 A 
BRANCH  17  24
ATOM     23  C   UNL     1      48.136   8.511  18.897  0.00  0.00    +0.000 C 
ATOM     24  O   UNL     1      47.265   7.478  19.342  0.00  0.00    +0.000 OA
ENDBRANCH  17  24
ENDBRANCH  16  21
ENDBRANCH   1  16
TORSDOF 4
ENDMDL
MODEL 6
REMARK VINA RESULT:    -6.460      5.689      8.638
REMARK INTER + INTRA:          -8.547
REMARK INTER:                  -7.982
REMARK INTRA:                  -0.565
REMARK UNBOUND:                -0.577
REMARK  Name = 
REMARK  5 active torsions:
REMARK  status: ('A' for Active; 'I' for Inactive)
REMARK    1  A    between atoms: C_1  and  O_2
REMARK    2  A    between atoms: O_2  and  C_3
REMARK    3  A    between atoms: C_7  and  C_8
REMARK    4  A    between atoms: C_8  and  N_9
REMARK    5  A    between atoms: C_10  and  C_12
REMARK                            x       y       z     vdW  Elec       q    Type
REMARK                         _______ _______ _______ _____ _____    ______ ____
ROOT
ATOM      1  N   UNL     1      44.969   7.785  12.431  0.00  0.00    +0.000 N 
ATOM      2  C   UNL     1      45.721   6.761  11.916  0.00  0.00    +0.000 C 
ATOM      3  O   UNL     1      46.915   6.892  11.657  0.00  0.00    +0.000 OA
ATOM      4  H   UNL     1      43.957   7.711  12.421  0.00  0.00    +0.000 HD
ENDROOT
BRANCH   2   5
ATOM      5  C   UNL     1      45.045   5.467  11.751  0.00  0.00    +0.000 A 
ATOM      6  C   UNL     1      44.342   4.922  12.816  0.00  0.00    +0.000 A 
ATOM      7  S   UNL     1      43.595   3.433  12.456  0.00  0.00    +0.000 S 
ATOM      8  C   UNL     1      44.224   3.441  10.874  0.00  0.00    +0.000 A 
ATOM      9  N   UNL     1      43.982   2.407  10.022  0.00  0.00    +0.000 NA
ATOM     10  C   UNL     1      44.548   2.526   8.869  0.00  0.00    +0.000 A 
ATOM     11  N   UNL     1      45.326   3.587   8.486  0.00  0.00    +0.000 N 
ATOM     12  C   UNL     1      45.564   4.672   9.298  0.00  0.00    +0.000 A 
ATOM     13  O   UNL     1      46.212   5.636   8.905  0.00  0.00    +0.000 OA
ATOM     14  C   UNL     1      44.972   4.576  10.618  0.00  0.00    +0.000 A 
ATOM     15  H   UNL     1      45.729   3.624   7.560  0.00  0.00    +0.000 HD
ENDBRANCH   2   5
BRANCH   1  16
ATOM     16  C   UNL     1      45.519   9.101  12.659  0.00  0.00    +0.000 C 
BRANCH  16  21
ATOM     17  C   UNL     1      43.251  10.920  10.182  0.00  0.00    +0.000 A 
ATOM     18  C   UNL     1      44.099  11.926   9.722  0.00  0.00    +0.000 A 
ATOM     19  C   UNL     1      45.412  12.004  10.195  0.00  0.00    +0.000 A 
ATOM     20  C   UNL     1      45.879  11.082  11.132  0.00  0.00    +0.000 A 
ATOM     21  C   UNL     1      45.042  10.063  11.602  0.00  0.00    +0.000 A 
ATOM     22  C   UNL     1      43.728   9.993  11.115  0.00  0.00    +0.000 A 
BRANCH  17  24
ATOM     23  C   UNL     1      41.061  10.241  10.810  0.00  0.00    +0.000 C 
ATOM     24  O   UNL     1      41.946  10.737   9.813  0.00  0.00    +0.000 OA
ENDBRANCH  17  24
ENDBRANCH  16  21
ENDBRANCH   1  16
TORSDOF 4
ENDMDL
MODEL 7
REMARK VINA RESULT:    -6.240      5.482      8.326
REMARK INTER + INTRA:          -8.276
REMARK INTER:                  -7.490
REMARK INTRA:                  -0.786
REMARK UNBOUND:                -0.577
REMARK  Name = 
REMARK  5 active torsions:
REMARK  status: ('A' for Active; 'I' for Inactive)
REMARK    1  A    between atoms: C_1  and  O_2
REMARK    2  A    between atoms: O_2  and  C_3
REMARK    3  A    between atoms: C_7  and  C_8
REMARK    4  A    between atoms: C_8  and  N_9
REMARK    5  A    between atoms: C_10  and  C_12
REMARK                            x       y       z     vdW  Elec       q    Type
REMARK                         _______ _______ _______ _____ _____    ______ ____
ROOT
ATOM      1  N   UNL     1      45.405   7.734  11.990  0.00  0.00    +0.000 N 
ATOM      2  C   UNL     1      46.256   6.835  11.399  0.00  0.00    +0.000 C 
ATOM      3  O   UNL     1      47.476   6.975  11.426  0.00  0.00    +0.000 OA
ATOM      4  H   UNL     1      44.418   7.708  11.759  0.00  0.00    +0.000 HD
ENDROOT
BRANCH   2   5
ATOM      5  C   UNL     1      45.640   5.651  10.786  0.00  0.00    +0.000 A 
ATOM      6  C   UNL     1      45.780   5.435   9.422  0.00  0.00    +0.000 A 
ATOM      7  S   UNL     1      45.031   4.007   8.873  0.00  0.00    +0.000 S 
ATOM      8  C   UNL     1      44.453   3.648  10.433  0.00  0.00    +0.000 A 
ATOM      9  N   UNL     1      43.687   2.544  10.656  0.00  0.00    +0.000 NA
ATOM     10  C   UNL     1      43.287   2.413  11.875  0.00  0.00    +0.000 A 
ATOM     11  N   UNL     1      43.590   3.278  12.894  0.00  0.00    +0.000 N 
ATOM     12  C   UNL     1      44.392   4.383  12.724  0.00  0.00    +0.000 A 
ATOM     13  O   UNL     1      44.697   5.104  13.668  0.00  0.00    +0.000 OA
ATOM     14  C   UNL     1      44.847   4.592  11.363  0.00  0.00    +0.000 A 
ATOM     15  H   UNL     1      43.255   3.109  13.832  0.00  0.00    +0.000 HD
ENDBRANCH   2   5
BRANCH   1  16
ATOM     16  C   UNL     1      45.885   8.930  12.642  0.00  0.00    +0.000 C 
BRANCH  16  21
ATOM     17  C   UNL     1      43.691  11.379  10.698  0.00  0.00    +0.000 A 
ATOM     18  C   UNL     1      44.536  12.484  10.600  0.00  0.00    +0.000 A 
ATOM     19  C   UNL     1      45.823  12.431  11.141  0.00  0.00    +0.000 A 
ATOM     20  C   UNL     1      46.269  11.277  11.787  0.00  0.00    +0.000 A 
ATOM     21  C   UNL     1      45.434  10.157  11.892  0.00  0.00    +0.000 A 
ATOM     22  C   UNL     1      44.147  10.222  11.339  0.00  0.00    +0.000 A 
BRANCH  17  24
ATOM     23  C   UNL     1      41.591  10.268  10.758  0.00  0.00    +0.000 C 
ATOM     24  O   UNL     1      42.410  11.301  10.225  0.00  0.00    +0.000 OA
ENDBRANCH  17  24
ENDBRANCH  16  21
ENDBRANCH   1  16
TORSDOF 4
ENDMDL
MODEL 8
REMARK VINA RESULT:    -6.191      5.757      8.587
REMARK INTER + INTRA:          -8.215
REMARK INTER:                  -7.688
REMARK INTRA:                  -0.527
REMARK UNBOUND:                -0.577
REMARK  Name = 
REMARK  5 active torsions:
REMARK  status: ('A' for Active; 'I' for Inactive)
REMARK    1  A    between atoms: C_1  and  O_2
REMARK    2  A    between atoms: O_2  and  C_3
REMARK    3  A    between atoms: C_7  and  C_8
REMARK    4  A    between atoms: C_8  and  N_9
REMARK    5  A    between atoms: C_10  and  C_12
REMARK                            x       y       z     vdW  Elec       q    Type
REMARK                         _______ _______ _______ _____ _____    ______ ____
ROOT
ATOM      1  N   UNL     1      44.783   7.733  12.337  0.00  0.00    +0.000 N 
ATOM      2  C   UNL     1      45.574   6.741  11.817  0.00  0.00    +0.000 C 
ATOM      3  O   UNL     1      46.757   6.926  11.541  0.00  0.00    +0.000 OA
ATOM      4  H   UNL     1      43.775   7.613  12.341  0.00  0.00    +0.000 HD
ENDROOT
BRANCH   2   5
ATOM      5  C   UNL     1      44.956   5.417  11.668  0.00  0.00    +0.000 A 
ATOM      6  C   UNL     1      44.281   4.852  12.742  0.00  0.00    +0.000 A 
ATOM      7  S   UNL     1      43.601   3.328  12.399  0.00  0.00    +0.000 S 
ATOM      8  C   UNL     1      44.222   3.348  10.814  0.00  0.00    +0.000 A 
ATOM      9  N   UNL     1      44.023   2.296   9.974  0.00  0.00    +0.000 NA
ATOM     10  C   UNL     1      44.577   2.428   8.817  0.00  0.00    +0.000 A 
ATOM     11  N   UNL     1      45.306   3.519   8.420  0.00  0.00    +0.000 N 
ATOM     12  C   UNL     1      45.499   4.621   9.220  0.00  0.00    +0.000 A 
ATOM     13  O   UNL     1      46.102   5.610   8.815  0.00  0.00    +0.000 OA
ATOM     14  C   UNL     1      44.917   4.513  10.544  0.00  0.00    +0.000 A 
ATOM     15  H   UNL     1      45.703   3.565   7.492  0.00  0.00    +0.000 HD
ENDBRANCH   2   5
BRANCH   1  16
ATOM     16  C   UNL     1      45.275   9.074  12.551  0.00  0.00    +0.000 C 
BRANCH  16  21
ATOM     17  C   UNL     1      45.233  11.874   9.953  0.00  0.00    +0.000 A 
ATOM     18  C   UNL     1      44.024  11.625   9.303  0.00  0.00    +0.000 A 
ATOM     19  C   UNL     1      43.211  10.567   9.718  0.00  0.00    +0.000 A 
ATOM     20  C   UNL     1      43.605   9.750  10.778  0.00  0.00    +0.000 A 
ATOM     21  C   UNL     1      44.814   9.988  11.445  0.00  0.00    +0.000 A 
ATOM     22  C   UNL     1      45.617  11.057  11.022  0.00  0.00    +0.000 A 
BRANCH  17  24
ATOM     23  C   UNL     1      47.494  12.607   9.930  0.00  0.00    +0.000 C 
ATOM     24  O   UNL     1      46.125  12.863   9.642  0.00  0.00    +0.000 OA
ENDBRANCH  17  24
ENDBRANCH  16  21
ENDBRANCH   1  16
TORSDOF 4
ENDMDL
MODEL 9
REMARK VINA RESULT:    -6.097      2.325      3.479
REMARK INTER + INTRA:          -8.099
REMARK INTER:                  -7.201
REMARK INTRA:                  -0.898
REMARK UNBOUND:                -0.577
REMARK  Name = 
REMARK  5 active torsions:
REMARK  status: ('A' for Active; 'I' for Inactive)
REMARK    1  A    between atoms: C_1  and  O_2
REMARK    2  A    between atoms: O_2  and  C_3
REMARK    3  A    between atoms: C_7  and  C_8
REMARK    4  A    between atoms: C_8  and  N_9
REMARK    5  A    between atoms: C_10  and  C_12
REMARK                            x       y       z     vdW  Elec       q    Type
REMARK                         _______ _______ _______ _____ _____    ______ ____
ROOT
ATOM      1  N   UNL     1      47.471   7.297  14.395  0.00  0.00    +0.000 N 
ATOM      2  C   UNL     1      47.341   7.257  13.031  0.00  0.00    +0.000 C 
ATOM      3  O   UNL     1      48.228   7.651  12.278  0.00  0.00    +0.000 OA
ATOM      4  H   UNL     1      46.647   7.176  14.976  0.00  0.00    +0.000 HD
ENDROOT
BRANCH   2   5
ATOM      5  C   UNL     1      46.111   6.651  12.505  0.00  0.00    +0.000 A 
ATOM      6  C   UNL     1      45.159   7.456  11.893  0.00  0.00    +0.000 A 
ATOM      7  S   UNL     1      43.805   6.600  11.314  0.00  0.00    +0.000 S 
ATOM      8  C   UNL     1      44.421   5.125  11.900  0.00  0.00    +0.000 A 
ATOM      9  N   UNL     1      43.716   3.969  11.758  0.00  0.00    +0.000 NA
ATOM     10  C   UNL     1      44.283   2.934  12.279  0.00  0.00    +0.000 A 
ATOM     11  N   UNL     1      45.495   2.947  12.921  0.00  0.00    +0.000 N 
ATOM     12  C   UNL     1      46.260   4.083  13.053  0.00  0.00    +0.000 A 
ATOM     13  O   UNL     1      47.368   4.051  13.577  0.00  0.00    +0.000 OA
ATOM     14  C   UNL     1      45.654   5.282  12.507  0.00  0.00    +0.000 A 
ATOM     15  H   UNL     1      45.890   2.096  13.296  0.00  0.00    +0.000 HD
ENDBRANCH   2   5
BRANCH   1  16
ATOM     16  C   UNL     1      48.639   7.851  15.039  0.00  0.00    +0.000 C 
BRANCH  16  21
ATOM     17  C   UNL     1      49.175   4.750  17.204  0.00  0.00    +0.000 A 
ATOM     18  C   UNL     1      50.550   4.807  17.427  0.00  0.00    +0.000 A 
ATOM     19  C   UNL     1      51.302   5.859  16.897  0.00  0.00    +0.000 A 
ATOM     20  C   UNL     1      50.685   6.853  16.138  0.00  0.00    +0.000 A 
ATOM     21  C   UNL     1      49.304   6.814  15.908  0.00  0.00    +0.000 A 
ATOM     22  C   UNL     1      48.560   5.756  16.450  0.00  0.00    +0.000 A 
BRANCH  17  24
ATOM     23  C   UNL     1      47.007   3.779  17.122  0.00  0.00    +0.000 C 
ATOM     24  O   UNL     1      48.326   3.775  17.653  0.00  0.00    +0.000 OA
ENDBRANCH  17  24
ENDBRANCH  16  21
ENDBRANCH   1  16
TORSDOF 4
ENDMDL
