MODEL 1
REMARK VINA RESULT:    -7.305      0.000      0.000
REMARK INTER + INTRA:          -9.584
REMARK INTER:                  -9.014
REMARK INTRA:                  -0.570
REMARK UNBOUND:                -0.570
REMARK  Name = 
REMARK  4 active torsions:
REMARK  status: ('A' for Active; 'I' for Inactive)
REMARK    1  A    between atoms: C_5  and  N_6
REMARK    2  A    between atoms: N_6  and  C_7
REMARK    3  A    between atoms: C_7  and  C_8
REMARK    4  A    between atoms: C_12  and  C_13
REMARK                            x       y       z     vdW  Elec       q    Type
REMARK                         _______ _______ _______ _____ _____    ______ ____
ROOT
ATOM      1  C   UNL     1      45.082   5.237  12.297  0.00  0.00    +0.000 A 
ATOM      2  C   UNL     1      45.610   4.346  13.243  0.00  0.00    +0.000 A 
ATOM      3  C   UNL     1      46.896   4.511  13.745  0.00  0.00    +0.000 A 
ATOM      4  C   UNL     1      47.692   5.562  13.293  0.00  0.00    +0.000 A 
ATOM      5  C   UNL     1      47.192   6.517  12.400  0.00  0.00    +0.000 A 
ATOM      6  C   UNL     1      45.866   6.360  11.960  0.00  0.00    +0.000 A 
ENDROOT
BRANCH   5   7
ATOM      7  C   UNL     1      48.044   7.615  11.764  0.00  0.00    +0.000 C 
ATOM      8  C   UNL     1      49.565   7.492  11.971  0.00  0.00    +0.000 C 
ATOM      9  C   UNL     1      50.006   7.963  13.359  0.00  0.00    +0.000 C 
ATOM     10  N   UNL     1      49.562   9.326  13.647  0.00  0.00    +0.000 NA
ATOM     11  C   UNL     1      48.106   9.446  13.528  0.00  0.00    +0.000 C 
ATOM     12  C   UNL     1      47.610   9.044  12.141  0.00  0.00    +0.000 C 
ATOM     13  H   UNL     1      50.008   9.968  12.993  0.00  0.00    +0.000 HD
ENDBRANCH   5   7
BRANCH   1  14
ATOM     14  C   UNL     1      43.782   4.927  11.552  0.00  0.00    +0.000 C 
ATOM     15  C   UNL     1      42.488   5.347  12.245  0.00  0.00    +0.000 C 
ATOM     16  C   UNL     1      42.967   6.117  11.064  0.00  0.00    +0.000 C 
BRANCH  14  17
ATOM     17  N   UNL     1      43.771   3.667  10.791  0.00  0.00    +0.000 N 
ATOM     18  H   UNL     1      43.759   2.803  11.327  0.00  0.00    +0.000 HD
BRANCH  17  23
ATOM     19 CL   UNL     1      47.342   2.746   6.288  0.00  0.00    +0.000 Cl
ATOM     20  C   UNL     1      46.269   3.006   7.592  0.00  0.00    +0.000 A 
ATOM     21  C   UNL     1      45.823   1.977   8.403  0.00  0.00    +0.000 A 
ATOM     22  N   UNL     1      44.985   2.176   9.455  0.00  0.00    +0.000 NA
ATOM     23  C   UNL     1      44.613   3.449   9.692  0.00  0.00    +0.000 A 
ATOM     24  C   UNL     1      45.053   4.471   8.836  0.00  0.00    +0.000 A 
ATOM     25  N   UNL     1      45.892   4.284   7.783  0.00  0.00    +0.000 NA
ENDBRANCH  17  23
ENDBRANCH  14  17
ENDBRANCH   1  14
TORSDOF 4
ENDMDL
MODEL 2
REMARK VINA RESULT:    -7.015      1.313      2.191
REMARK INTER + INTRA:          -9.226
REMARK INTER:                  -9.398
REMARK INTRA:                   0.172
REMARK UNBOUND:                -0.570
REMARK  Name = 
REMARK  4 active torsions:
REMARK  status: ('A' for Active; 'I' for Inactive)
REMARK    1  A    between atoms: C_5  and  N_6
REMARK    2  A    between atoms: N_6  and  C_7
REMARK    3  A    between atoms: C_7  and  C_8
REMARK    4  A    between atoms: C_12  and  C_13
REMARK                            x       y       z     vdW  Elec       q    Type
REMARK                         _______ _______ _______ _____ _____    ______ ____
ROOT
ATOM      1  C   UNL     1      44.919   6.287  11.244  0.00  0.00    +0.000 A 
ATOM      2  C   UNL     1      44.364   7.563  11.413  0.00  0.00    +0.000 A 
ATOM      3  C   UNL     1      45.135   8.626  11.872  0.00  0.00    +0.000 A 
ATOM      4  C   UNL     1      46.476   8.428  12.192  0.00  0.00    +0.000 A 
ATOM      5  C   UNL     1      47.097   7.191  11.980  0.00  0.00    +0.000 A 
ATOM      6  C   UNL     1      46.308   6.153  11.455  0.00  0.00    +0.000 A 
ENDROOT
BRANCH   5   7
ATOM      7  C   UNL     1      48.521   6.867  12.429  0.00  0.00    +0.000 C 
ATOM      8  C   UNL     1      48.820   7.072  13.925  0.00  0.00    +0.000 C 
ATOM      9  C   UNL     1      49.051   8.542  14.279  0.00  0.00    +0.000 C 
ATOM     10  N   UNL     1      50.102   9.148  13.462  0.00  0.00    +0.000 NA
ATOM     11  C   UNL     1      49.799   9.029  12.034  0.00  0.00    +0.000 C 
ATOM     12  C   UNL     1      49.615   7.575  11.607  0.00  0.00    +0.000 C 
ATOM     13  H   UNL     1      50.988   8.684  13.659  0.00  0.00    +0.000 HD
ENDBRANCH   5   7
BRANCH   1  14
ATOM     14  C   UNL     1      44.037   5.063  10.989  0.00  0.00    +0.000 C 
ATOM     15  C   UNL     1      44.108   3.949  12.030  0.00  0.00    +0.000 C 
ATOM     16  C   UNL     1      42.899   4.816  11.971  0.00  0.00    +0.000 C 
BRANCH  14  17
ATOM     17  N   UNL     1      43.887   4.670   9.578  0.00  0.00    +0.000 N 
ATOM     18  H   UNL     1      42.966   4.356   9.281  0.00  0.00    +0.000 HD
BRANCH  17  23
ATOM     19 CL   UNL     1      47.717   1.293   6.785  0.00  0.00    +0.000 Cl
ATOM     20  C   UNL     1      46.616   2.294   7.624  0.00  0.00    +0.000 A 
ATOM     21  C   UNL     1      46.543   3.659   7.411  0.00  0.00    +0.000 A 
ATOM     22  N   UNL     1      45.657   4.463   8.060  0.00  0.00    +0.000 NA
ATOM     23  C   UNL     1      44.822   3.855   8.925  0.00  0.00    +0.000 A 
ATOM     24  C   UNL     1      44.937   2.473   9.147  0.00  0.00    +0.000 A 
ATOM     25  N   UNL     1      45.817   1.662   8.503  0.00  0.00    +0.000 NA
ENDBRANCH  17  23
ENDBRANCH  14  17
ENDBRANCH   1  14
TORSDOF 4
ENDMDL
MODEL 3
REMARK VINA RESULT:    -6.741      2.883      3.746
REMARK INTER + INTRA:          -8.888
REMARK INTER:                  -8.116
REMARK INTRA:                  -0.771
REMARK UNBOUND:                -0.570
REMARK  Name = 
REMARK  4 active torsions:
REMARK  status: ('A' for Active; 'I' for Inactive)
REMARK    1  A    between atoms: C_5  and  N_6
REMARK    2  A    between atoms: N_6  and  C_7
REMARK    3  A    between atoms: C_7  and  C_8
REMARK    4  A    between atoms: C_12  and  C_13
REMARK                            x       y       z     vdW  Elec       q    Type
REMARK                         _______ _______ _______ _____ _____    ______ ____
ROOT
ATOM      1  C   UNL     1      44.588   6.788  12.156  0.00  0.00    +0.000 A 
ATOM      2  C   UNL     1      45.766   7.004  12.884  0.00  0.00    +0.000 A 
ATOM      3  C   UNL     1      46.422   8.229  12.843  0.00  0.00    +0.000 A 
ATOM      4  C   UNL     1      45.923   9.261  12.051  0.00  0.00    +0.000 A 
ATOM      5  C   UNL     1      44.715   9.122  11.356  0.00  0.00    +0.000 A 
ATOM      6  C   UNL     1      44.042   7.893  11.469  0.00  0.00    +0.000 A 
ENDROOT
BRANCH   5   7
ATOM      7  C   UNL     1      44.177  10.159  10.371  0.00  0.00    +0.000 C 
ATOM      8  C   UNL     1      44.836  11.549  10.428  0.00  0.00    +0.000 C 
ATOM      9  C   UNL     1      44.315  12.394  11.592  0.00  0.00    +0.000 C 
ATOM     10  N   UNL     1      42.858  12.522  11.573  0.00  0.00    +0.000 NA
ATOM     11  C   UNL     1      42.210  11.208  11.593  0.00  0.00    +0.000 C 
ATOM     12  C   UNL     1      42.648  10.336  10.418  0.00  0.00    +0.000 C 
ATOM     13  H   UNL     1      42.578  13.024  10.731  0.00  0.00    +0.000 HD
ENDBRANCH   5   7
BRANCH   1  14
ATOM     14  C   UNL     1      44.001   5.385  11.989  0.00  0.00    +0.000 C 
ATOM     15  C   UNL     1      42.871   5.005  12.942  0.00  0.00    +0.000 C 
ATOM     16  C   UNL     1      42.557   5.293  11.515  0.00  0.00    +0.000 C 
BRANCH  14  17
ATOM     17  N   UNL     1      44.964   4.334  11.619  0.00  0.00    +0.000 N 
ATOM     18  H   UNL     1      45.839   4.306  12.136  0.00  0.00    +0.000 HD
BRANCH  17  23
ATOM     19 CL   UNL     1      46.332   3.067   6.105  0.00  0.00    +0.000 Cl
ATOM     20  C   UNL     1      45.899   3.438   7.716  0.00  0.00    +0.000 A 
ATOM     21  C   UNL     1      45.463   2.474   8.608  0.00  0.00    +0.000 A 
ATOM     22  N   UNL     1      45.134   2.756   9.898  0.00  0.00    +0.000 NA
ATOM     23  C   UNL     1      45.273   4.039  10.284  0.00  0.00    +0.000 A 
ATOM     24  C   UNL     1      45.688   5.003   9.351  0.00  0.00    +0.000 A 
ATOM     25  N   UNL     1      46.020   4.733   8.061  0.00  0.00    +0.000 NA
ENDBRANCH  17  23
ENDBRANCH  14  17
ENDBRANCH   1  14
TORSDOF 4
ENDMDL
MODEL 4
REMARK VINA RESULT:    -6.362      2.981      6.781
REMARK INTER + INTRA:          -8.419
REMARK INTER:                  -7.894
REMARK INTRA:                  -0.525
REMARK UNBOUND:                -0.570
REMARK  Name = 
REMARK  4 active torsions:
REMARK  status: ('A' for Active; 'I' for Inactive)
REMARK    1  A    between atoms: C_5  and  N_6
REMARK    2  A    between atoms: N_6  and  C_7
REMARK    3  A    between atoms: C_7  and  C_8
REMARK    4  A    between atoms: C_12  and  C_13
REMARK                            x       y       z     vdW  Elec       q    Type
REMARK                         _______ _______ _______ _____ _____    ______ ____
ROOT
ATOM      1  C   UNL     1      47.460   6.559  12.748  0.00  0.00    +0.000 A 
ATOM      2  C   UNL     1      47.498   5.832  13.946  0.00  0.00    +0.000 A 
ATOM      3  C   UNL     1      46.592   4.805  14.192  0.00  0.00    +0.000 A 
ATOM      4  C   UNL     1      45.612   4.500  13.249  0.00  0.00    +0.000 A 
ATOM      5  C   UNL     1      45.571   5.150  12.010  0.00  0.00    +0.000 A 
ATOM      6  C   UNL     1      46.541   6.138  11.765  0.00  0.00    +0.000 A 
ENDROOT
BRANCH   5   7
ATOM      7  C   UNL     1      44.453   4.958  10.986  0.00  0.00    +0.000 C 
ATOM      8  C   UNL     1      43.191   4.236  11.494  0.00  0.00    +0.000 C 
ATOM      9  C   UNL     1      43.376   2.719  11.565  0.00  0.00    +0.000 C 
ATOM     10  N   UNL     1      43.807   2.154  10.286  0.00  0.00    +0.000 NA
ATOM     11  C   UNL     1      45.048   2.778   9.822  0.00  0.00    +0.000 C 
ATOM     12  C   UNL     1      44.908   4.291   9.675  0.00  0.00    +0.000 C 
ATOM     13  H   UNL     1      43.075   2.301   9.593  0.00  0.00    +0.000 HD
ENDBRANCH   5   7
BRANCH   1  14
ATOM     14  C   UNL     1      48.273   7.844  12.572  0.00  0.00    +0.000 C 
ATOM     15  C   UNL     1      49.788   7.710  12.705  0.00  0.00    +0.000 C 
ATOM     16  C   UNL     1      49.189   7.920  11.358  0.00  0.00    +0.000 C 
BRANCH  14  17
ATOM     17  N   UNL     1      47.647   9.069  13.097  0.00  0.00    +0.000 N 
ATOM     18  H   UNL     1      47.274   9.028  14.043  0.00  0.00    +0.000 HD
BRANCH  17  23
ATOM     19 CL   UNL     1      43.906  12.171   9.894  0.00  0.00    +0.000 Cl
ATOM     20  C   UNL     1      44.995  11.276  10.861  0.00  0.00    +0.000 A 
ATOM     21  C   UNL     1      44.588  10.211  11.645  0.00  0.00    +0.000 A 
ATOM     22  N   UNL     1      45.449   9.480  12.403  0.00  0.00    +0.000 NA
ATOM     23  C   UNL     1      46.748   9.833  12.341  0.00  0.00    +0.000 A 
ATOM     24  C   UNL     1      47.131  10.937  11.563  0.00  0.00    +0.000 A 
ATOM     25  N   UNL     1      46.279  11.673  10.800  0.00  0.00    +0.000 NA
ENDBRANCH  17  23
ENDBRANCH  14  17
ENDBRANCH   1  14
TORSDOF 4
ENDMDL
MODEL 5
REMARK VINA RESULT:    -6.216      3.555      5.651
REMARK INTER + INTRA:          -8.240
REMARK INTER:                  -7.599
REMARK INTRA:                  -0.641
REMARK UNBOUND:                -0.570
REMARK  Name = 
REMARK  4 active torsions:
REMARK  status: ('A' for Active; 'I' for Inactive)
REMARK    1  A    between atoms: C_5  and  N_6
REMARK    2  A    between atoms: N_6  and  C_7
REMARK    3  A    between atoms: C_7  and  C_8
REMARK    4  A    between atoms: C_12  and  C_13
REMARK                            x       y       z     vdW  Elec       q    Type
REMARK                         _______ _______ _______ _____ _____    ______ ____
ROOT
ATOM      1  C   UNL     1      48.264   7.957  14.496  0.00  0.00    +0.000 A 
ATOM      2  C   UNL     1      48.346   9.244  15.047  0.00  0.00    +0.000 A 
ATOM      3  C   UNL     1      48.741   9.436  16.367  0.00  0.00    +0.000 A 
ATOM      4  C   UNL     1      49.043   8.339  17.171  0.00  0.00    +0.000 A 
ATOM      5  C   UNL     1      49.041   7.038  16.653  0.00  0.00    +0.000 A 
ATOM      6  C   UNL     1      48.700   6.882  15.298  0.00  0.00    +0.000 A 
ENDROOT
BRANCH   5   7
ATOM      7  C   UNL     1      49.234   5.784  17.505  0.00  0.00    +0.000 C 
ATOM      8  C   UNL     1      48.784   4.459  16.863  0.00  0.00    +0.000 C 
ATOM      9  C   UNL     1      47.268   4.262  16.929  0.00  0.00    +0.000 C 
ATOM     10  N   UNL     1      46.757   4.366  18.295  0.00  0.00    +0.000 NA
ATOM     11  C   UNL     1      47.110   5.653  18.898  0.00  0.00    +0.000 C 
ATOM     12  C   UNL     1      48.620   5.881  18.914  0.00  0.00    +0.000 C 
ATOM     13  H   UNL     1      47.148   3.611  18.857  0.00  0.00    +0.000 HD
ENDBRANCH   5   7
BRANCH   1  14
ATOM     14  C   UNL     1      47.593   7.712  13.143  0.00  0.00    +0.000 C 
ATOM     15  C   UNL     1      48.212   8.421  11.942  0.00  0.00    +0.000 C 
ATOM     16  C   UNL     1      48.400   6.953  12.099  0.00  0.00    +0.000 C 
BRANCH  14  17
ATOM     17  N   UNL     1      46.127   7.580  13.176  0.00  0.00    +0.000 N 
ATOM     18  H   UNL     1      45.648   7.948  13.994  0.00  0.00    +0.000 HD
BRANCH  17  23
ATOM     19 CL   UNL     1      43.335   2.674  11.756  0.00  0.00    +0.000 Cl
ATOM     20  C   UNL     1      44.176   4.108  12.151  0.00  0.00    +0.000 A 
ATOM     21  C   UNL     1      44.085   5.257  11.385  0.00  0.00    +0.000 A 
ATOM     22  N   UNL     1      44.735   6.409  11.701  0.00  0.00    +0.000 NA
ATOM     23  C   UNL     1      45.475   6.389  12.828  0.00  0.00    +0.000 A 
ATOM     24  C   UNL     1      45.577   5.202  13.570  0.00  0.00    +0.000 A 
ATOM     25  N   UNL     1      44.930   4.046  13.264  0.00  0.00    +0.000 NA
ENDBRANCH  17  23
ENDBRANCH  14  17
ENDBRANCH   1  14
TORSDOF 4
ENDMDL
MODEL 6
REMARK VINA RESULT:    -6.083      3.712      7.443
REMARK INTER + INTRA:          -8.076
REMARK INTER:                  -7.262
REMARK INTRA:                  -0.814
REMARK UNBOUND:                -0.570
REMARK  Name = 
REMARK  4 active torsions:
REMARK  status: ('A' for Active; 'I' for Inactive)
REMARK    1  A    between atoms: C_5  and  N_6
REMARK    2  A    between atoms: N_6  and  C_7
REMARK    3  A    between atoms: C_7  and  C_8
REMARK    4  A    between atoms: C_12  and  C_13
REMARK                            x       y       z     vdW  Elec       q    Type
REMARK                         _______ _______ _______ _____ _____    ______ ____
ROOT
ATOM      1  C   UNL     1      47.550   7.955  12.488  0.00  0.00    +0.000 A 
ATOM      2  C   UNL     1      46.885   9.187  12.581  0.00  0.00    +0.000 A 
ATOM      3  C   UNL     1      45.538   9.302  12.259  0.00  0.00    +0.000 A 
ATOM      4  C   UNL     1      44.829   8.187  11.815  0.00  0.00    +0.000 A 
ATOM      5  C   UNL     1      45.426   6.921  11.766  0.00  0.00    +0.000 A 
ATOM      6  C   UNL     1      46.772   6.825  12.159  0.00  0.00    +0.000 A 
ENDROOT
BRANCH   5   7
ATOM      7  C   UNL     1      44.752   5.687  11.169  0.00  0.00    +0.000 C 
ATOM      8  C   UNL     1      43.235   5.566  11.405  0.00  0.00    +0.000 C 
ATOM      9  C   UNL     1      42.901   5.061  12.810  0.00  0.00    +0.000 C 
ATOM     10  N   UNL     1      43.565   3.794  13.114  0.00  0.00    +0.000 NA
ATOM     11  C   UNL     1      45.018   3.909  12.967  0.00  0.00    +0.000 C 
ATOM     12  C   UNL     1      45.418   4.355  11.563  0.00  0.00    +0.000 C 
ATOM     13  H   UNL     1      43.217   3.074  12.482  0.00  0.00    +0.000 HD
ENDBRANCH   5   7
BRANCH   1  14
ATOM     14  C   UNL     1      49.073   7.864  12.589  0.00  0.00    +0.000 C 
ATOM     15  C   UNL     1      49.848   7.987  11.279  0.00  0.00    +0.000 C 
ATOM     16  C   UNL     1      49.865   9.119  12.247  0.00  0.00    +0.000 C 
BRANCH  14  17
ATOM     17  N   UNL     1      49.588   6.924  13.599  0.00  0.00    +0.000 N 
ATOM     18  H   UNL     1      49.570   5.935  13.362  0.00  0.00    +0.000 HD
BRANCH  17  23
ATOM     19 CL   UNL     1      48.071   7.317  19.205  0.00  0.00    +0.000 Cl
ATOM     20  C   UNL     1      48.545   7.190  17.568  0.00  0.00    +0.000 A 
ATOM     21  C   UNL     1      48.515   5.991  16.878  0.00  0.00    +0.000 A 
ATOM     22  N   UNL     1      48.871   5.882  15.570  0.00  0.00    +0.000 NA
ATOM     23  C   UNL     1      49.245   7.021  14.955  0.00  0.00    +0.000 A 
ATOM     24  C   UNL     1      49.298   8.219  15.685  0.00  0.00    +0.000 A 
ATOM     25  N   UNL     1      48.942   8.339  16.992  0.00  0.00    +0.000 NA
ENDBRANCH  17  23
ENDBRANCH  14  17
ENDBRANCH   1  14
TORSDOF 4
ENDMDL
MODEL 7
REMARK VINA RESULT:    -6.008      3.449      6.634
REMARK INTER + INTRA:          -7.983
REMARK INTER:                  -8.097
REMARK INTRA:                   0.114
REMARK UNBOUND:                -0.570
REMARK  Name = 
REMARK  4 active torsions:
REMARK  status: ('A' for Active; 'I' for Inactive)
REMARK    1  A    between atoms: C_5  and  N_6
REMARK    2  A    between atoms: N_6  and  C_7
REMARK    3  A    between atoms: C_7  and  C_8
REMARK    4  A    between atoms: C_12  and  C_13
REMARK                            x       y       z     vdW  Elec       q    Type
REMARK                         _______ _______ _______ _____ _____    ______ ____
ROOT
ATOM      1  C   UNL     1      45.159   4.436  11.151  0.00  0.00    +0.000 A 
ATOM      2  C   UNL     1      45.824   5.668  11.064  0.00  0.00    +0.000 A 
ATOM      3  C   UNL     1      46.283   6.151   9.844  0.00  0.00    +0.000 A 
ATOM      4  C   UNL     1      46.106   5.399   8.685  0.00  0.00    +0.000 A 
ATOM      5  C   UNL     1      45.392   4.194   8.704  0.00  0.00    +0.000 A 
ATOM      6  C   UNL     1      44.884   3.764   9.942  0.00  0.00    +0.000 A 
ENDROOT
BRANCH   5   7
ATOM      7  C   UNL     1      45.273   3.258   7.503  0.00  0.00    +0.000 C 
ATOM      8  C   UNL     1      45.094   1.764   7.828  0.00  0.00    +0.000 C 
ATOM      9  C   UNL     1      46.412   1.088   8.214  0.00  0.00    +0.000 C 
ATOM     10  N   UNL     1      47.443   1.267   7.194  0.00  0.00    +0.000 NA
ATOM     11  C   UNL     1      47.682   2.687   6.923  0.00  0.00    +0.000 C 
ATOM     12  C   UNL     1      46.410   3.405   6.475  0.00  0.00    +0.000 C 
ATOM     13  H   UNL     1      47.148   0.804   6.335  0.00  0.00    +0.000 HD
ENDBRANCH   5   7
BRANCH   1  14
ATOM     14  C   UNL     1      44.879   3.777  12.504  0.00  0.00    +0.000 C 
ATOM     15  C   UNL     1      43.757   4.392  13.337  0.00  0.00    +0.000 C 
ATOM     16  C   UNL     1      43.535   3.081  12.667  0.00  0.00    +0.000 C 
BRANCH  14  17
ATOM     17  N   UNL     1      46.061   3.268  13.220  0.00  0.00    +0.000 N 
ATOM     18  H   UNL     1      45.980   2.351  13.652  0.00  0.00    +0.000 HD
BRANCH  17  23
ATOM     19 CL   UNL     1      49.055   6.609  16.928  0.00  0.00    +0.000 Cl
ATOM     20  C   UNL     1      48.202   5.609  15.837  0.00  0.00    +0.000 A 
ATOM     21  C   UNL     1      47.621   4.414  16.224  0.00  0.00    +0.000 A 
ATOM     22  N   UNL     1      46.923   3.620  15.368  0.00  0.00    +0.000 NA
ATOM     23  C   UNL     1      46.802   4.066  14.103  0.00  0.00    +0.000 A 
ATOM     24  C   UNL     1      47.426   5.266  13.727  0.00  0.00    +0.000 A 
ATOM     25  N   UNL     1      48.124   6.068  14.574  0.00  0.00    +0.000 NA
ENDBRANCH  17  23
ENDBRANCH  14  17
ENDBRANCH   1  14
TORSDOF 4
ENDMDL
MODEL 8
REMARK VINA RESULT:    -5.783      3.535      6.701
REMARK INTER + INTRA:          -7.705
REMARK INTER:                  -7.671
REMARK INTRA:                  -0.034
REMARK UNBOUND:                -0.570
REMARK  Name = 
REMARK  4 active torsions:
REMARK  status: ('A' for Active; 'I' for Inactive)
REMARK    1  A    between atoms: C_5  and  N_6
REMARK    2  A    between atoms: N_6  and  C_7
REMARK    3  A    between atoms: C_7  and  C_8
REMARK    4  A    between atoms: C_12  and  C_13
REMARK                            x       y       z     vdW  Elec       q    Type
REMARK                         _______ _______ _______ _____ _____    ______ ____
ROOT
ATOM      1  C   UNL     1      46.746   7.802  12.768  0.00  0.00    +0.000 A 
ATOM      2  C   UNL     1      47.687   6.980  13.404  0.00  0.00    +0.000 A 
ATOM      3  C   UNL     1      47.368   5.679  13.777  0.00  0.00    +0.000 A 
ATOM      4  C   UNL     1      46.090   5.179  13.539  0.00  0.00    +0.000 A 
ATOM      5  C   UNL     1      45.133   5.934  12.850  0.00  0.00    +0.000 A 
ATOM      6  C   UNL     1      45.506   7.222  12.429  0.00  0.00    +0.000 A 
ENDROOT
BRANCH   5   7
ATOM      7  C   UNL     1      43.678   5.502  12.670  0.00  0.00    +0.000 C 
ATOM      8  C   UNL     1      43.312   4.116  13.230  0.00  0.00    +0.000 C 
ATOM      9  C   UNL     1      43.756   2.978  12.309  0.00  0.00    +0.000 C 
ATOM     10  N   UNL     1      43.235   3.132  10.951  0.00  0.00    +0.000 NA
ATOM     11  C   UNL     1      43.636   4.416  10.372  0.00  0.00    +0.000 C 
ATOM     12  C   UNL     1      43.169   5.597  11.220  0.00  0.00    +0.000 C 
ATOM     13  H   UNL     1      42.218   3.074  10.975  0.00  0.00    +0.000 HD
ENDBRANCH   5   7
BRANCH   1  14
ATOM     14  C   UNL     1      46.994   9.301  12.586  0.00  0.00    +0.000 C 
ATOM     15  C   UNL     1      48.239   9.869  13.262  0.00  0.00    +0.000 C 
ATOM     16  C   UNL     1      48.222   9.705  11.782  0.00  0.00    +0.000 C 
BRANCH  14  17
ATOM     17  N   UNL     1      45.788  10.146  12.558  0.00  0.00    +0.000 N 
ATOM     18  H   UNL     1      45.026   9.885  13.180  0.00  0.00    +0.000 HD
BRANCH  17  23
ATOM     19 CL   UNL     1      43.319  12.003   7.625  0.00  0.00    +0.000 Cl
ATOM     20  C   UNL     1      44.067  11.443   9.056  0.00  0.00    +0.000 A 
ATOM     21  C   UNL     1      45.185  12.053   9.597  0.00  0.00    +0.000 A 
ATOM     22  N   UNL     1      45.776  11.628  10.746  0.00  0.00    +0.000 NA
ATOM     23  C   UNL     1      45.202  10.574  11.359  0.00  0.00    +0.000 A 
ATOM     24  C   UNL     1      44.087   9.954  10.774  0.00  0.00    +0.000 A 
ATOM     25  N   UNL     1      43.488  10.371   9.627  0.00  0.00    +0.000 NA
ENDBRANCH  17  23
ENDBRANCH  14  17
ENDBRANCH   1  14
TORSDOF 4
ENDMDL
MODEL 9
REMARK VINA RESULT:    -5.747      3.606      5.713
REMARK INTER + INTRA:          -7.662
REMARK INTER:                  -7.415
REMARK INTRA:                  -0.247
REMARK UNBOUND:                -0.570
REMARK  Name = 
REMARK  4 active torsions:
REMARK  status: ('A' for Active; 'I' for Inactive)
REMARK    1  A    between atoms: C_5  and  N_6
REMARK    2  A    between atoms: N_6  and  C_7
REMARK    3  A    between atoms: C_7  and  C_8
REMARK    4  A    between atoms: C_12  and  C_13
REMARK                            x       y       z     vdW  Elec       q    Type
REMARK                         _______ _______ _______ _____ _____    ______ ____
ROOT
ATOM      1  C   UNL     1      48.507   7.141  15.168  0.00  0.00    +0.000 A 
ATOM      2  C   UNL     1      48.885   8.247  15.943  0.00  0.00    +0.000 A 
ATOM      3  C   UNL     1      49.101   8.123  17.312  0.00  0.00    +0.000 A 
ATOM      4  C   UNL     1      48.922   6.891  17.937  0.00  0.00    +0.000 A 
ATOM      5  C   UNL     1      48.610   5.743  17.201  0.00  0.00    +0.000 A 
ATOM      6  C   UNL     1      48.461   5.887  15.810  0.00  0.00    +0.000 A 
ENDROOT
BRANCH   5   7
ATOM      7  C   UNL     1      48.272   4.393  17.833  0.00  0.00    +0.000 C 
ATOM      8  C   UNL     1      49.473   3.536  18.273  0.00  0.00    +0.000 C 
ATOM      9  C   UNL     1      50.135   2.812  17.099  0.00  0.00    +0.000 C 
ATOM     10  N   UNL     1      49.183   2.002  16.341  0.00  0.00    +0.000 NA
ATOM     11  C   UNL     1      48.068   2.816  15.849  0.00  0.00    +0.000 C 
ATOM     12  C   UNL     1      47.329   3.520  16.985  0.00  0.00    +0.000 C 
ATOM     13  H   UNL     1      48.821   1.262  16.941  0.00  0.00    +0.000 HD
ENDBRANCH   5   7
BRANCH   1  14
ATOM     14  C   UNL     1      48.021   7.310  13.727  0.00  0.00    +0.000 C 
ATOM     15  C   UNL     1      48.815   8.277  12.852  0.00  0.00    +0.000 C 
ATOM     16  C   UNL     1      48.945   6.811  12.624  0.00  0.00    +0.000 C 
BRANCH  14  17
ATOM     17  N   UNL     1      46.561   7.262  13.539  0.00  0.00    +0.000 N 
ATOM     18  H   UNL     1      45.984   7.457  14.353  0.00  0.00    +0.000 HD
BRANCH  17  23
ATOM     19 CL   UNL     1      44.030   2.925  10.596  0.00  0.00    +0.000 Cl
ATOM     20  C   UNL     1      44.747   4.201  11.478  0.00  0.00    +0.000 A 
ATOM     21  C   UNL     1      45.300   4.017  12.732  0.00  0.00    +0.000 A 
ATOM     22  N   UNL     1      45.890   5.021  13.435  0.00  0.00    +0.000 NA
ATOM     23  C   UNL     1      45.931   6.227  12.834  0.00  0.00    +0.000 A 
ATOM     24  C   UNL     1      45.335   6.395  11.574  0.00  0.00    +0.000 A 
ATOM     25  N   UNL     1      44.745   5.398  10.864  0.00  0.00    +0.000 NA
ENDBRANCH  17  23
ENDBRANCH  14  17
ENDBRANCH   1  14
TORSDOF 4
ENDMDL
