MODEL 1
REMARK VINA RESULT:    -7.537      0.000      0.000
REMARK INTER + INTRA:         -10.289
REMARK INTER:                  -9.740
REMARK INTRA:                  -0.549
REMARK UNBOUND:                -0.549
REMARK  Name = 
REMARK  5 active torsions:
REMARK  status: ('A' for Active; 'I' for Inactive)
REMARK    1  A    between atoms: C_2  and  C_4
REMARK    2  A    between atoms: C_8  and  C_9
REMARK    3  A    between atoms: C_9  and  C_10
REMARK    4  A    between atoms: C_10  and  C_11
REMARK    5  A    between atoms: C_15  and  N_16
REMARK                            x       y       z     vdW  Elec       q    Type
REMARK                         _______ _______ _______ _____ _____    ______ ____
ROOT
ATOM      1  C   UNL     1      44.608   3.146  11.849  0.00  0.00    +0.000 C 
ENDROOT
BRANCH   1   2
ATOM      2  C   UNL     1      45.330   4.368  12.375  0.00  0.00    +0.000 A 
ATOM      3  C   UNL     1      45.046   5.639  11.877  0.00  0.00    +0.000 A 
ATOM      4  C   UNL     1      45.675   6.755  12.428  0.00  0.00    +0.000 A 
ATOM      5  C   UNL     1      46.571   6.613  13.497  0.00  0.00    +0.000 A 
ATOM      6  C   UNL     1      46.887   5.358  14.020  0.00  0.00    +0.000 A 
ATOM      7  C   UNL     1      46.300   4.257  13.383  0.00  0.00    +0.000 A 
BRANCH   6   8
ATOM      8  N   UNL     1      47.694   5.169  15.120  0.00  0.00    +0.000 N 
ATOM      9  C   UNL     1      47.489   4.035  16.043  0.00  0.00    +0.000 C 
ATOM     10  C   UNL     1      47.340   4.553  17.481  0.00  0.00    +0.000 C 
ATOM     11  O   UNL     1      48.453   5.372  17.867  0.00  0.00    +0.000 OA
ATOM     12  C   UNL     1      48.559   6.509  16.991  0.00  0.00    +0.000 C 
ATOM     13  C   UNL     1      48.765   6.084  15.529  0.00  0.00    +0.000 C 
ENDBRANCH   6   8
ENDBRANCH   1   2
BRANCH   1  14
ATOM     14  C   UNL     1      43.998   3.366  10.454  0.00  0.00    +0.000 C 
BRANCH  14  19
ATOM     15  C   UNL     1      46.413   2.086   7.828  0.00  0.00    +0.000 A 
ATOM     16  C   UNL     1      46.777   3.299   7.262  0.00  0.00    +0.000 A 
ATOM     17  N   UNL     1      46.288   4.498   7.666  0.00  0.00    +0.000 NA
ATOM     18  C   UNL     1      45.408   4.482   8.691  0.00  0.00    +0.000 A 
ATOM     19  C   UNL     1      44.997   3.322   9.339  0.00  0.00    +0.000 A 
ATOM     20  C   UNL     1      45.520   2.103   8.899  0.00  0.00    +0.000 A 
BRANCH  15  22
ATOM     21  N   UNL     1      47.752   0.938   6.157  0.00  0.00    +0.000 N 
ATOM     22  C   UNL     1      46.984   0.837   7.284  0.00  0.00    +0.000 C 
ATOM     23  O   UNL     1      46.808  -0.239   7.837  0.00  0.00    +0.000 OA
ATOM     24  H   UNL     1      48.223   0.091   5.862  0.00  0.00    +0.000 HD
ATOM     25  H   UNL     1      48.129   1.817   5.831  0.00  0.00    +0.000 HD
ENDBRANCH  15  22
ENDBRANCH  14  19
ENDBRANCH   1  14
TORSDOF 5
ENDMDL
MODEL 2
REMARK VINA RESULT:    -7.489      2.543      3.467
REMARK INTER + INTRA:         -10.227
REMARK INTER:                  -9.483
REMARK INTRA:                  -0.744
REMARK UNBOUND:                -0.549
REMARK  Name = 
REMARK  5 active torsions:
REMARK  status: ('A' for Active; 'I' for Inactive)
REMARK    1  A    between atoms: C_2  and  C_4
REMARK    2  A    between atoms: C_8  and  C_9
REMARK    3  A    between atoms: C_9  and  C_10
REMARK    4  A    between atoms: C_10  and  C_11
REMARK    5  A    between atoms: C_15  and  N_16
REMARK                            x       y       z     vdW  Elec       q    Type
REMARK                         _______ _______ _______ _____ _____    ______ ____
ROOT
ATOM      1  C   UNL     1      43.988   4.523  10.391  0.00  0.00    +0.000 C 
ENDROOT
BRANCH   1   2
ATOM      2  C   UNL     1      44.970   4.673  11.533  0.00  0.00    +0.000 A 
ATOM      3  C   UNL     1      45.362   3.571  12.291  0.00  0.00    +0.000 A 
ATOM      4  C   UNL     1      46.322   3.724  13.292  0.00  0.00    +0.000 A 
ATOM      5  C   UNL     1      46.915   4.974  13.525  0.00  0.00    +0.000 A 
ATOM      6  C   UNL     1      46.545   6.104  12.792  0.00  0.00    +0.000 A 
ATOM      7  C   UNL     1      45.518   5.924  11.857  0.00  0.00    +0.000 A 
BRANCH   6   8
ATOM      8  N   UNL     1      47.152   7.332  12.923  0.00  0.00    +0.000 N 
ATOM      9  C   UNL     1      46.378   8.546  13.250  0.00  0.00    +0.000 C 
ATOM     10  C   UNL     1      46.647   9.634  12.202  0.00  0.00    +0.000 C 
ATOM     11  O   UNL     1      48.050   9.906  12.067  0.00  0.00    +0.000 OA
ATOM     12  C   UNL     1      48.748   8.714  11.664  0.00  0.00    +0.000 C 
ATOM     13  C   UNL     1      48.579   7.581  12.686  0.00  0.00    +0.000 C 
ENDBRANCH   6   8
ENDBRANCH   1   2
BRANCH   1  14
ATOM     14  C   UNL     1      44.661   4.596   9.010  0.00  0.00    +0.000 C 
BRANCH  14  19
ATOM     15  C   UNL     1      46.860   2.065   7.241  0.00  0.00    +0.000 A 
ATOM     16  C   UNL     1      46.345   0.905   7.800  0.00  0.00    +0.000 A 
ATOM     17  N   UNL     1      45.344   0.888   8.716  0.00  0.00    +0.000 NA
ATOM     18  C   UNL     1      44.827   2.084   9.074  0.00  0.00    +0.000 A 
ATOM     19  C   UNL     1      45.258   3.299   8.554  0.00  0.00    +0.000 A 
ATOM     20  C   UNL     1      46.291   3.283   7.613  0.00  0.00    +0.000 A 
BRANCH  15  22
ATOM     21  N   UNL     1      49.014   2.845   6.431  0.00  0.00    +0.000 N 
ATOM     22  C   UNL     1      47.976   1.967   6.278  0.00  0.00    +0.000 C 
ATOM     23  O   UNL     1      47.991   1.114   5.403  0.00  0.00    +0.000 OA
ATOM     24  H   UNL     1      49.817   2.693   5.833  0.00  0.00    +0.000 HD
ATOM     25  H   UNL     1      49.159   3.375   7.279  0.00  0.00    +0.000 HD
ENDBRANCH  15  22
ENDBRANCH  14  19
ENDBRANCH   1  14
TORSDOF 5
ENDMDL
MODEL 3
REMARK VINA RESULT:    -7.137      1.736      2.124
REMARK INTER + INTRA:          -9.772
REMARK INTER:                  -9.223
REMARK INTRA:                  -0.549
REMARK UNBOUND:                -0.549
REMARK  Name = 
REMARK  5 active torsions:
REMARK  status: ('A' for Active; 'I' for Inactive)
REMARK    1  A    between atoms: C_2  and  C_4
REMARK    2  A    between atoms: C_8  and  C_9
REMARK    3  A    between atoms: C_9  and  C_10
REMARK    4  A    between atoms: C_10  and  C_11
REMARK    5  A    between atoms: C_15  and  N_16
REMARK                            x       y       z     vdW  Elec       q    Type
REMARK                         _______ _______ _______ _____ _____    ______ ____
ROOT
ATOM      1  C   UNL     1      44.596   3.704  11.780  0.00  0.00    +0.000 C 
ENDROOT
BRANCH   1   2
ATOM      2  C   UNL     1      44.833   5.199  11.796  0.00  0.00    +0.000 A 
ATOM      3  C   UNL     1      43.830   6.089  11.413  0.00  0.00    +0.000 A 
ATOM      4  C   UNL     1      44.051   7.463  11.505  0.00  0.00    +0.000 A 
ATOM      5  C   UNL     1      45.265   7.958  12.004  0.00  0.00    +0.000 A 
ATOM      6  C   UNL     1      46.297   7.100  12.391  0.00  0.00    +0.000 A 
ATOM      7  C   UNL     1      46.066   5.732  12.203  0.00  0.00    +0.000 A 
BRANCH   6   8
ATOM      8  N   UNL     1      47.474   7.530  12.964  0.00  0.00    +0.000 N 
ATOM      9  C   UNL     1      48.538   6.581  13.346  0.00  0.00    +0.000 C 
ATOM     10  C   UNL     1      48.906   6.777  14.823  0.00  0.00    +0.000 C 
ATOM     11  O   UNL     1      49.267   8.138  15.102  0.00  0.00    +0.000 OA
ATOM     12  C   UNL     1      48.168   9.015  14.795  0.00  0.00    +0.000 C 
ATOM     13  C   UNL     1      47.763   8.924  13.317  0.00  0.00    +0.000 C 
ENDBRANCH   6   8
ENDBRANCH   1   2
BRANCH   1  14
ATOM     14  C   UNL     1      44.022   3.204  10.443  0.00  0.00    +0.000 C 
BRANCH  14  19
ATOM     15  C   UNL     1      46.445   2.034   7.773  0.00  0.00    +0.000 A 
ATOM     16  C   UNL     1      46.769   3.265   7.223  0.00  0.00    +0.000 A 
ATOM     17  N   UNL     1      46.250   4.444   7.650  0.00  0.00    +0.000 NA
ATOM     18  C   UNL     1      45.382   4.387   8.683  0.00  0.00    +0.000 A 
ATOM     19  C   UNL     1      45.011   3.206   9.317  0.00  0.00    +0.000 A 
ATOM     20  C   UNL     1      45.563   2.009   8.853  0.00  0.00    +0.000 A 
BRANCH  15  22
ATOM     21  N   UNL     1      47.793   0.950   6.068  0.00  0.00    +0.000 N 
ATOM     22  C   UNL     1      47.045   0.810   7.204  0.00  0.00    +0.000 C 
ATOM     23  O   UNL     1      46.909  -0.278   7.744  0.00  0.00    +0.000 OA
ATOM     24  H   UNL     1      48.285   0.121   5.755  0.00  0.00    +0.000 HD
ATOM     25  H   UNL     1      48.139   1.843   5.750  0.00  0.00    +0.000 HD
ENDBRANCH  15  22
ENDBRANCH  14  19
ENDBRANCH   1  14
TORSDOF 5
ENDMDL
MODEL 4
REMARK VINA RESULT:    -6.844      3.743      5.154
REMARK INTER + INTRA:          -9.394
REMARK INTER:                  -8.825
REMARK INTRA:                  -0.569
REMARK UNBOUND:                -0.549
REMARK  Name = 
REMARK  5 active torsions:
REMARK  status: ('A' for Active; 'I' for Inactive)
REMARK    1  A    between atoms: C_2  and  C_4
REMARK    2  A    between atoms: C_8  and  C_9
REMARK    3  A    between atoms: C_9  and  C_10
REMARK    4  A    between atoms: C_10  and  C_11
REMARK    5  A    between atoms: C_15  and  N_16
REMARK                            x       y       z     vdW  Elec       q    Type
REMARK                         _______ _______ _______ _____ _____    ______ ____
ROOT
ATOM      1  C   UNL     1      44.729   4.935  10.908  0.00  0.00    +0.000 C 
ENDROOT
BRANCH   1   2
ATOM      2  C   UNL     1      45.223   6.170  11.631  0.00  0.00    +0.000 A 
ATOM      3  C   UNL     1      46.273   6.094  12.545  0.00  0.00    +0.000 A 
ATOM      4  C   UNL     1      46.755   7.258  13.144  0.00  0.00    +0.000 A 
ATOM      5  C   UNL     1      46.209   8.507  12.816  0.00  0.00    +0.000 A 
ATOM      6  C   UNL     1      45.152   8.625  11.910  0.00  0.00    +0.000 A 
ATOM      7  C   UNL     1      44.642   7.426  11.397  0.00  0.00    +0.000 A 
BRANCH   6   8
ATOM      8  N   UNL     1      44.636   9.831  11.490  0.00  0.00    +0.000 N 
ATOM      9  C   UNL     1      43.361   9.910  10.752  0.00  0.00    +0.000 C 
ATOM     10  C   UNL     1      43.566  10.669   9.434  0.00  0.00    +0.000 C 
ATOM     11  O   UNL     1      44.147  11.963   9.654  0.00  0.00    +0.000 OA
ATOM     12  C   UNL     1      45.427  11.829  10.297  0.00  0.00    +0.000 C 
ATOM     13  C   UNL     1      45.310  11.123  11.656  0.00  0.00    +0.000 C 
ENDBRANCH   6   8
ENDBRANCH   1   2
BRANCH   1  14
ATOM     14  C   UNL     1      44.961   4.999   9.389  0.00  0.00    +0.000 C 
BRANCH  14  19
ATOM     15  C   UNL     1      46.700   2.471   7.163  0.00  0.00    +0.000 A 
ATOM     16  C   UNL     1      46.242   1.307   7.762  0.00  0.00    +0.000 A 
ATOM     17  N   UNL     1      45.419   1.285   8.840  0.00  0.00    +0.000 NA
ATOM     18  C   UNL     1      45.026   2.482   9.329  0.00  0.00    +0.000 A 
ATOM     19  C   UNL     1      45.410   3.703   8.786  0.00  0.00    +0.000 A 
ATOM     20  C   UNL     1      46.259   3.690   7.675  0.00  0.00    +0.000 A 
BRANCH  15  22
ATOM     21  N   UNL     1      48.955   2.550   6.264  0.00  0.00    +0.000 N 
ATOM     22  C   UNL     1      47.622   2.376   6.013  0.00  0.00    +0.000 C 
ATOM     23  O   UNL     1      47.217   2.116   4.890  0.00  0.00    +0.000 OA
ATOM     24  H   UNL     1      49.581   2.374   5.487  0.00  0.00    +0.000 HD
ATOM     25  H   UNL     1      49.346   2.504   7.194  0.00  0.00    +0.000 HD
ENDBRANCH  15  22
ENDBRANCH  14  19
ENDBRANCH   1  14
TORSDOF 5
ENDMDL
MODEL 5
REMARK VINA RESULT:    -6.835      2.017      3.694
REMARK INTER + INTRA:          -9.382
REMARK INTER:                  -8.597
REMARK INTRA:                  -0.785
REMARK UNBOUND:                -0.549
REMARK  Name = 
REMARK  5 active torsions:
REMARK  status: ('A' for Active; 'I' for Inactive)
REMARK    1  A    between atoms: C_2  and  C_4
REMARK    2  A    between atoms: C_8  and  C_9
REMARK    3  A    between atoms: C_9  and  C_10
REMARK    4  A    between atoms: C_10  and  C_11
REMARK    5  A    between atoms: C_15  and  N_16
REMARK                            x       y       z     vdW  Elec       q    Type
REMARK                         _______ _______ _______ _____ _____    ______ ____
ROOT
ATOM      1  C   UNL     1      46.953   6.809  11.769  0.00  0.00    +0.000 C 
ENDROOT
BRANCH   1   2
ATOM      2  C   UNL     1      47.910   6.839  12.941  0.00  0.00    +0.000 A 
ATOM      3  C   UNL     1      49.001   7.706  12.955  0.00  0.00    +0.000 A 
ATOM      4  C   UNL     1      49.827   7.764  14.078  0.00  0.00    +0.000 A 
ATOM      5  C   UNL     1      49.553   6.975  15.205  0.00  0.00    +0.000 A 
ATOM      6  C   UNL     1      48.473   6.090  15.229  0.00  0.00    +0.000 A 
ATOM      7  C   UNL     1      47.721   6.000  14.051  0.00  0.00    +0.000 A 
BRANCH   6   8
ATOM      8  N   UNL     1      48.111   5.356  16.337  0.00  0.00    +0.000 N 
ATOM      9  C   UNL     1      48.558   5.732  17.692  0.00  0.00    +0.000 C 
ATOM     10  C   UNL     1      49.256   4.539  18.361  0.00  0.00    +0.000 C 
ATOM     11  O   UNL     1      48.419   3.374  18.370  0.00  0.00    +0.000 OA
ATOM     12  C   UNL     1      48.081   2.996  17.023  0.00  0.00    +0.000 C 
ATOM     13  C   UNL     1      47.328   4.116  16.290  0.00  0.00    +0.000 C 
ENDBRANCH   6   8
ENDBRANCH   1   2
BRANCH   1  14
ATOM     14  C   UNL     1      45.479   6.744  12.202  0.00  0.00    +0.000 C 
BRANCH  14  19
ATOM     15  C   UNL     1      44.349   3.547  10.506  0.00  0.00    +0.000 A 
ATOM     16  C   UNL     1      43.669   2.969  11.568  0.00  0.00    +0.000 A 
ATOM     17  N   UNL     1      43.560   3.539  12.795  0.00  0.00    +0.000 NA
ATOM     18  C   UNL     1      44.144   4.745  12.958  0.00  0.00    +0.000 A 
ATOM     19  C   UNL     1      44.829   5.417  11.951  0.00  0.00    +0.000 A 
ATOM     20  C   UNL     1      44.923   4.803  10.699  0.00  0.00    +0.000 A 
BRANCH  15  22
ATOM     21  N   UNL     1      44.339   3.559   8.077  0.00  0.00    +0.000 N 
ATOM     22  C   UNL     1      44.434   2.820   9.223  0.00  0.00    +0.000 C 
ATOM     23  O   UNL     1      44.616   1.612   9.185  0.00  0.00    +0.000 OA
ATOM     24  H   UNL     1      44.508   3.061   7.211  0.00  0.00    +0.000 HD
ATOM     25  H   UNL     1      44.451   4.563   8.065  0.00  0.00    +0.000 HD
ENDBRANCH  15  22
ENDBRANCH  14  19
ENDBRANCH   1  14
TORSDOF 5
ENDMDL
MODEL 6
REMARK VINA RESULT:    -6.764      2.820      7.546
REMARK INTER + INTRA:          -9.291
REMARK INTER:                  -8.315
REMARK INTRA:                  -0.976
REMARK UNBOUND:                -0.549
REMARK  Name = 
REMARK  5 active torsions:
REMARK  status: ('A' for Active; 'I' for Inactive)
REMARK    1  A    between atoms: C_2  and  C_4
REMARK    2  A    between atoms: C_8  and  C_9
REMARK    3  A    between atoms: C_9  and  C_10
REMARK    4  A    between atoms: C_10  and  C_11
REMARK    5  A    between atoms: C_15  and  N_16
REMARK                            x       y       z     vdW  Elec       q    Type
REMARK                         _______ _______ _______ _____ _____    ______ ____
ROOT
ATOM      1  C   UNL     1      48.732   6.858  13.037  0.00  0.00    +0.000 C 
ENDROOT
BRANCH   1   2
ATOM      2  C   UNL     1      47.315   7.171  12.604  0.00  0.00    +0.000 A 
ATOM      3  C   UNL     1      46.811   8.468  12.685  0.00  0.00    +0.000 A 
ATOM      4  C   UNL     1      45.527   8.742  12.214  0.00  0.00    +0.000 A 
ATOM      5  C   UNL     1      44.748   7.729  11.636  0.00  0.00    +0.000 A 
ATOM      6  C   UNL     1      45.214   6.416  11.542  0.00  0.00    +0.000 A 
ATOM      7  C   UNL     1      46.473   6.166  12.104  0.00  0.00    +0.000 A 
BRANCH   6   8
ATOM      8  N   UNL     1      44.527   5.404  10.911  0.00  0.00    +0.000 N 
ATOM      9  C   UNL     1      43.201   4.959  11.383  0.00  0.00    +0.000 C 
ATOM     10  C   UNL     1      43.217   3.445  11.635  0.00  0.00    +0.000 C 
ATOM     11  O   UNL     1      43.650   2.720  10.474  0.00  0.00    +0.000 OA
ATOM     12  C   UNL     1      44.980   3.127  10.104  0.00  0.00    +0.000 C 
ATOM     13  C   UNL     1      45.048   4.627   9.781  0.00  0.00    +0.000 C 
ENDBRANCH   6   8
ENDBRANCH   1   2
BRANCH   1  14
ATOM     14  C   UNL     1      49.124   7.555  14.350  0.00  0.00    +0.000 C 
BRANCH  14  19
ATOM     15  C   UNL     1      48.177   4.705  16.664  0.00  0.00    +0.000 A 
ATOM     16  C   UNL     1      48.191   5.392  17.868  0.00  0.00    +0.000 A 
ATOM     17  N   UNL     1      48.496   6.710  17.983  0.00  0.00    +0.000 NA
ATOM     18  C   UNL     1      48.782   7.369  16.839  0.00  0.00    +0.000 A 
ATOM     19  C   UNL     1      48.772   6.776  15.581  0.00  0.00    +0.000 A 
ATOM     20  C   UNL     1      48.454   5.417  15.498  0.00  0.00    +0.000 A 
BRANCH  15  22
ATOM     21  N   UNL     1      46.923   2.823  17.551  0.00  0.00    +0.000 N 
ATOM     22  C   UNL     1      47.865   3.261  16.661  0.00  0.00    +0.000 C 
ATOM     23  O   UNL     1      48.398   2.494  15.873  0.00  0.00    +0.000 OA
ATOM     24  H   UNL     1      46.644   1.853  17.461  0.00  0.00    +0.000 HD
ATOM     25  H   UNL     1      46.286   3.449  18.023  0.00  0.00    +0.000 HD
ENDBRANCH  15  22
ENDBRANCH  14  19
ENDBRANCH   1  14
TORSDOF 5
ENDMDL
MODEL 7
REMARK VINA RESULT:    -6.354      4.305      7.369
REMARK INTER + INTRA:          -8.760
REMARK INTER:                  -7.784
REMARK INTRA:                  -0.976
REMARK UNBOUND:                -0.549
REMARK  Name = 
REMARK  5 active torsions:
REMARK  status: ('A' for Active; 'I' for Inactive)
REMARK    1  A    between atoms: C_2  and  C_4
REMARK    2  A    between atoms: C_8  and  C_9
REMARK    3  A    between atoms: C_9  and  C_10
REMARK    4  A    between atoms: C_10  and  C_11
REMARK    5  A    between atoms: C_15  and  N_16
REMARK                            x       y       z     vdW  Elec       q    Type
REMARK                         _______ _______ _______ _____ _____    ______ ____
ROOT
ATOM      1  C   UNL     1      48.457   7.962  11.675  0.00  0.00    +0.000 C 
ENDROOT
BRANCH   1   2
ATOM      2  C   UNL     1      47.933   6.900  12.619  0.00  0.00    +0.000 A 
ATOM      3  C   UNL     1      48.527   6.687  13.861  0.00  0.00    +0.000 A 
ATOM      4  C   UNL     1      47.980   5.752  14.740  0.00  0.00    +0.000 A 
ATOM      5  C   UNL     1      46.821   5.042  14.394  0.00  0.00    +0.000 A 
ATOM      6  C   UNL     1      46.199   5.222  13.157  0.00  0.00    +0.000 A 
ATOM      7  C   UNL     1      46.828   6.106  12.271  0.00  0.00    +0.000 A 
BRANCH   6   8
ATOM      8  N   UNL     1      45.016   4.614  12.801  0.00  0.00    +0.000 N 
ATOM      9  C   UNL     1      44.991   3.272  12.188  0.00  0.00    +0.000 C 
ATOM     10  C   UNL     1      44.214   3.316  10.865  0.00  0.00    +0.000 C 
ATOM     11  O   UNL     1      42.896   3.856  11.042  0.00  0.00    +0.000 OA
ATOM     12  C   UNL     1      42.975   5.196  11.559  0.00  0.00    +0.000 C 
ATOM     13  C   UNL     1      43.694   5.242  12.915  0.00  0.00    +0.000 C 
ENDBRANCH   6   8
ENDBRANCH   1   2
BRANCH   1  14
ATOM     14  C   UNL     1      48.474   9.365  12.304  0.00  0.00    +0.000 C 
BRANCH  14  19
ATOM     15  C   UNL     1      45.046  10.716  11.413  0.00  0.00    +0.000 A 
ATOM     16  C   UNL     1      45.422  11.971  10.958  0.00  0.00    +0.000 A 
ATOM     17  N   UNL     1      46.705  12.412  10.930  0.00  0.00    +0.000 NA
ATOM     18  C   UNL     1      47.652  11.552  11.361  0.00  0.00    +0.000 A 
ATOM     19  C   UNL     1      47.381  10.265  11.814  0.00  0.00    +0.000 A 
ATOM     20  C   UNL     1      46.049   9.842  11.830  0.00  0.00    +0.000 A 
BRANCH  15  22
ATOM     21  N   UNL     1      43.272   9.127  10.937  0.00  0.00    +0.000 N 
ATOM     22  C   UNL     1      43.614  10.355  11.431  0.00  0.00    +0.000 C 
ATOM     23  O   UNL     1      42.772  11.106  11.901  0.00  0.00    +0.000 OA
ATOM     24  H   UNL     1      42.304   8.853  11.057  0.00  0.00    +0.000 HD
ATOM     25  H   UNL     1      43.948   8.391  10.789  0.00  0.00    +0.000 HD
ENDBRANCH  15  22
ENDBRANCH  14  19
ENDBRANCH   1  14
TORSDOF 5
ENDMDL
MODEL 8
REMARK VINA RESULT:    -6.318      2.262      3.795
REMARK INTER + INTRA:          -8.714
REMARK INTER:                  -7.989
REMARK INTRA:                  -0.725
REMARK UNBOUND:                -0.549
REMARK  Name = 
REMARK  5 active torsions:
REMARK  status: ('A' for Active; 'I' for Inactive)
REMARK    1  A    between atoms: C_2  and  C_4
REMARK    2  A    between atoms: C_8  and  C_9
REMARK    3  A    between atoms: C_9  and  C_10
REMARK    4  A    between atoms: C_10  and  C_11
REMARK    5  A    between atoms: C_15  and  N_16
REMARK                            x       y       z     vdW  Elec       q    Type
REMARK                         _______ _______ _______ _____ _____    ______ ____
ROOT
ATOM      1  C   UNL     1      46.525   6.931  11.769  0.00  0.00    +0.000 C 
ENDROOT
BRANCH   1   2
ATOM      2  C   UNL     1      47.886   7.243  12.353  0.00  0.00    +0.000 A 
ATOM      3  C   UNL     1      48.905   7.767  11.559  0.00  0.00    +0.000 A 
ATOM      4  C   UNL     1      50.127   8.111  12.137  0.00  0.00    +0.000 A 
ATOM      5  C   UNL     1      50.330   7.960  13.517  0.00  0.00    +0.000 A 
ATOM      6  C   UNL     1      49.337   7.433  14.346  0.00  0.00    +0.000 A 
ATOM      7  C   UNL     1      48.158   7.021  13.712  0.00  0.00    +0.000 A 
BRANCH   6   8
ATOM      8  N   UNL     1      49.454   7.341  15.715  0.00  0.00    +0.000 N 
ATOM      9  C   UNL     1      49.504   6.034  16.399  0.00  0.00    +0.000 C 
ATOM     10  C   UNL     1      48.419   5.971  17.483  0.00  0.00    +0.000 C 
ATOM     11  O   UNL     1      48.524   7.069  18.402  0.00  0.00    +0.000 OA
ATOM     12  C   UNL     1      48.383   8.317  17.700  0.00  0.00    +0.000 C 
ATOM     13  C   UNL     1      49.465   8.491  16.625  0.00  0.00    +0.000 C 
ENDBRANCH   6   8
ENDBRANCH   1   2
BRANCH   1  14
ATOM     14  C   UNL     1      45.560   6.315  12.796  0.00  0.00    +0.000 C 
BRANCH  14  19
ATOM     15  C   UNL     1      44.424   3.445  10.596  0.00  0.00    +0.000 A 
ATOM     16  C   UNL     1      43.635   2.770  11.514  0.00  0.00    +0.000 A 
ATOM     17  N   UNL     1      43.454   3.174  12.797  0.00  0.00    +0.000 NA
ATOM     18  C   UNL     1      44.079   4.313  13.169  0.00  0.00    +0.000 A 
ATOM     19  C   UNL     1      44.872   5.073  12.317  0.00  0.00    +0.000 A 
ATOM     20  C   UNL     1      45.038   4.629  11.002  0.00  0.00    +0.000 A 
BRANCH  15  22
ATOM     21  N   UNL     1      44.325   3.735   8.186  0.00  0.00    +0.000 N 
ATOM     22  C   UNL     1      44.577   2.894   9.234  0.00  0.00    +0.000 C 
ATOM     23  O   UNL     1      44.949   1.744   9.049  0.00  0.00    +0.000 OA
ATOM     24  H   UNL     1      44.540   3.374   7.264  0.00  0.00    +0.000 HD
ATOM     25  H   UNL     1      44.275   4.738   8.292  0.00  0.00    +0.000 HD
ENDBRANCH  15  22
ENDBRANCH  14  19
ENDBRANCH   1  14
TORSDOF 5
ENDMDL
MODEL 9
REMARK VINA RESULT:    -6.216      5.349      8.195
REMARK INTER + INTRA:          -8.582
REMARK INTER:                  -7.718
REMARK INTRA:                  -0.865
REMARK UNBOUND:                -0.549
REMARK  Name = 
REMARK  5 active torsions:
REMARK  status: ('A' for Active; 'I' for Inactive)
REMARK    1  A    between atoms: C_2  and  C_4
REMARK    2  A    between atoms: C_8  and  C_9
REMARK    3  A    between atoms: C_9  and  C_10
REMARK    4  A    between atoms: C_10  and  C_11
REMARK    5  A    between atoms: C_15  and  N_16
REMARK                            x       y       z     vdW  Elec       q    Type
REMARK                         _______ _______ _______ _____ _____    ______ ____
ROOT
ATOM      1  C   UNL     1      45.093  10.169  12.096  0.00  0.00    +0.000 C 
ENDROOT
BRANCH   1   2
ATOM      2  C   UNL     1      45.641   8.768  11.920  0.00  0.00    +0.000 A 
ATOM      3  C   UNL     1      46.974   8.478  12.207  0.00  0.00    +0.000 A 
ATOM      4  C   UNL     1      47.434   7.165  12.104  0.00  0.00    +0.000 A 
ATOM      5  C   UNL     1      46.561   6.130  11.741  0.00  0.00    +0.000 A 
ATOM      6  C   UNL     1      45.220   6.380  11.440  0.00  0.00    +0.000 A 
ATOM      7  C   UNL     1      44.820   7.722  11.471  0.00  0.00    +0.000 A 
BRANCH   6   8
ATOM      8  N   UNL     1      44.303   5.392  11.159  0.00  0.00    +0.000 N 
ATOM      9  C   UNL     1      43.231   5.041  12.111  0.00  0.00    +0.000 C 
ATOM     10  C   UNL     1      43.272   3.536  12.412  0.00  0.00    +0.000 C 
ATOM     11  O   UNL     1      43.209   2.754  11.211  0.00  0.00    +0.000 OA
ATOM     12  C   UNL     1      44.321   3.069  10.355  0.00  0.00    +0.000 C 
ATOM     13  C   UNL     1      44.331   4.553   9.956  0.00  0.00    +0.000 C 
ENDBRANCH   6   8
ENDBRANCH   1   2
BRANCH   1  14
ATOM     14  C   UNL     1      44.974  10.935  10.767  0.00  0.00    +0.000 C 
BRANCH  14  19
ATOM     15  C   UNL     1      41.186  11.071  10.733  0.00  0.00    +0.000 A 
ATOM     16  C   UNL     1      41.007  11.766   9.546  0.00  0.00    +0.000 A 
ATOM     17  N   UNL     1      42.027  12.202   8.764  0.00  0.00    +0.000 NA
ATOM     18  C   UNL     1      43.279  11.913   9.182  0.00  0.00    +0.000 A 
ATOM     19  C   UNL     1      43.562  11.202  10.343  0.00  0.00    +0.000 A 
ATOM     20  C   UNL     1      42.489  10.768  11.126  0.00  0.00    +0.000 A 
BRANCH  15  22
ATOM     21  N   UNL     1      39.299   9.585  11.093  0.00  0.00    +0.000 N 
ATOM     22  C   UNL     1      40.002  10.676  11.522  0.00  0.00    +0.000 C 
ATOM     23  O   UNL     1      39.682  11.277  12.538  0.00  0.00    +0.000 OA
ATOM     24  H   UNL     1      38.557   9.264  11.705  0.00  0.00    +0.000 HD
ATOM     25  H   UNL     1      39.673   8.921  10.430  0.00  0.00    +0.000 HD
ENDBRANCH  15  22
ENDBRANCH  14  19
ENDBRANCH   1  14
TORSDOF 5
ENDMDL
