MODEL 1
REMARK VINA RESULT:    -7.612      0.000      0.000
REMARK INTER + INTRA:         -11.101
REMARK INTER:                 -10.728
REMARK INTRA:                  -0.373
REMARK UNBOUND:                -0.373
REMARK  Name = 
REMARK  8 active torsions:
REMARK  status: ('A' for Active; 'I' for Inactive)
REMARK    1  A    between atoms: N_1  and  C_2
REMARK    2  A    between atoms: C_2  and  C_3
REMARK    3  A    between atoms: C_7  and  C_8
REMARK    4  A    between atoms: C_8  and  C_9
REMARK    5  A    between atoms: C_9  and  N_10
REMARK    6  A    between atoms: N_10  and  C_11
REMARK    7  A    between atoms: C_14  and  C_15
REMARK    8  A    between atoms: C_19  and  N_20
REMARK                            x       y       z     vdW  Elec       q    Type
REMARK                         _______ _______ _______ _____ _____    ______ ____
ROOT
ATOM      1  N   UNL     1      43.769   4.818   9.837  0.00  0.00    +0.000 N 
ATOM      2  H   UNL     1      43.558   5.639   9.279  0.00  0.00    +0.000 HD
ENDROOT
BRANCH   1   3
ATOM      3  C   UNL     1      44.690   4.027   9.096  0.00  0.00    +0.000 A 
ATOM      4  N   UNL     1      45.483   4.634   8.183  0.00  0.00    +0.000 NA
ATOM      5  C   UNL     1      46.363   3.877   7.488  0.00  0.00    +0.000 A 
ATOM      6  C   UNL     1      46.522   2.518   7.661  0.00  0.00    +0.000 A 
ATOM      7  C   UNL     1      45.717   1.896   8.622  0.00  0.00    +0.000 A 
ATOM      8  C   UNL     1      44.750   2.631   9.322  0.00  0.00    +0.000 A 
BRANCH   6   9
ATOM      9  C   UNL     1      47.489   1.703   6.887  0.00  0.00    +0.000 C 
ATOM     10  N   UNL     1      48.544   2.325   6.276  0.00  0.00    +0.000 N 
ATOM     11  O   UNL     1      47.349   0.492   6.773  0.00  0.00    +0.000 OA
ATOM     12  H   UNL     1      48.739   3.314   6.280  0.00  0.00    +0.000 HD
ATOM     13  H   UNL     1      49.163   1.732   5.738  0.00  0.00    +0.000 HD
ENDBRANCH   6   9
BRANCH   8  14
ATOM     14  N   UNL     1      44.045   1.996  10.360  0.00  0.00    +0.000 N 
ATOM     15  H   UNL     1      43.066   2.253  10.433  0.00  0.00    +0.000 HD
ATOM     16  H   UNL     1      44.541   1.983  11.244  0.00  0.00    +0.000 HD
ENDBRANCH   8  14
ENDBRANCH   1   3
BRANCH   1  17
ATOM     17  C   UNL     1      44.300   5.173  11.161  0.00  0.00    +0.000 C 
BRANCH  17  18
ATOM     18  C   UNL     1      45.073   6.497  11.135  0.00  0.00    +0.000 C 
BRANCH  18  23
ATOM     19  C   UNL     1      47.237   5.443  14.111  0.00  0.00    +0.000 A 
ATOM     20  C   UNL     1      48.381   6.221  13.893  0.00  0.00    +0.000 A 
ATOM     21  C   UNL     1      48.438   7.116  12.825  0.00  0.00    +0.000 A 
ATOM     22  C   UNL     1      47.357   7.233  11.950  0.00  0.00    +0.000 A 
ATOM     23  C   UNL     1      46.204   6.460  12.142  0.00  0.00    +0.000 A 
ATOM     24  C   UNL     1      46.152   5.575  13.230  0.00  0.00    +0.000 A 
BRANCH  19  25
ATOM     25  C   UNL     1      47.193   4.437  15.234  0.00  0.00    +0.000 C 
BRANCH  25  26
ATOM     26  N   UNL     1      47.591   3.106  14.791  0.00  0.00    +0.000 NA
ATOM     27  H   UNL     1      46.851   2.717  14.209  0.00  0.00    +0.000 HD
ATOM     28  H   UNL     1      47.664   2.500  15.607  0.00  0.00    +0.000 HD
ENDBRANCH  25  26
ENDBRANCH  19  25
ENDBRANCH  18  23
ENDBRANCH  17  18
ENDBRANCH   1  17
TORSDOF 8
ENDMDL
MODEL 2
REMARK VINA RESULT:    -7.511      2.756      6.655
REMARK INTER + INTRA:         -10.958
REMARK INTER:                 -10.409
REMARK INTRA:                  -0.549
REMARK UNBOUND:                -0.373
REMARK  Name = 
REMARK  8 active torsions:
REMARK  status: ('A' for Active; 'I' for Inactive)
REMARK    1  A    between atoms: N_1  and  C_2
REMARK    2  A    between atoms: C_2  and  C_3
REMARK    3  A    between atoms: C_7  and  C_8
REMARK    4  A    between atoms: C_8  and  C_9
REMARK    5  A    between atoms: C_9  and  N_10
REMARK    6  A    between atoms: N_10  and  C_11
REMARK    7  A    between atoms: C_14  and  C_15
REMARK    8  A    between atoms: C_19  and  N_20
REMARK                            x       y       z     vdW  Elec       q    Type
REMARK                         _______ _______ _______ _____ _____    ______ ____
ROOT
ATOM      1  N   UNL     1      44.885   3.001  12.263  0.00  0.00    +0.000 N 
ATOM      2  H   UNL     1      45.624   2.358  11.999  0.00  0.00    +0.000 HD
ENDROOT
BRANCH   1   3
ATOM      3  C   UNL     1      45.490   4.262  12.516  0.00  0.00    +0.000 A 
ATOM      4  N   UNL     1      45.000   5.357  11.890  0.00  0.00    +0.000 NA
ATOM      5  C   UNL     1      45.575   6.557  12.142  0.00  0.00    +0.000 A 
ATOM      6  C   UNL     1      46.624   6.744  13.016  0.00  0.00    +0.000 A 
ATOM      7  C   UNL     1      47.116   5.613  13.679  0.00  0.00    +0.000 A 
ATOM      8  C   UNL     1      46.590   4.343  13.403  0.00  0.00    +0.000 A 
BRANCH   6   9
ATOM      9  C   UNL     1      47.246   8.064  13.277  0.00  0.00    +0.000 C 
ATOM     10  N   UNL     1      47.052   8.661  14.495  0.00  0.00    +0.000 N 
ATOM     11  O   UNL     1      47.910   8.633  12.421  0.00  0.00    +0.000 OA
ATOM     12  H   UNL     1      46.503   8.298  15.258  0.00  0.00    +0.000 HD
ATOM     13  H   UNL     1      47.473   9.572  14.618  0.00  0.00    +0.000 HD
ENDBRANCH   6   9
BRANCH   8  14
ATOM     14  N   UNL     1      47.029   3.252  14.175  0.00  0.00    +0.000 N 
ATOM     15  H   UNL     1      46.310   2.575  14.406  0.00  0.00    +0.000 HD
ATOM     16  H   UNL     1      47.624   3.514  14.953  0.00  0.00    +0.000 HD
ENDBRANCH   8  14
ENDBRANCH   1   3
BRANCH   1  17
ATOM     17  C   UNL     1      43.842   3.095  11.231  0.00  0.00    +0.000 C 
BRANCH  17  18
ATOM     18  C   UNL     1      44.049   2.071  10.109  0.00  0.00    +0.000 C 
BRANCH  18  23
ATOM     19  C   UNL     1      46.782   2.115   7.428  0.00  0.00    +0.000 A 
ATOM     20  C   UNL     1      46.841   3.484   7.136  0.00  0.00    +0.000 A 
ATOM     21  C   UNL     1      46.045   4.393   7.831  0.00  0.00    +0.000 A 
ATOM     22  C   UNL     1      45.165   3.945   8.817  0.00  0.00    +0.000 A 
ATOM     23  C   UNL     1      45.080   2.580   9.122  0.00  0.00    +0.000 A 
ATOM     24  C   UNL     1      45.899   1.675   8.428  0.00  0.00    +0.000 A 
BRANCH  19  25
ATOM     25  C   UNL     1      47.603   1.124   6.643  0.00  0.00    +0.000 C 
BRANCH  25  26
ATOM     26  N   UNL     1      48.325   1.759   5.547  0.00  0.00    +0.000 NA
ATOM     27  H   UNL     1      49.280   1.407   5.533  0.00  0.00    +0.000 HD
ATOM     28  H   UNL     1      48.389   2.758   5.737  0.00  0.00    +0.000 HD
ENDBRANCH  25  26
ENDBRANCH  19  25
ENDBRANCH  18  23
ENDBRANCH  17  18
ENDBRANCH   1  17
TORSDOF 8
ENDMDL
MODEL 3
REMARK VINA RESULT:    -7.123      1.448      1.832
REMARK INTER + INTRA:         -10.411
REMARK INTER:                  -9.971
REMARK INTRA:                  -0.440
REMARK UNBOUND:                -0.373
REMARK  Name = 
REMARK  8 active torsions:
REMARK  status: ('A' for Active; 'I' for Inactive)
REMARK    1  A    between atoms: N_1  and  C_2
REMARK    2  A    between atoms: C_2  and  C_3
REMARK    3  A    between atoms: C_7  and  C_8
REMARK    4  A    between atoms: C_8  and  C_9
REMARK    5  A    between atoms: C_9  and  N_10
REMARK    6  A    between atoms: N_10  and  C_11
REMARK    7  A    between atoms: C_14  and  C_15
REMARK    8  A    between atoms: C_19  and  N_20
REMARK                            x       y       z     vdW  Elec       q    Type
REMARK                         _______ _______ _______ _____ _____    ______ ____
ROOT
ATOM      1  N   UNL     1      43.852   4.806   9.866  0.00  0.00    +0.000 N 
ATOM      2  H   UNL     1      43.497   5.544   9.267  0.00  0.00    +0.000 HD
ENDROOT
BRANCH   1   3
ATOM      3  C   UNL     1      44.768   4.039   9.095  0.00  0.00    +0.000 A 
ATOM      4  N   UNL     1      45.576   4.678   8.217  0.00  0.00    +0.000 NA
ATOM      5  C   UNL     1      46.452   3.942   7.493  0.00  0.00    +0.000 A 
ATOM      6  C   UNL     1      46.592   2.575   7.603  0.00  0.00    +0.000 A 
ATOM      7  C   UNL     1      45.771   1.919   8.528  0.00  0.00    +0.000 A 
ATOM      8  C   UNL     1      44.808   2.633   9.255  0.00  0.00    +0.000 A 
BRANCH   6   9
ATOM      9  C   UNL     1      47.554   1.784   6.799  0.00  0.00    +0.000 C 
ATOM     10  N   UNL     1      48.624   2.420   6.228  0.00  0.00    +0.000 N 
ATOM     11  O   UNL     1      47.398   0.583   6.624  0.00  0.00    +0.000 OA
ATOM     12  H   UNL     1      48.833   3.405   6.282  0.00  0.00    +0.000 HD
ATOM     13  H   UNL     1      49.239   1.845   5.667  0.00  0.00    +0.000 HD
ENDBRANCH   6   9
BRANCH   8  14
ATOM     14  N   UNL     1      44.087   1.959  10.257  0.00  0.00    +0.000 N 
ATOM     15  H   UNL     1      43.111   2.225  10.335  0.00  0.00    +0.000 HD
ATOM     16  H   UNL     1      44.576   1.898  11.143  0.00  0.00    +0.000 HD
ENDBRANCH   8  14
ENDBRANCH   1   3
BRANCH   1  17
ATOM     17  C   UNL     1      44.479   5.339  11.085  0.00  0.00    +0.000 C 
BRANCH  17  18
ATOM     18  C   UNL     1      43.983   6.751  11.417  0.00  0.00    +0.000 C 
BRANCH  18  23
ATOM     19  C   UNL     1      47.264   7.647  13.172  0.00  0.00    +0.000 A 
ATOM     20  C   UNL     1      47.286   9.036  12.995  0.00  0.00    +0.000 A 
ATOM     21  C   UNL     1      46.230   9.687  12.360  0.00  0.00    +0.000 A 
ATOM     22  C   UNL     1      45.143   8.956  11.878  0.00  0.00    +0.000 A 
ATOM     23  C   UNL     1      45.101   7.564  12.035  0.00  0.00    +0.000 A 
ATOM     24  C   UNL     1      46.162   6.921  12.691  0.00  0.00    +0.000 A 
BRANCH  19  25
ATOM     25  C   UNL     1      48.429   6.933  13.812  0.00  0.00    +0.000 C 
BRANCH  25  26
ATOM     26  N   UNL     1      49.456   6.583  12.838  0.00  0.00    +0.000 NA
ATOM     27  H   UNL     1      49.114   5.822  12.255  0.00  0.00    +0.000 HD
ATOM     28  H   UNL     1      50.267   6.221  13.338  0.00  0.00    +0.000 HD
ENDBRANCH  25  26
ENDBRANCH  19  25
ENDBRANCH  18  23
ENDBRANCH  17  18
ENDBRANCH   1  17
TORSDOF 8
ENDMDL
MODEL 4
REMARK VINA RESULT:    -7.060      1.841      2.962
REMARK INTER + INTRA:         -10.322
REMARK INTER:                  -9.831
REMARK INTRA:                  -0.491
REMARK UNBOUND:                -0.373
REMARK  Name = 
REMARK  8 active torsions:
REMARK  status: ('A' for Active; 'I' for Inactive)
REMARK    1  A    between atoms: N_1  and  C_2
REMARK    2  A    between atoms: C_2  and  C_3
REMARK    3  A    between atoms: C_7  and  C_8
REMARK    4  A    between atoms: C_8  and  C_9
REMARK    5  A    between atoms: C_9  and  N_10
REMARK    6  A    between atoms: N_10  and  C_11
REMARK    7  A    between atoms: C_14  and  C_15
REMARK    8  A    between atoms: C_19  and  N_20
REMARK                            x       y       z     vdW  Elec       q    Type
REMARK                         _______ _______ _______ _____ _____    ______ ____
ROOT
ATOM      1  N   UNL     1      44.123   2.443  10.585  0.00  0.00    +0.000 N 
ATOM      2  H   UNL     1      43.267   2.954  10.393  0.00  0.00    +0.000 HD
ENDROOT
BRANCH   1   3
ATOM      3  C   UNL     1      44.904   2.463   9.397  0.00  0.00    +0.000 A 
ATOM      4  N   UNL     1      45.657   1.380   9.095  0.00  0.00    +0.000 NA
ATOM      5  C   UNL     1      46.392   1.402   7.958  0.00  0.00    +0.000 A 
ATOM      6  C   UNL     1      46.412   2.456   7.069  0.00  0.00    +0.000 A 
ATOM      7  C   UNL     1      45.616   3.566   7.373  0.00  0.00    +0.000 A 
ATOM      8  C   UNL     1      44.886   3.610   8.569  0.00  0.00    +0.000 A 
BRANCH   6   9
ATOM      9  C   UNL     1      47.227   2.465   5.831  0.00  0.00    +0.000 C 
ATOM     10  N   UNL     1      48.592   2.499   5.933  0.00  0.00    +0.000 N 
ATOM     11  O   UNL     1      46.701   2.461   4.726  0.00  0.00    +0.000 OA
ATOM     12  H   UNL     1      49.127   2.534   6.786  0.00  0.00    +0.000 HD
ATOM     13  H   UNL     1      49.105   2.531   5.062  0.00  0.00    +0.000 HD
ENDBRANCH   6   9
BRANCH   8  14
ATOM     14  N   UNL     1      44.008   4.689   8.780  0.00  0.00    +0.000 N 
ATOM     15  H   UNL     1      43.914   4.982   9.747  0.00  0.00    +0.000 HD
ATOM     16  H   UNL     1      43.129   4.606   8.281  0.00  0.00    +0.000 HD
ENDBRANCH   8  14
ENDBRANCH   1   3
BRANCH   1  17
ATOM     17  C   UNL     1      44.856   3.007  11.728  0.00  0.00    +0.000 C 
BRANCH  17  18
ATOM     18  C   UNL     1      44.212   4.300  12.243  0.00  0.00    +0.000 C 
BRANCH  18  23
ATOM     19  C   UNL     1      46.010   7.673  12.455  0.00  0.00    +0.000 A 
ATOM     20  C   UNL     1      47.139   7.322  13.206  0.00  0.00    +0.000 A 
ATOM     21  C   UNL     1      47.347   6.001  13.600  0.00  0.00    +0.000 A 
ATOM     22  C   UNL     1      46.420   5.014  13.261  0.00  0.00    +0.000 A 
ATOM     23  C   UNL     1      45.279   5.340  12.517  0.00  0.00    +0.000 A 
ATOM     24  C   UNL     1      45.088   6.671  12.112  0.00  0.00    +0.000 A 
BRANCH  19  25
ATOM     25  C   UNL     1      45.755   9.109  12.073  0.00  0.00    +0.000 C 
BRANCH  25  26
ATOM     26  N   UNL     1      44.557   9.640  12.711  0.00  0.00    +0.000 NA
ATOM     27  H   UNL     1      43.756   9.076  12.431  0.00  0.00    +0.000 HD
ATOM     28  H   UNL     1      44.387  10.579  12.353  0.00  0.00    +0.000 HD
ENDBRANCH  25  26
ENDBRANCH  19  25
ENDBRANCH  18  23
ENDBRANCH  17  18
ENDBRANCH   1  17
TORSDOF 8
ENDMDL
MODEL 5
REMARK VINA RESULT:    -6.969      1.465      2.112
REMARK INTER + INTRA:         -10.194
REMARK INTER:                  -9.620
REMARK INTRA:                  -0.574
REMARK UNBOUND:                -0.373
REMARK  Name = 
REMARK  8 active torsions:
REMARK  status: ('A' for Active; 'I' for Inactive)
REMARK    1  A    between atoms: N_1  and  C_2
REMARK    2  A    between atoms: C_2  and  C_3
REMARK    3  A    between atoms: C_7  and  C_8
REMARK    4  A    between atoms: C_8  and  C_9
REMARK    5  A    between atoms: C_9  and  N_10
REMARK    6  A    between atoms: N_10  and  C_11
REMARK    7  A    between atoms: C_14  and  C_15
REMARK    8  A    between atoms: C_19  and  N_20
REMARK                            x       y       z     vdW  Elec       q    Type
REMARK                         _______ _______ _______ _____ _____    ______ ____
ROOT
ATOM      1  N   UNL     1      44.105   4.879   9.863  0.00  0.00    +0.000 N 
ATOM      2  H   UNL     1      43.590   5.496   9.244  0.00  0.00    +0.000 HD
ENDROOT
BRANCH   1   3
ATOM      3  C   UNL     1      44.953   4.076   9.051  0.00  0.00    +0.000 A 
ATOM      4  N   UNL     1      45.795   4.687   8.185  0.00  0.00    +0.000 NA
ATOM      5  C   UNL     1      46.606   3.917   7.422  0.00  0.00    +0.000 A 
ATOM      6  C   UNL     1      46.647   2.541   7.480  0.00  0.00    +0.000 A 
ATOM      7  C   UNL     1      45.791   1.912   8.393  0.00  0.00    +0.000 A 
ATOM      8  C   UNL     1      44.892   2.667   9.159  0.00  0.00    +0.000 A 
BRANCH   6   9
ATOM      9  C   UNL     1      47.538   1.712   6.633  0.00  0.00    +0.000 C 
ATOM     10  N   UNL     1      48.608   2.305   6.016  0.00  0.00    +0.000 N 
ATOM     11  O   UNL     1      47.324   0.519   6.465  0.00  0.00    +0.000 OA
ATOM     12  H   UNL     1      48.859   3.279   6.061  0.00  0.00    +0.000 HD
ATOM     13  H   UNL     1      49.172   1.706   5.428  0.00  0.00    +0.000 HD
ENDBRANCH   6   9
BRANCH   8  14
ATOM     14  N   UNL     1      44.136   2.010  10.147  0.00  0.00    +0.000 N 
ATOM     15  H   UNL     1      43.167   1.839   9.902  0.00  0.00    +0.000 HD
ATOM     16  H   UNL     1      44.273   2.380  11.081  0.00  0.00    +0.000 HD
ENDBRANCH   8  14
ENDBRANCH   1   3
BRANCH   1  17
ATOM     17  C   UNL     1      44.868   5.624  10.875  0.00  0.00    +0.000 C 
BRANCH  17  18
ATOM     18  C   UNL     1      45.031   4.828  12.175  0.00  0.00    +0.000 C 
BRANCH  18  23
ATOM     19  C   UNL     1      48.022   6.976  13.220  0.00  0.00    +0.000 A 
ATOM     20  C   UNL     1      48.317   6.423  14.473  0.00  0.00    +0.000 A 
ATOM     21  C   UNL     1      47.592   5.335  14.958  0.00  0.00    +0.000 A 
ATOM     22  C   UNL     1      46.550   4.794  14.203  0.00  0.00    +0.000 A 
ATOM     23  C   UNL     1      46.230   5.333  12.950  0.00  0.00    +0.000 A 
ATOM     24  C   UNL     1      46.978   6.418  12.465  0.00  0.00    +0.000 A 
BRANCH  19  25
ATOM     25  C   UNL     1      48.769   8.185  12.716  0.00  0.00    +0.000 C 
BRANCH  25  26
ATOM     26  N   UNL     1      49.539   7.890  11.514  0.00  0.00    +0.000 NA
ATOM     27  H   UNL     1      49.054   8.277  10.707  0.00  0.00    +0.000 HD
ATOM     28  H   UNL     1      49.558   6.879  11.381  0.00  0.00    +0.000 HD
ENDBRANCH  25  26
ENDBRANCH  19  25
ENDBRANCH  18  23
ENDBRANCH  17  18
ENDBRANCH   1  17
TORSDOF 8
ENDMDL
MODEL 6
REMARK VINA RESULT:    -6.876      2.824      6.482
REMARK INTER + INTRA:         -10.063
REMARK INTER:                  -9.609
REMARK INTRA:                  -0.454
REMARK UNBOUND:                -0.373
REMARK  Name = 
REMARK  8 active torsions:
REMARK  status: ('A' for Active; 'I' for Inactive)
REMARK    1  A    between atoms: N_1  and  C_2
REMARK    2  A    between atoms: C_2  and  C_3
REMARK    3  A    between atoms: C_7  and  C_8
REMARK    4  A    between atoms: C_8  and  C_9
REMARK    5  A    between atoms: C_9  and  N_10
REMARK    6  A    between atoms: N_10  and  C_11
REMARK    7  A    between atoms: C_14  and  C_15
REMARK    8  A    between atoms: C_19  and  N_20
REMARK                            x       y       z     vdW  Elec       q    Type
REMARK                         _______ _______ _______ _____ _____    ______ ____
ROOT
ATOM      1  N   UNL     1      43.384   3.886  12.346  0.00  0.00    +0.000 N 
ATOM      2  H   UNL     1      43.315   3.004  12.843  0.00  0.00    +0.000 HD
ENDROOT
BRANCH   1   3
ATOM      3  C   UNL     1      44.599   4.505  12.748  0.00  0.00    +0.000 A 
ATOM      4  N   UNL     1      45.601   3.727  13.221  0.00  0.00    +0.000 NA
ATOM      5  C   UNL     1      46.759   4.322  13.593  0.00  0.00    +0.000 A 
ATOM      6  C   UNL     1      46.997   5.676  13.506  0.00  0.00    +0.000 A 
ATOM      7  C   UNL     1      45.967   6.476  12.995  0.00  0.00    +0.000 A 
ATOM      8  C   UNL     1      44.731   5.911  12.654  0.00  0.00    +0.000 A 
BRANCH   6   9
ATOM      9  C   UNL     1      48.270   6.312  13.922  0.00  0.00    +0.000 C 
ATOM     10  N   UNL     1      48.946   7.095  13.026  0.00  0.00    +0.000 N 
ATOM     11  O   UNL     1      48.730   6.135  15.042  0.00  0.00    +0.000 OA
ATOM     12  H   UNL     1      48.676   7.284  12.073  0.00  0.00    +0.000 HD
ATOM     13  H   UNL     1      49.823   7.486  13.346  0.00  0.00    +0.000 HD
ENDBRANCH   6   9
BRANCH   8  14
ATOM     14  N   UNL     1      43.767   6.726  12.035  0.00  0.00    +0.000 N 
ATOM     15  H   UNL     1      43.226   6.273  11.307  0.00  0.00    +0.000 HD
ATOM     16  H   UNL     1      44.107   7.650  11.791  0.00  0.00    +0.000 HD
ENDBRANCH   8  14
ENDBRANCH   1   3
BRANCH   1  17
ATOM     17  C   UNL     1      43.322   3.704  10.888  0.00  0.00    +0.000 C 
BRANCH  17  18
ATOM     18  C   UNL     1      44.060   2.439  10.435  0.00  0.00    +0.000 C 
BRANCH  18  23
ATOM     19  C   UNL     1      46.591   2.045   7.591  0.00  0.00    +0.000 A 
ATOM     20  C   UNL     1      46.757   3.380   7.199  0.00  0.00    +0.000 A 
ATOM     21  C   UNL     1      46.099   4.405   7.877  0.00  0.00    +0.000 A 
ATOM     22  C   UNL     1      45.252   4.108   8.946  0.00  0.00    +0.000 A 
ATOM     23  C   UNL     1      45.063   2.781   9.352  0.00  0.00    +0.000 A 
ATOM     24  C   UNL     1      45.744   1.758   8.673  0.00  0.00    +0.000 A 
BRANCH  19  25
ATOM     25  C   UNL     1      47.260   0.930   6.827  0.00  0.00    +0.000 C 
BRANCH  25  26
ATOM     26  N   UNL     1      47.448   1.266   5.421  0.00  0.00    +0.000 NA
ATOM     27  H   UNL     1      48.388   0.997   5.139  0.00  0.00    +0.000 HD
ATOM     28  H   UNL     1      47.395   2.279   5.320  0.00  0.00    +0.000 HD
ENDBRANCH  25  26
ENDBRANCH  19  25
ENDBRANCH  18  23
ENDBRANCH  17  18
ENDBRANCH   1  17
TORSDOF 8
ENDMDL
MODEL 7
REMARK VINA RESULT:    -6.798      1.852      3.164
REMARK INTER + INTRA:          -9.952
REMARK INTER:                  -9.987
REMARK INTRA:                   0.034
REMARK UNBOUND:                -0.373
REMARK  Name = 
REMARK  8 active torsions:
REMARK  status: ('A' for Active; 'I' for Inactive)
REMARK    1  A    between atoms: N_1  and  C_2
REMARK    2  A    between atoms: C_2  and  C_3
REMARK    3  A    between atoms: C_7  and  C_8
REMARK    4  A    between atoms: C_8  and  C_9
REMARK    5  A    between atoms: C_9  and  N_10
REMARK    6  A    between atoms: N_10  and  C_11
REMARK    7  A    between atoms: C_14  and  C_15
REMARK    8  A    between atoms: C_19  and  N_20
REMARK                            x       y       z     vdW  Elec       q    Type
REMARK                         _______ _______ _______ _____ _____    ______ ____
ROOT
ATOM      1  N   UNL     1      43.840   4.948   9.900  0.00  0.00    +0.000 N 
ATOM      2  H   UNL     1      43.827   5.865   9.466  0.00  0.00    +0.000 HD
ENDROOT
BRANCH   1   3
ATOM      3  C   UNL     1      44.739   4.139   9.152  0.00  0.00    +0.000 A 
ATOM      4  N   UNL     1      45.571   4.735   8.267  0.00  0.00    +0.000 NA
ATOM      5  C   UNL     1      46.430   3.960   7.565  0.00  0.00    +0.000 A 
ATOM      6  C   UNL     1      46.529   2.592   7.704  0.00  0.00    +0.000 A 
ATOM      7  C   UNL     1      45.683   1.980   8.635  0.00  0.00    +0.000 A 
ATOM      8  C   UNL     1      44.737   2.736   9.341  0.00  0.00    +0.000 A 
BRANCH   6   9
ATOM      9  C   UNL     1      47.473   1.757   6.923  0.00  0.00    +0.000 C 
ATOM     10  N   UNL     1      48.590   2.341   6.386  0.00  0.00    +0.000 N 
ATOM     11  O   UNL     1      47.263   0.566   6.738  0.00  0.00    +0.000 OA
ATOM     12  H   UNL     1      48.846   3.314   6.450  0.00  0.00    +0.000 HD
ATOM     13  H   UNL     1      49.191   1.738   5.839  0.00  0.00    +0.000 HD
ENDBRANCH   6   9
BRANCH   8  14
ATOM     14  N   UNL     1      43.990   2.104  10.351  0.00  0.00    +0.000 N 
ATOM     15  H   UNL     1      43.044   2.452  10.465  0.00  0.00    +0.000 HD
ATOM     16  H   UNL     1      44.498   1.980  11.220  0.00  0.00    +0.000 HD
ENDBRANCH   8  14
ENDBRANCH   1   3
BRANCH   1  17
ATOM     17  C   UNL     1      44.221   5.014  11.319  0.00  0.00    +0.000 C 
BRANCH  17  18
ATOM     18  C   UNL     1      45.703   5.357  11.501  0.00  0.00    +0.000 C 
BRANCH  18  23
ATOM     19  C   UNL     1      44.924   9.105  11.523  0.00  0.00    +0.000 A 
ATOM     20  C   UNL     1      46.111   9.617  12.062  0.00  0.00    +0.000 A 
ATOM     21  C   UNL     1      47.174   8.770  12.370  0.00  0.00    +0.000 A 
ATOM     22  C   UNL     1      47.059   7.395  12.159  0.00  0.00    +0.000 A 
ATOM     23  C   UNL     1      45.880   6.857  11.628  0.00  0.00    +0.000 A 
ATOM     24  C   UNL     1      44.822   7.722  11.306  0.00  0.00    +0.000 A 
BRANCH  19  25
ATOM     25  C   UNL     1      43.753  10.012  11.237  0.00  0.00    +0.000 C 
BRANCH  25  26
ATOM     26  N   UNL     1      43.259   9.854   9.875  0.00  0.00    +0.000 NA
ATOM     27  H   UNL     1      42.250   9.726   9.903  0.00  0.00    +0.000 HD
ATOM     28  H   UNL     1      43.648   8.996   9.486  0.00  0.00    +0.000 HD
ENDBRANCH  25  26
ENDBRANCH  19  25
ENDBRANCH  18  23
ENDBRANCH  17  18
ENDBRANCH   1  17
TORSDOF 8
ENDMDL
MODEL 8
REMARK VINA RESULT:    -6.708      3.509      5.785
REMARK INTER + INTRA:          -9.826
REMARK INTER:                  -9.435
REMARK INTRA:                  -0.391
REMARK UNBOUND:                -0.373
REMARK  Name = 
REMARK  8 active torsions:
REMARK  status: ('A' for Active; 'I' for Inactive)
REMARK    1  A    between atoms: N_1  and  C_2
REMARK    2  A    between atoms: C_2  and  C_3
REMARK    3  A    between atoms: C_7  and  C_8
REMARK    4  A    between atoms: C_8  and  C_9
REMARK    5  A    between atoms: C_9  and  N_10
REMARK    6  A    between atoms: N_10  and  C_11
REMARK    7  A    between atoms: C_14  and  C_15
REMARK    8  A    between atoms: C_19  and  N_20
REMARK                            x       y       z     vdW  Elec       q    Type
REMARK                         _______ _______ _______ _____ _____    ______ ____
ROOT
ATOM      1  N   UNL     1      46.605   4.627  15.151  0.00  0.00    +0.000 N 
ATOM      2  H   UNL     1      47.057   5.505  15.384  0.00  0.00    +0.000 HD
ENDROOT
BRANCH   1   3
ATOM      3  C   UNL     1      46.228   4.693  13.782  0.00  0.00    +0.000 A 
ATOM      4  N   UNL     1      45.686   3.597  13.201  0.00  0.00    +0.000 NA
ATOM      5  C   UNL     1      45.321   3.670  11.900  0.00  0.00    +0.000 A 
ATOM      6  C   UNL     1      45.448   4.801  11.122  0.00  0.00    +0.000 A 
ATOM      7  C   UNL     1      45.989   5.939  11.730  0.00  0.00    +0.000 A 
ATOM      8  C   UNL     1      46.435   5.891  13.058  0.00  0.00    +0.000 A 
BRANCH   6   9
ATOM      9  C   UNL     1      45.048   4.862   9.696  0.00  0.00    +0.000 C 
ATOM     10  N   UNL     1      43.754   4.567   9.355  0.00  0.00    +0.000 N 
ATOM     11  O   UNL     1      45.854   5.152   8.822  0.00  0.00    +0.000 OA
ATOM     12  H   UNL     1      43.019   4.288   9.985  0.00  0.00    +0.000 HD
ATOM     13  H   UNL     1      43.534   4.596   8.368  0.00  0.00    +0.000 HD
ENDBRANCH   6   9
BRANCH   8  14
ATOM     14  N   UNL     1      46.861   7.085  13.667  0.00  0.00    +0.000 N 
ATOM     15  H   UNL     1      46.285   7.401  14.440  0.00  0.00    +0.000 HD
ATOM     16  H   UNL     1      47.114   7.814  13.009  0.00  0.00    +0.000 HD
ENDBRANCH   8  14
ENDBRANCH   1   3
BRANCH   1  17
ATOM     17  C   UNL     1      47.474   3.472  15.421  0.00  0.00    +0.000 C 
BRANCH  17  18
ATOM     18  C   UNL     1      47.689   3.252  16.922  0.00  0.00    +0.000 C 
BRANCH  18  23
ATOM     19  C   UNL     1      51.408   2.687  17.636  0.00  0.00    +0.000 A 
ATOM     20  C   UNL     1      51.858   4.009  17.744  0.00  0.00    +0.000 A 
ATOM     21  C   UNL     1      50.965   5.074  17.639  0.00  0.00    +0.000 A 
ATOM     22  C   UNL     1      49.610   4.833  17.407  0.00  0.00    +0.000 A 
ATOM     23  C   UNL     1      49.135   3.521  17.286  0.00  0.00    +0.000 A 
ATOM     24  C   UNL     1      50.041   2.455  17.411  0.00  0.00    +0.000 A 
BRANCH  19  25
ATOM     25  C   UNL     1      52.379   1.535  17.698  0.00  0.00    +0.000 C 
BRANCH  25  26
ATOM     26  N   UNL     1      51.725   0.290  18.082  0.00  0.00    +0.000 NA
ATOM     27  H   UNL     1      50.970   0.500  18.731  0.00  0.00    +0.000 HD
ATOM     28  H   UNL     1      52.394  -0.283  18.595  0.00  0.00    +0.000 HD
ENDBRANCH  25  26
ENDBRANCH  19  25
ENDBRANCH  18  23
ENDBRANCH  17  18
ENDBRANCH   1  17
TORSDOF 8
ENDMDL
MODEL 9
REMARK VINA RESULT:    -6.302      3.819      5.572
REMARK INTER + INTRA:          -9.254
REMARK INTER:                  -8.660
REMARK INTRA:                  -0.594
REMARK UNBOUND:                -0.373
REMARK  Name = 
REMARK  8 active torsions:
REMARK  status: ('A' for Active; 'I' for Inactive)
REMARK    1  A    between atoms: N_1  and  C_2
REMARK    2  A    between atoms: C_2  and  C_3
REMARK    3  A    between atoms: C_7  and  C_8
REMARK    4  A    between atoms: C_8  and  C_9
REMARK    5  A    between atoms: C_9  and  N_10
REMARK    6  A    between atoms: N_10  and  C_11
REMARK    7  A    between atoms: C_14  and  C_15
REMARK    8  A    between atoms: C_19  and  N_20
REMARK                            x       y       z     vdW  Elec       q    Type
REMARK                         _______ _______ _______ _____ _____    ______ ____
ROOT
ATOM      1  N   UNL     1      47.313   7.511  13.857  0.00  0.00    +0.000 N 
ATOM      2  H   UNL     1      47.390   8.237  13.152  0.00  0.00    +0.000 HD
ENDROOT
BRANCH   1   3
ATOM      3  C   UNL     1      46.433   6.517  13.350  0.00  0.00    +0.000 A 
ATOM      4  N   UNL     1      46.765   5.214  13.501  0.00  0.00    +0.000 NA
ATOM      5  C   UNL     1      45.918   4.272  13.024  0.00  0.00    +0.000 A 
ATOM      6  C   UNL     1      44.719   4.552  12.403  0.00  0.00    +0.000 A 
ATOM      7  C   UNL     1      44.367   5.899  12.267  0.00  0.00    +0.000 A 
ATOM      8  C   UNL     1      45.242   6.909  12.693  0.00  0.00    +0.000 A 
BRANCH   6   9
ATOM      9  C   UNL     1      43.805   3.507  11.881  0.00  0.00    +0.000 C 
ATOM     10  N   UNL     1      43.739   2.300  12.524  0.00  0.00    +0.000 N 
ATOM     11  O   UNL     1      43.126   3.700  10.882  0.00  0.00    +0.000 OA
ATOM     12  H   UNL     1      44.272   2.024  13.334  0.00  0.00    +0.000 HD
ATOM     13  H   UNL     1      43.122   1.610  12.117  0.00  0.00    +0.000 HD
ENDBRANCH   6   9
BRANCH   8  14
ATOM     14  N   UNL     1      44.801   8.243  12.647  0.00  0.00    +0.000 N 
ATOM     15  H   UNL     1      45.398   8.874  12.124  0.00  0.00    +0.000 HD
ATOM     16  H   UNL     1      44.494   8.604  13.543  0.00  0.00    +0.000 HD
ENDBRANCH   8  14
ENDBRANCH   1   3
BRANCH   1  17
ATOM     17  C   UNL     1      48.624   6.947  14.212  0.00  0.00    +0.000 C 
BRANCH  17  18
ATOM     18  C   UNL     1      49.058   7.347  15.627  0.00  0.00    +0.000 C 
BRANCH  18  23
ATOM     19  C   UNL     1      48.897   3.878  17.238  0.00  0.00    +0.000 A 
ATOM     20  C   UNL     1      50.215   3.739  17.695  0.00  0.00    +0.000 A 
ATOM     21  C   UNL     1      51.135   4.773  17.530  0.00  0.00    +0.000 A 
ATOM     22  C   UNL     1      50.756   5.955  16.892  0.00  0.00    +0.000 A 
ATOM     23  C   UNL     1      49.447   6.116  16.420  0.00  0.00    +0.000 A 
ATOM     24  C   UNL     1      48.524   5.074  16.606  0.00  0.00    +0.000 A 
BRANCH  19  25
ATOM     25  C   UNL     1      47.914   2.742  17.367  0.00  0.00    +0.000 C 
BRANCH  25  26
ATOM     26  N   UNL     1      46.567   3.216  17.663  0.00  0.00    +0.000 NA
ATOM     27  H   UNL     1      46.434   4.126  17.225  0.00  0.00    +0.000 HD
ATOM     28  H   UNL     1      46.489   3.365  18.668  0.00  0.00    +0.000 HD
ENDBRANCH  25  26
ENDBRANCH  19  25
ENDBRANCH  18  23
ENDBRANCH  17  18
ENDBRANCH   1  17
TORSDOF 8
ENDMDL
