MODEL 1
REMARK VINA RESULT:    -8.494      0.000      0.000
REMARK INTER + INTRA:         -12.305
REMARK INTER:                 -11.473
REMARK INTRA:                  -0.832
REMARK UNBOUND:                -0.832
REMARK  Name = 
REMARK  6 active torsions:
REMARK  status: ('A' for Active; 'I' for Inactive)
REMARK    1  A    between atoms: C_2  and  C_4
REMARK    2  A    between atoms: N_8  and  C_9
REMARK    3  A    between atoms: C_9  and  C_10
REMARK    4  A    between atoms: C_10  and  C_11
REMARK    5  A    between atoms: C_15  and  O_16
REMARK    6  A    between atoms: O_16  and  C_17
REMARK                            x       y       z     vdW  Elec       q    Type
REMARK                         _______ _______ _______ _____ _____    ______ ____
ROOT
ATOM      1  C   UNL     1      46.595   2.472   7.526  0.00  0.00    +0.000 A 
ATOM      2  C   UNL     1      45.780   1.785   8.418  0.00  0.00    +0.000 A 
ATOM      3  C   UNL     1      44.847   2.497   9.171  0.00  0.00    +0.000 A 
ATOM      4  C   UNL     1      44.759   3.881   9.041  0.00  0.00    +0.000 A 
ATOM      5  N   UNL     1      43.799   4.643   9.696  0.00  0.00    +0.000 N 
ATOM      6  N   UNL     1      45.569   4.561   8.207  0.00  0.00    +0.000 NA
ATOM      7  C   UNL     1      46.471   3.851   7.473  0.00  0.00    +0.000 A 
ATOM      8  H   UNL     1      44.053   5.620   9.559  0.00  0.00    +0.000 HD
ENDROOT
BRANCH   1  10
ATOM      9  N   UNL     1      48.740   2.440   6.393  0.00  0.00    +0.000 N 
ATOM     10  C   UNL     1      47.564   1.787   6.648  0.00  0.00    +0.000 C 
ATOM     11  O   UNL     1      47.347   0.668   6.200  0.00  0.00    +0.000 OA
ATOM     12  H   UNL     1      49.444   1.920   5.884  0.00  0.00    +0.000 HD
ATOM     13  H   UNL     1      49.050   3.231   6.938  0.00  0.00    +0.000 HD
ENDBRANCH   1  10
BRANCH   5  14
ATOM     14  C   UNL     1      43.416   4.256  11.047  0.00  0.00    +0.000 C 
BRANCH  14  15
ATOM     15  C   UNL     1      43.587   5.427  12.025  0.00  0.00    +0.000 C 
BRANCH  15  16
ATOM     16  C   UNL     1      45.041   5.601  12.399  0.00  0.00    +0.000 A 
ATOM     17  C   UNL     1      45.784   6.677  11.896  0.00  0.00    +0.000 A 
ATOM     18  C   UNL     1      47.107   6.870  12.297  0.00  0.00    +0.000 A 
ATOM     19  C   UNL     1      47.705   5.994  13.205  0.00  0.00    +0.000 A 
ATOM     20  C   UNL     1      46.977   4.918  13.708  0.00  0.00    +0.000 A 
ATOM     21  C   UNL     1      45.650   4.729  13.313  0.00  0.00    +0.000 A 
BRANCH  20  22
ATOM     22  O   UNL     1      47.447   4.018  14.632  0.00  0.00    +0.000 OA
BRANCH  22  23
ATOM     23  C   UNL     1      47.302   4.314  16.038  0.00  0.00    +0.000 C 
ATOM     24  C   UNL     1      48.437   5.128  16.704  0.00  0.00    +0.000 C 
ATOM     25  C   UNL     1      48.490   4.095  17.838  0.00  0.00    +0.000 C 
ATOM     26  C   UNL     1      47.678   3.133  16.965  0.00  0.00    +0.000 C 
ENDBRANCH  22  23
ENDBRANCH  20  22
ENDBRANCH  15  16
ENDBRANCH  14  15
ENDBRANCH   5  14
TORSDOF 6
ENDMDL
MODEL 2
REMARK VINA RESULT:    -7.221      3.309      8.312
REMARK INTER + INTRA:         -10.586
REMARK INTER:                  -9.931
REMARK INTRA:                  -0.655
REMARK UNBOUND:                -0.832
REMARK  Name = 
REMARK  6 active torsions:
REMARK  status: ('A' for Active; 'I' for Inactive)
REMARK    1  A    between atoms: C_2  and  C_4
REMARK    2  A    between atoms: N_8  and  C_9
REMARK    3  A    between atoms: C_9  and  C_10
REMARK    4  A    between atoms: C_10  and  C_11
REMARK    5  A    between atoms: C_15  and  O_16
REMARK    6  A    between atoms: O_16  and  C_17
REMARK                            x       y       z     vdW  Elec       q    Type
REMARK                         _______ _______ _______ _____ _____    ______ ____
ROOT
ATOM      1  C   UNL     1      48.421   4.634  17.057  0.00  0.00    +0.000 A 
ATOM      2  C   UNL     1      47.393   4.001  16.371  0.00  0.00    +0.000 A 
ATOM      3  C   UNL     1      46.998   4.500  15.130  0.00  0.00    +0.000 A 
ATOM      4  C   UNL     1      47.617   5.633  14.607  0.00  0.00    +0.000 A 
ATOM      5  N   UNL     1      47.333   6.135  13.343  0.00  0.00    +0.000 N 
ATOM      6  N   UNL     1      48.590   6.276  15.281  0.00  0.00    +0.000 NA
ATOM      7  C   UNL     1      48.969   5.773  16.488  0.00  0.00    +0.000 A 
ATOM      8  H   UNL     1      47.794   7.040  13.274  0.00  0.00    +0.000 HD
ENDROOT
BRANCH   1  10
ATOM      9  N   UNL     1      48.259   3.101  18.931  0.00  0.00    +0.000 N 
ATOM     10  C   UNL     1      48.941   4.133  18.346  0.00  0.00    +0.000 C 
ATOM     11  O   UNL     1      49.959   4.592  18.850  0.00  0.00    +0.000 OA
ATOM     12  H   UNL     1      48.683   2.689  19.754  0.00  0.00    +0.000 HD
ATOM     13  H   UNL     1      47.583   2.544  18.430  0.00  0.00    +0.000 HD
ENDBRANCH   1  10
BRANCH   5  14
ATOM     14  C   UNL     1      45.957   6.069  12.868  0.00  0.00    +0.000 C 
BRANCH  14  15
ATOM     15  C   UNL     1      45.884   6.319  11.355  0.00  0.00    +0.000 C 
BRANCH  15  16
ATOM     16  C   UNL     1      45.385   5.088  10.634  0.00  0.00    +0.000 A 
ATOM     17  C   UNL     1      44.581   4.151  11.293  0.00  0.00    +0.000 A 
ATOM     18  C   UNL     1      44.068   3.051  10.604  0.00  0.00    +0.000 A 
ATOM     19  C   UNL     1      44.352   2.872   9.248  0.00  0.00    +0.000 A 
ATOM     20  C   UNL     1      45.154   3.795   8.583  0.00  0.00    +0.000 A 
ATOM     21  C   UNL     1      45.661   4.901   9.271  0.00  0.00    +0.000 A 
BRANCH  20  22
ATOM     22  O   UNL     1      45.466   3.743   7.248  0.00  0.00    +0.000 OA
BRANCH  22  23
ATOM     23  C   UNL     1      46.782   3.302   6.850  0.00  0.00    +0.000 C 
ATOM     24  C   UNL     1      46.956   2.842   5.383  0.00  0.00    +0.000 C 
ATOM     25  C   UNL     1      47.652   1.569   5.881  0.00  0.00    +0.000 C 
ATOM     26  C   UNL     1      47.112   1.854   7.286  0.00  0.00    +0.000 C 
ENDBRANCH  22  23
ENDBRANCH  20  22
ENDBRANCH  15  16
ENDBRANCH  14  15
ENDBRANCH   5  14
TORSDOF 6
ENDMDL
MODEL 3
REMARK VINA RESULT:    -7.212      2.188      4.012
REMARK INTER + INTRA:         -10.574
REMARK INTER:                  -9.609
REMARK INTRA:                  -0.965
REMARK UNBOUND:                -0.832
REMARK  Name = 
REMARK  6 active torsions:
REMARK  status: ('A' for Active; 'I' for Inactive)
REMARK    1  A    between atoms: C_2  and  C_4
REMARK    2  A    between atoms: N_8  and  C_9
REMARK    3  A    between atoms: C_9  and  C_10
REMARK    4  A    between atoms: C_10  and  C_11
REMARK    5  A    between atoms: C_15  and  O_16
REMARK    6  A    between atoms: O_16  and  C_17
REMARK                            x       y       z     vdW  Elec       q    Type
REMARK                         _______ _______ _______ _____ _____    ______ ____
ROOT
ATOM      1  C   UNL     1      46.242   2.895   7.828  0.00  0.00    +0.000 A 
ATOM      2  C   UNL     1      46.014   4.170   8.330  0.00  0.00    +0.000 A 
ATOM      3  C   UNL     1      45.159   4.328   9.419  0.00  0.00    +0.000 A 
ATOM      4  C   UNL     1      44.525   3.218   9.973  0.00  0.00    +0.000 A 
ATOM      5  N   UNL     1      43.727   3.290  11.108  0.00  0.00    +0.000 N 
ATOM      6  N   UNL     1      44.709   1.982   9.471  0.00  0.00    +0.000 NA
ATOM      7  C   UNL     1      45.553   1.842   8.411  0.00  0.00    +0.000 A 
ATOM      8  H   UNL     1      43.266   2.387  11.203  0.00  0.00    +0.000 HD
ENDROOT
BRANCH   1  10
ATOM      9  N   UNL     1      46.982   3.334   5.560  0.00  0.00    +0.000 N 
ATOM     10  C   UNL     1      47.180   2.633   6.718  0.00  0.00    +0.000 C 
ATOM     11  O   UNL     1      48.119   1.856   6.840  0.00  0.00    +0.000 OA
ATOM     12  H   UNL     1      47.692   3.235   4.845  0.00  0.00    +0.000 HD
ATOM     13  H   UNL     1      46.388   4.149   5.514  0.00  0.00    +0.000 HD
ENDBRANCH   1  10
BRANCH   5  14
ATOM     14  C   UNL     1      42.889   4.469  11.288  0.00  0.00    +0.000 C 
BRANCH  14  15
ATOM     15  C   UNL     1      43.062   5.057  12.695  0.00  0.00    +0.000 C 
BRANCH  15  16
ATOM     16  C   UNL     1      44.493   5.490  12.920  0.00  0.00    +0.000 A 
ATOM     17  C   UNL     1      45.371   4.694  13.665  0.00  0.00    +0.000 A 
ATOM     18  C   UNL     1      46.708   5.066  13.813  0.00  0.00    +0.000 A 
ATOM     19  C   UNL     1      47.186   6.236  13.220  0.00  0.00    +0.000 A 
ATOM     20  C   UNL     1      46.320   7.038  12.480  0.00  0.00    +0.000 A 
ATOM     21  C   UNL     1      44.983   6.662  12.325  0.00  0.00    +0.000 A 
BRANCH  20  22
ATOM     22  O   UNL     1      46.685   8.186  11.822  0.00  0.00    +0.000 OA
BRANCH  22  23
ATOM     23  C   UNL     1      46.381   9.465  12.419  0.00  0.00    +0.000 C 
ATOM     24  C   UNL     1      45.188  10.251  11.825  0.00  0.00    +0.000 C 
ATOM     25  C   UNL     1      46.074  11.501  11.743  0.00  0.00    +0.000 C 
ATOM     26  C   UNL     1      47.305  10.611  11.941  0.00  0.00    +0.000 C 
ENDBRANCH  22  23
ENDBRANCH  20  22
ENDBRANCH  15  16
ENDBRANCH  14  15
ENDBRANCH   5  14
TORSDOF 6
ENDMDL
MODEL 4
REMARK VINA RESULT:    -6.807      2.409      3.095
REMARK INTER + INTRA:         -10.027
REMARK INTER:                  -9.636
REMARK INTRA:                  -0.390
REMARK UNBOUND:                -0.832
REMARK  Name = 
REMARK  6 active torsions:
REMARK  status: ('A' for Active; 'I' for Inactive)
REMARK    1  A    between atoms: C_2  and  C_4
REMARK    2  A    between atoms: N_8  and  C_9
REMARK    3  A    between atoms: C_9  and  C_10
REMARK    4  A    between atoms: C_10  and  C_11
REMARK    5  A    between atoms: C_15  and  O_16
REMARK    6  A    between atoms: O_16  and  C_17
REMARK                            x       y       z     vdW  Elec       q    Type
REMARK                         _______ _______ _______ _____ _____    ______ ____
ROOT
ATOM      1  C   UNL     1      46.557   2.776   7.285  0.00  0.00    +0.000 A 
ATOM      2  C   UNL     1      46.016   1.741   8.038  0.00  0.00    +0.000 A 
ATOM      3  C   UNL     1      45.116   2.042   9.059  0.00  0.00    +0.000 A 
ATOM      4  C   UNL     1      44.790   3.369   9.329  0.00  0.00    +0.000 A 
ATOM      5  N   UNL     1      43.840   3.738  10.273  0.00  0.00    +0.000 N 
ATOM      6  N   UNL     1      45.337   4.383   8.631  0.00  0.00    +0.000 NA
ATOM      7  C   UNL     1      46.209   4.072   7.632  0.00  0.00    +0.000 A 
ATOM      8  H   UNL     1      43.910   4.747  10.385  0.00  0.00    +0.000 HD
ENDROOT
BRANCH   1  10
ATOM      9  N   UNL     1      48.810   2.541   6.416  0.00  0.00    +0.000 N 
ATOM     10  C   UNL     1      47.468   2.539   6.148  0.00  0.00    +0.000 C 
ATOM     11  O   UNL     1      47.044   2.310   5.022  0.00  0.00    +0.000 OA
ATOM     12  H   UNL     1      49.423   2.268   5.658  0.00  0.00    +0.000 HD
ATOM     13  H   UNL     1      49.176   2.474   7.355  0.00  0.00    +0.000 HD
ENDBRANCH   1  10
BRANCH   5  14
ATOM     14  C   UNL     1      43.746   2.954  11.499  0.00  0.00    +0.000 C 
BRANCH  14  15
ATOM     15  C   UNL     1      44.070   3.814  12.728  0.00  0.00    +0.000 C 
BRANCH  15  16
ATOM     16  C   UNL     1      44.718   5.115  12.312  0.00  0.00    +0.000 A 
ATOM     17  C   UNL     1      43.938   6.190  11.867  0.00  0.00    +0.000 A 
ATOM     18  C   UNL     1      44.536   7.411  11.548  0.00  0.00    +0.000 A 
ATOM     19  C   UNL     1      45.917   7.574  11.671  0.00  0.00    +0.000 A 
ATOM     20  C   UNL     1      46.703   6.511  12.109  0.00  0.00    +0.000 A 
ATOM     21  C   UNL     1      46.103   5.291  12.436  0.00  0.00    +0.000 A 
BRANCH  20  22
ATOM     22  O   UNL     1      48.060   6.568  12.304  0.00  0.00    +0.000 OA
BRANCH  22  23
ATOM     23  C   UNL     1      48.773   7.767  11.936  0.00  0.00    +0.000 C 
ATOM     24  C   UNL     1      50.251   7.602  11.508  0.00  0.00    +0.000 C 
ATOM     25  C   UNL     1      50.639   8.733  12.469  0.00  0.00    +0.000 C 
ATOM     26  C   UNL     1      49.272   8.592  13.147  0.00  0.00    +0.000 C 
ENDBRANCH  22  23
ENDBRANCH  20  22
ENDBRANCH  15  16
ENDBRANCH  14  15
ENDBRANCH   5  14
TORSDOF 6
ENDMDL
MODEL 5
REMARK VINA RESULT:    -6.797      4.282      8.379
REMARK INTER + INTRA:         -10.013
REMARK INTER:                  -9.542
REMARK INTRA:                  -0.472
REMARK UNBOUND:                -0.832
REMARK  Name = 
REMARK  6 active torsions:
REMARK  status: ('A' for Active; 'I' for Inactive)
REMARK    1  A    between atoms: C_2  and  C_4
REMARK    2  A    between atoms: N_8  and  C_9
REMARK    3  A    between atoms: C_9  and  C_10
REMARK    4  A    between atoms: C_10  and  C_11
REMARK    5  A    between atoms: C_15  and  O_16
REMARK    6  A    between atoms: O_16  and  C_17
REMARK                            x       y       z     vdW  Elec       q    Type
REMARK                         _______ _______ _______ _____ _____    ______ ____
ROOT
ATOM      1  C   UNL     1      51.083   2.929  17.579  0.00  0.00    +0.000 A 
ATOM      2  C   UNL     1      50.426   4.151  17.658  0.00  0.00    +0.000 A 
ATOM      3  C   UNL     1      49.163   4.281  17.081  0.00  0.00    +0.000 A 
ATOM      4  C   UNL     1      48.589   3.202  16.414  0.00  0.00    +0.000 A 
ATOM      5  N   UNL     1      47.302   3.234  15.890  0.00  0.00    +0.000 N 
ATOM      6  N   UNL     1      49.232   2.024  16.300  0.00  0.00    +0.000 NA
ATOM      7  C   UNL     1      50.461   1.910  16.875  0.00  0.00    +0.000 A 
ATOM      8  H   UNL     1      47.191   2.393  15.327  0.00  0.00    +0.000 HD
ENDROOT
BRANCH   1  10
ATOM      9  N   UNL     1      52.761   1.384  18.406  0.00  0.00    +0.000 N 
ATOM     10  C   UNL     1      52.393   2.689  18.216  0.00  0.00    +0.000 C 
ATOM     11  O   UNL     1      53.136   3.612  18.525  0.00  0.00    +0.000 OA
ATOM     12  H   UNL     1      53.704   1.225  18.738  0.00  0.00    +0.000 HD
ATOM     13  H   UNL     1      52.297   0.617  17.942  0.00  0.00    +0.000 HD
ENDBRANCH   1  10
BRANCH   5  14
ATOM     14  C   UNL     1      46.831   4.479  15.297  0.00  0.00    +0.000 C 
BRANCH  14  15
ATOM     15  C   UNL     1      47.056   4.485  13.778  0.00  0.00    +0.000 C 
BRANCH  15  16
ATOM     16  C   UNL     1      45.736   4.423  13.044  0.00  0.00    +0.000 A 
ATOM     17  C   UNL     1      44.753   5.396  13.259  0.00  0.00    +0.000 A 
ATOM     18  C   UNL     1      43.563   5.372  12.529  0.00  0.00    +0.000 A 
ATOM     19  C   UNL     1      43.340   4.376  11.575  0.00  0.00    +0.000 A 
ATOM     20  C   UNL     1      44.309   3.401  11.356  0.00  0.00    +0.000 A 
ATOM     21  C   UNL     1      45.504   3.430  12.081  0.00  0.00    +0.000 A 
BRANCH  20  22
ATOM     22  O   UNL     1      44.216   2.401  10.421  0.00  0.00    +0.000 OA
BRANCH  22  23
ATOM     23  C   UNL     1      44.438   2.717   9.030  0.00  0.00    +0.000 C 
ATOM     24  C   UNL     1      45.740   2.182   8.387  0.00  0.00    +0.000 C 
ATOM     25  C   UNL     1      46.022   3.583   7.830  0.00  0.00    +0.000 C 
ATOM     26  C   UNL     1      44.975   4.149   8.794  0.00  0.00    +0.000 C 
ENDBRANCH  22  23
ENDBRANCH  20  22
ENDBRANCH  15  16
ENDBRANCH  14  15
ENDBRANCH   5  14
TORSDOF 6
ENDMDL
MODEL 6
REMARK VINA RESULT:    -6.697      3.572      8.354
REMARK INTER + INTRA:          -9.879
REMARK INTER:                  -9.383
REMARK INTRA:                  -0.496
REMARK UNBOUND:                -0.832
REMARK  Name = 
REMARK  6 active torsions:
REMARK  status: ('A' for Active; 'I' for Inactive)
REMARK    1  A    between atoms: C_2  and  C_4
REMARK    2  A    between atoms: N_8  and  C_9
REMARK    3  A    between atoms: C_9  and  C_10
REMARK    4  A    between atoms: C_10  and  C_11
REMARK    5  A    between atoms: C_15  and  O_16
REMARK    6  A    between atoms: O_16  and  C_17
REMARK                            x       y       z     vdW  Elec       q    Type
REMARK                         _______ _______ _______ _____ _____    ______ ____
ROOT
ATOM      1  C   UNL     1      48.629   4.567  18.023  0.00  0.00    +0.000 A 
ATOM      2  C   UNL     1      49.031   5.657  17.262  0.00  0.00    +0.000 A 
ATOM      3  C   UNL     1      48.422   5.887  16.030  0.00  0.00    +0.000 A 
ATOM      4  C   UNL     1      47.442   5.013  15.565  0.00  0.00    +0.000 A 
ATOM      5  N   UNL     1      46.735   5.226  14.388  0.00  0.00    +0.000 N 
ATOM      6  N   UNL     1      47.069   3.932  16.278  0.00  0.00    +0.000 NA
ATOM      7  C   UNL     1      47.669   3.726  17.483  0.00  0.00    +0.000 A 
ATOM      8  H   UNL     1      46.206   4.375  14.203  0.00  0.00    +0.000 HD
ENDROOT
BRANCH   1  10
ATOM      9  N   UNL     1      48.448   3.461  20.175  0.00  0.00    +0.000 N 
ATOM     10  C   UNL     1      49.178   4.289  19.366  0.00  0.00    +0.000 C 
ATOM     11  O   UNL     1      50.256   4.743  19.726  0.00  0.00    +0.000 OA
ATOM     12  H   UNL     1      48.882   3.185  21.047  0.00  0.00    +0.000 HD
ATOM     13  H   UNL     1      47.701   2.879  19.824  0.00  0.00    +0.000 HD
ENDBRANCH   1  10
BRANCH   5  14
ATOM     14  C   UNL     1      47.442   5.810  13.255  0.00  0.00    +0.000 C 
BRANCH  14  15
ATOM     15  C   UNL     1      46.481   6.596  12.353  0.00  0.00    +0.000 C 
BRANCH  15  16
ATOM     16  C   UNL     1      45.322   5.725  11.921  0.00  0.00    +0.000 A 
ATOM     17  C   UNL     1      44.002   6.159  12.089  0.00  0.00    +0.000 A 
ATOM     18  C   UNL     1      42.939   5.381  11.628  0.00  0.00    +0.000 A 
ATOM     19  C   UNL     1      43.180   4.160  10.994  0.00  0.00    +0.000 A 
ATOM     20  C   UNL     1      44.490   3.716  10.826  0.00  0.00    +0.000 A 
ATOM     21  C   UNL     1      45.555   4.500  11.281  0.00  0.00    +0.000 A 
BRANCH  20  22
ATOM     22  O   UNL     1      44.848   2.556  10.186  0.00  0.00    +0.000 OA
BRANCH  22  23
ATOM     23  C   UNL     1      44.895   2.536   8.743  0.00  0.00    +0.000 C 
ATOM     24  C   UNL     1      46.125   1.860   8.090  0.00  0.00    +0.000 C 
ATOM     25  C   UNL     1      46.304   3.091   7.192  0.00  0.00    +0.000 C 
ATOM     26  C   UNL     1      45.364   3.871   8.116  0.00  0.00    +0.000 C 
ENDBRANCH  22  23
ENDBRANCH  20  22
ENDBRANCH  15  16
ENDBRANCH  14  15
ENDBRANCH   5  14
TORSDOF 6
ENDMDL
MODEL 7
REMARK VINA RESULT:    -6.336      3.419      7.160
REMARK INTER + INTRA:          -9.390
REMARK INTER:                  -8.465
REMARK INTRA:                  -0.925
REMARK UNBOUND:                -0.832
REMARK  Name = 
REMARK  6 active torsions:
REMARK  status: ('A' for Active; 'I' for Inactive)
REMARK    1  A    between atoms: C_2  and  C_4
REMARK    2  A    between atoms: N_8  and  C_9
REMARK    3  A    between atoms: C_9  and  C_10
REMARK    4  A    between atoms: C_10  and  C_11
REMARK    5  A    between atoms: C_15  and  O_16
REMARK    6  A    between atoms: O_16  and  C_17
REMARK                            x       y       z     vdW  Elec       q    Type
REMARK                         _______ _______ _______ _____ _____    ______ ____
ROOT
ATOM      1  C   UNL     1      44.569   9.421  11.391  0.00  0.00    +0.000 A 
ATOM      2  C   UNL     1      44.473   8.063  11.114  0.00  0.00    +0.000 A 
ATOM      3  C   UNL     1      45.238   7.163  11.855  0.00  0.00    +0.000 A 
ATOM      4  C   UNL     1      46.105   7.633  12.839  0.00  0.00    +0.000 A 
ATOM      5  N   UNL     1      46.834   6.792  13.671  0.00  0.00    +0.000 N 
ATOM      6  N   UNL     1      46.234   8.950  13.091  0.00  0.00    +0.000 NA
ATOM      7  C   UNL     1      45.474   9.816  12.364  0.00  0.00    +0.000 A 
ATOM      8  H   UNL     1      47.494   7.377  14.178  0.00  0.00    +0.000 HD
ENDROOT
BRANCH   1  10
ATOM      9  N   UNL     1      43.553  10.259   9.353  0.00  0.00    +0.000 N 
ATOM     10  C   UNL     1      43.748  10.433  10.697  0.00  0.00    +0.000 C 
ATOM     11  O   UNL     1      43.230  11.364  11.300  0.00  0.00    +0.000 OA
ATOM     12  H   UNL     1      42.900  10.890   8.906  0.00  0.00    +0.000 HD
ATOM     13  H   UNL     1      43.749   9.386   8.885  0.00  0.00    +0.000 HD
ENDBRANCH   1  10
BRANCH   5  14
ATOM     14  C   UNL     1      47.361   5.555  13.108  0.00  0.00    +0.000 C 
BRANCH  14  15
ATOM     15  C   UNL     1      46.633   4.334  13.685  0.00  0.00    +0.000 C 
BRANCH  15  16
ATOM     16  C   UNL     1      45.383   4.033  12.891  0.00  0.00    +0.000 A 
ATOM     17  C   UNL     1      44.128   4.453  13.349  0.00  0.00    +0.000 A 
ATOM     18  C   UNL     1      42.985   4.231  12.578  0.00  0.00    +0.000 A 
ATOM     19  C   UNL     1      43.080   3.588  11.342  0.00  0.00    +0.000 A 
ATOM     20  C   UNL     1      44.322   3.162  10.879  0.00  0.00    +0.000 A 
ATOM     21  C   UNL     1      45.468   3.391  11.647  0.00  0.00    +0.000 A 
BRANCH  20  22
ATOM     22  O   UNL     1      44.541   2.557   9.667  0.00  0.00    +0.000 OA
BRANCH  22  23
ATOM     23  C   UNL     1      45.805   2.758   8.999  0.00  0.00    +0.000 C 
ATOM     24  C   UNL     1      45.789   3.615   7.711  0.00  0.00    +0.000 C 
ATOM     25  C   UNL     1      46.597   2.525   6.995  0.00  0.00    +0.000 C 
ATOM     26  C   UNL     1      46.249   1.557   8.130  0.00  0.00    +0.000 C 
ENDBRANCH  22  23
ENDBRANCH  20  22
ENDBRANCH  15  16
ENDBRANCH  14  15
ENDBRANCH   5  14
TORSDOF 6
ENDMDL
MODEL 8
REMARK VINA RESULT:    -6.329      3.519      7.436
REMARK INTER + INTRA:          -9.380
REMARK INTER:                  -8.979
REMARK INTRA:                  -0.401
REMARK UNBOUND:                -0.832
REMARK  Name = 
REMARK  6 active torsions:
REMARK  status: ('A' for Active; 'I' for Inactive)
REMARK    1  A    between atoms: C_2  and  C_4
REMARK    2  A    between atoms: N_8  and  C_9
REMARK    3  A    between atoms: C_9  and  C_10
REMARK    4  A    between atoms: C_10  and  C_11
REMARK    5  A    between atoms: C_15  and  O_16
REMARK    6  A    between atoms: O_16  and  C_17
REMARK                            x       y       z     vdW  Elec       q    Type
REMARK                         _______ _______ _______ _____ _____    ______ ____
ROOT
ATOM      1  C   UNL     1      49.241   8.327  12.395  0.00  0.00    +0.000 A 
ATOM      2  C   UNL     1      47.968   8.883  12.401  0.00  0.00    +0.000 A 
ATOM      3  C   UNL     1      46.879   8.082  12.743  0.00  0.00    +0.000 A 
ATOM      4  C   UNL     1      47.073   6.737  13.046  0.00  0.00    +0.000 A 
ATOM      5  N   UNL     1      46.048   5.902  13.474  0.00  0.00    +0.000 N 
ATOM      6  N   UNL     1      48.298   6.178  13.007  0.00  0.00    +0.000 NA
ATOM      7  C   UNL     1      49.353   6.975  12.679  0.00  0.00    +0.000 A 
ATOM      8  H   UNL     1      46.419   4.953  13.471  0.00  0.00    +0.000 HD
ENDROOT
BRANCH   1  10
ATOM      9  N   UNL     1      50.902   9.950  13.099  0.00  0.00    +0.000 N 
ATOM     10  C   UNL     1      50.452   9.120  12.107  0.00  0.00    +0.000 C 
ATOM     11  O   UNL     1      51.054   9.012  11.046  0.00  0.00    +0.000 OA
ATOM     12  H   UNL     1      51.793  10.404  12.938  0.00  0.00    +0.000 HD
ATOM     13  H   UNL     1      50.585   9.874  14.054  0.00  0.00    +0.000 HD
ENDBRANCH   1  10
BRANCH   5  14
ATOM     14  C   UNL     1      44.723   6.084  12.895  0.00  0.00    +0.000 C 
BRANCH  14  15
ATOM     15  C   UNL     1      44.804   6.209  11.367  0.00  0.00    +0.000 C 
BRANCH  15  16
ATOM     16  C   UNL     1      44.695   4.850  10.714  0.00  0.00    +0.000 A 
ATOM     17  C   UNL     1      44.146   3.765  11.410  0.00  0.00    +0.000 A 
ATOM     18  C   UNL     1      43.986   2.530  10.779  0.00  0.00    +0.000 A 
ATOM     19  C   UNL     1      44.371   2.362   9.448  0.00  0.00    +0.000 A 
ATOM     20  C   UNL     1      44.922   3.432   8.747  0.00  0.00    +0.000 A 
ATOM     21  C   UNL     1      45.075   4.671   9.376  0.00  0.00    +0.000 A 
BRANCH  20  22
ATOM     22  O   UNL     1      45.299   3.394   7.429  0.00  0.00    +0.000 OA
BRANCH  22  23
ATOM     23  C   UNL     1      46.675   3.109   7.099  0.00  0.00    +0.000 C 
ATOM     24  C   UNL     1      47.012   2.906   5.602  0.00  0.00    +0.000 C 
ATOM     25  C   UNL     1      47.760   1.616   5.962  0.00  0.00    +0.000 C 
ATOM     26  C   UNL     1      47.079   1.633   7.334  0.00  0.00    +0.000 C 
ENDBRANCH  22  23
ENDBRANCH  20  22
ENDBRANCH  15  16
ENDBRANCH  14  15
ENDBRANCH   5  14
TORSDOF 6
ENDMDL
MODEL 9
REMARK VINA RESULT:    -6.067      3.627      5.473
REMARK INTER + INTRA:          -9.027
REMARK INTER:                  -7.922
REMARK INTRA:                  -1.105
REMARK UNBOUND:                -0.832
REMARK  Name = 
REMARK  6 active torsions:
REMARK  status: ('A' for Active; 'I' for Inactive)
REMARK    1  A    between atoms: C_2  and  C_4
REMARK    2  A    between atoms: N_8  and  C_9
REMARK    3  A    between atoms: C_9  and  C_10
REMARK    4  A    between atoms: C_10  and  C_11
REMARK    5  A    between atoms: C_15  and  O_16
REMARK    6  A    between atoms: O_16  and  C_17
REMARK                            x       y       z     vdW  Elec       q    Type
REMARK                         _______ _______ _______ _____ _____    ______ ____
ROOT
ATOM      1  C   UNL     1      44.787   4.594  12.281  0.00  0.00    +0.000 A 
ATOM      2  C   UNL     1      45.834   4.357  13.162  0.00  0.00    +0.000 A 
ATOM      3  C   UNL     1      46.588   5.434  13.627  0.00  0.00    +0.000 A 
ATOM      4  C   UNL     1      46.303   6.724  13.186  0.00  0.00    +0.000 A 
ATOM      5  N   UNL     1      46.957   7.850  13.669  0.00  0.00    +0.000 N 
ATOM      6  N   UNL     1      45.315   6.962  12.302  0.00  0.00    +0.000 NA
ATOM      7  C   UNL     1      44.583   5.900  11.863  0.00  0.00    +0.000 A 
ATOM      8  H   UNL     1      46.679   8.631  13.077  0.00  0.00    +0.000 HD
ENDROOT
BRANCH   1  10
ATOM      9  N   UNL     1      43.853   2.369  12.532  0.00  0.00    +0.000 N 
ATOM     10  C   UNL     1      43.902   3.519  11.791  0.00  0.00    +0.000 C 
ATOM     11  O   UNL     1      43.210   3.662  10.790  0.00  0.00    +0.000 OA
ATOM     12  H   UNL     1      43.162   1.682  12.255  0.00  0.00    +0.000 HD
ATOM     13  H   UNL     1      44.206   2.317  13.476  0.00  0.00    +0.000 HD
ENDBRANCH   1  10
BRANCH   5  14
ATOM     14  C   UNL     1      48.378   7.744  13.977  0.00  0.00    +0.000 C 
BRANCH  14  15
ATOM     15  C   UNL     1      48.804   8.820  14.985  0.00  0.00    +0.000 C 
BRANCH  15  16
ATOM     16  C   UNL     1      48.530   8.363  16.401  0.00  0.00    +0.000 A 
ATOM     17  C   UNL     1      48.037   9.260  17.357  0.00  0.00    +0.000 A 
ATOM     18  C   UNL     1      47.723   8.817  18.643  0.00  0.00    +0.000 A 
ATOM     19  C   UNL     1      47.896   7.476  18.991  0.00  0.00    +0.000 A 
ATOM     20  C   UNL     1      48.390   6.576  18.049  0.00  0.00    +0.000 A 
ATOM     21  C   UNL     1      48.697   7.018  16.758  0.00  0.00    +0.000 A 
BRANCH  20  22
ATOM     22  O   UNL     1      48.564   5.233  18.265  0.00  0.00    +0.000 OA
BRANCH  22  23
ATOM     23  C   UNL     1      48.876   4.376  17.146  0.00  0.00    +0.000 C 
ATOM     24  C   UNL     1      47.784   3.370  16.706  0.00  0.00    +0.000 C 
ATOM     25  C   UNL     1      48.835   2.252  16.711  0.00  0.00    +0.000 C 
ATOM     26  C   UNL     1      49.765   3.165  17.517  0.00  0.00    +0.000 C 
ENDBRANCH  22  23
ENDBRANCH  20  22
ENDBRANCH  15  16
ENDBRANCH  14  15
ENDBRANCH   5  14
TORSDOF 6
ENDMDL
