MODEL 1
REMARK VINA RESULT:    -8.565      0.000      0.000
REMARK INTER + INTRA:         -11.787
REMARK INTER:                 -11.068
REMARK INTRA:                  -0.719
REMARK UNBOUND:                -0.719
REMARK  Name = 
REMARK  6 active torsions:
REMARK  status: ('A' for Active; 'I' for Inactive)
REMARK    1  A    between atoms: C_1  and  C_2
REMARK    2  A    between atoms: C_2  and  N_3
REMARK    3  A    between atoms: C_2  and  C_16
REMARK    4  A    between atoms: C_4  and  C_6
REMARK    5  A    between atoms: C_19  and  C_20
REMARK    6  A    between atoms: C_20  and  N_21
REMARK                            x       y       z     vdW  Elec       q    Type
REMARK                         _______ _______ _______ _____ _____    ______ ____
ROOT
ATOM      1  C   UNL     1      42.839   5.141  12.814  0.00  0.00    +0.000 C 
ATOM      2  C   UNL     1      44.138   4.346  12.681  0.00  0.00    +0.000 C 
ENDROOT
BRANCH   2   3
ATOM      3  C   UNL     1      44.564   3.996  11.261  0.00  0.00    +0.000 A 
ATOM      4  C   UNL     1      45.185   5.000  10.501  0.00  0.00    +0.000 A 
ATOM      5  C   UNL     1      45.544   4.791   9.166  0.00  0.00    +0.000 A 
ATOM      6  C   UNL     1      45.304   3.564   8.536  0.00  0.00    +0.000 A 
ATOM      7  C   UNL     1      44.689   2.552   9.291  0.00  0.00    +0.000 A 
ATOM      8  C   UNL     1      44.317   2.766  10.635  0.00  0.00    +0.000 A 
BRANCH   6   9
ATOM      9  C   UNL     1      45.568   3.413   7.051  0.00  0.00    +0.000 C 
BRANCH   9  10
ATOM     10  N   UNL     1      46.890   3.021   6.568  0.00  0.00    +0.000 NA
ATOM     11  C   UNL     1      47.078   2.946   5.119  0.00  0.00    +0.000 C 
ATOM     12  C   UNL     1      46.823   1.559   4.510  0.00  0.00    +0.000 C 
ATOM     13  O   UNL     1      47.544   0.527   5.196  0.00  0.00    +0.000 OA
ATOM     14  C   UNL     1      47.247   0.526   6.598  0.00  0.00    +0.000 C 
ATOM     15  C   UNL     1      47.543   1.891   7.235  0.00  0.00    +0.000 C 
ENDBRANCH   9  10
ENDBRANCH   6   9
ENDBRANCH   2   3
BRANCH   2  16
ATOM     16  N   UNL     1      45.224   5.050  13.344  0.00  0.00    +0.000 N 
ATOM     17  C   UNL     1      46.335   4.410  13.828  0.00  0.00    +0.000 C 
ATOM     18  O   UNL     1      46.531   3.208  13.651  0.00  0.00    +0.000 OA
ATOM     19  H   UNL     1      45.030   6.002  13.638  0.00  0.00    +0.000 HD
BRANCH  17  20
ATOM     20  C   UNL     1      47.321   5.245  14.524  0.00  0.00    +0.000 A 
ATOM     21  C   UNL     1      47.958   6.273  13.843  0.00  0.00    +0.000 A 
ATOM     22  S   UNL     1      49.068   7.144  14.799  0.00  0.00    +0.000 S 
ATOM     23  C   UNL     1      48.777   6.143  16.146  0.00  0.00    +0.000 A 
ATOM     24  N   UNL     1      49.459   6.318  17.310  0.00  0.00    +0.000 NA
ATOM     25  C   UNL     1      49.164   5.468  18.234  0.00  0.00    +0.000 A 
ATOM     26  N   UNL     1      48.243   4.461  18.103  0.00  0.00    +0.000 N 
ATOM     27  C   UNL     1      47.496   4.277  16.963  0.00  0.00    +0.000 A 
ATOM     28  O   UNL     1      46.617   3.421  16.908  0.00  0.00    +0.000 OA
ATOM     29  C   UNL     1      47.816   5.183  15.879  0.00  0.00    +0.000 A 
ATOM     30  H   UNL     1      48.045   3.841  18.873  0.00  0.00    +0.000 HD
ENDBRANCH  17  20
ENDBRANCH   2  16
TORSDOF 5
ENDMDL
MODEL 2
REMARK VINA RESULT:    -8.007      1.487      2.327
REMARK INTER + INTRA:         -11.067
REMARK INTER:                 -10.235
REMARK INTRA:                  -0.831
REMARK UNBOUND:                -0.719
REMARK  Name = 
REMARK  6 active torsions:
REMARK  status: ('A' for Active; 'I' for Inactive)
REMARK    1  A    between atoms: C_1  and  C_2
REMARK    2  A    between atoms: C_2  and  N_3
REMARK    3  A    between atoms: C_2  and  C_16
REMARK    4  A    between atoms: C_4  and  C_6
REMARK    5  A    between atoms: C_19  and  C_20
REMARK    6  A    between atoms: C_20  and  N_21
REMARK                            x       y       z     vdW  Elec       q    Type
REMARK                         _______ _______ _______ _____ _____    ______ ____
ROOT
ATOM      1  C   UNL     1      42.757   5.571  12.522  0.00  0.00    +0.000 C 
ATOM      2  C   UNL     1      43.922   4.581  12.506  0.00  0.00    +0.000 C 
ENDROOT
BRANCH   2   3
ATOM      3  C   UNL     1      44.389   4.122  11.131  0.00  0.00    +0.000 A 
ATOM      4  C   UNL     1      45.112   5.038  10.349  0.00  0.00    +0.000 A 
ATOM      5  C   UNL     1      45.519   4.728   9.048  0.00  0.00    +0.000 A 
ATOM      6  C   UNL     1      45.226   3.485   8.475  0.00  0.00    +0.000 A 
ATOM      7  C   UNL     1      44.508   2.561   9.252  0.00  0.00    +0.000 A 
ATOM      8  C   UNL     1      44.089   2.877  10.561  0.00  0.00    +0.000 A 
BRANCH   6   9
ATOM      9  C   UNL     1      45.548   3.231   7.016  0.00  0.00    +0.000 C 
BRANCH   9  10
ATOM     10  N   UNL     1      46.894   2.835   6.612  0.00  0.00    +0.000 NA
ATOM     11  C   UNL     1      47.201   2.870   5.181  0.00  0.00    +0.000 C 
ATOM     12  C   UNL     1      46.961   1.546   4.441  0.00  0.00    +0.000 C 
ATOM     13  O   UNL     1      47.594   0.439   5.096  0.00  0.00    +0.000 OA
ATOM     14  C   UNL     1      47.180   0.336   6.464  0.00  0.00    +0.000 C 
ATOM     15  C   UNL     1      47.459   1.634   7.233  0.00  0.00    +0.000 C 
ENDBRANCH   9  10
ENDBRANCH   6   9
ENDBRANCH   2   3
BRANCH   2  16
ATOM     16  N   UNL     1      45.054   5.131  13.236  0.00  0.00    +0.000 N 
ATOM     17  C   UNL     1      46.095   4.357  13.679  0.00  0.00    +0.000 C 
ATOM     18  O   UNL     1      46.186   3.160  13.410  0.00  0.00    +0.000 OA
ATOM     19  H   UNL     1      44.941   6.070  13.602  0.00  0.00    +0.000 HD
BRANCH  17  20
ATOM     20  C   UNL     1      47.139   5.042  14.450  0.00  0.00    +0.000 A 
ATOM     21  C   UNL     1      47.406   4.647  15.753  0.00  0.00    +0.000 A 
ATOM     22  S   UNL     1      48.648   5.545  16.501  0.00  0.00    +0.000 S 
ATOM     23  C   UNL     1      48.837   6.531  15.126  0.00  0.00    +0.000 A 
ATOM     24  N   UNL     1      49.726   7.561  15.118  0.00  0.00    +0.000 NA
ATOM     25  C   UNL     1      49.740   8.246  14.026  0.00  0.00    +0.000 A 
ATOM     26  N   UNL     1      48.950   7.991  12.934  0.00  0.00    +0.000 N 
ATOM     27  C   UNL     1      48.073   6.934  12.879  0.00  0.00    +0.000 A 
ATOM     28  O   UNL     1      47.444   6.680  11.855  0.00  0.00    +0.000 OA
ATOM     29  C   UNL     1      47.991   6.153  14.097  0.00  0.00    +0.000 A 
ATOM     30  H   UNL     1      49.024   8.555  12.102  0.00  0.00    +0.000 HD
ENDBRANCH  17  20
ENDBRANCH   2  16
TORSDOF 5
ENDMDL
MODEL 3
REMARK VINA RESULT:    -6.950      3.982      6.500
REMARK INTER + INTRA:          -9.700
REMARK INTER:                  -8.663
REMARK INTRA:                  -1.037
REMARK UNBOUND:                -0.719
REMARK  Name = 
REMARK  6 active torsions:
REMARK  status: ('A' for Active; 'I' for Inactive)
REMARK    1  A    between atoms: C_1  and  C_2
REMARK    2  A    between atoms: C_2  and  N_3
REMARK    3  A    between atoms: C_2  and  C_16
REMARK    4  A    between atoms: C_4  and  C_6
REMARK    5  A    between atoms: C_19  and  C_20
REMARK    6  A    between atoms: C_20  and  N_21
REMARK                            x       y       z     vdW  Elec       q    Type
REMARK                         _______ _______ _______ _____ _____    ______ ____
ROOT
ATOM      1  C   UNL     1      50.287   8.023  15.562  0.00  0.00    +0.000 C 
ATOM      2  C   UNL     1      49.536   6.858  16.209  0.00  0.00    +0.000 C 
ENDROOT
BRANCH   2   3
ATOM      3  C   UNL     1      48.516   6.150  15.327  0.00  0.00    +0.000 A 
ATOM      4  C   UNL     1      47.826   5.058  15.877  0.00  0.00    +0.000 A 
ATOM      5  C   UNL     1      46.925   4.304  15.120  0.00  0.00    +0.000 A 
ATOM      6  C   UNL     1      46.669   4.617  13.779  0.00  0.00    +0.000 A 
ATOM      7  C   UNL     1      47.350   5.712  13.222  0.00  0.00    +0.000 A 
ATOM      8  C   UNL     1      48.267   6.465  13.984  0.00  0.00    +0.000 A 
BRANCH   6   9
ATOM      9  C   UNL     1      45.802   3.698  12.941  0.00  0.00    +0.000 C 
BRANCH   9  10
ATOM     10  N   UNL     1      44.362   3.920  12.845  0.00  0.00    +0.000 NA
ATOM     11  C   UNL     1      43.654   3.259  11.747  0.00  0.00    +0.000 C 
ATOM     12  C   UNL     1      43.522   4.103  10.471  0.00  0.00    +0.000 C 
ATOM     13  O   UNL     1      42.994   5.408  10.737  0.00  0.00    +0.000 OA
ATOM     14  C   UNL     1      43.777   6.098  11.719  0.00  0.00    +0.000 C 
ATOM     15  C   UNL     1      43.879   5.292  13.022  0.00  0.00    +0.000 C 
ENDBRANCH   9  10
ENDBRANCH   6   9
ENDBRANCH   2   3
BRANCH   2  16
ATOM     16  N   UNL     1      50.481   5.880  16.725  0.00  0.00    +0.000 N 
ATOM     17  C   UNL     1      50.690   5.689  18.066  0.00  0.00    +0.000 C 
ATOM     18  O   UNL     1      50.025   6.268  18.924  0.00  0.00    +0.000 OA
ATOM     19  H   UNL     1      51.145   5.501  16.059  0.00  0.00    +0.000 HD
BRANCH  17  20
ATOM     20  C   UNL     1      51.716   4.707  18.436  0.00  0.00    +0.000 A 
ATOM     21  C   UNL     1      52.815   5.106  19.183  0.00  0.00    +0.000 A 
ATOM     22  S   UNL     1      53.905   3.841  19.527  0.00  0.00    +0.000 S 
ATOM     23  C   UNL     1      52.973   2.724  18.643  0.00  0.00    +0.000 A 
ATOM     24  N   UNL     1      53.380   1.434  18.492  0.00  0.00    +0.000 NA
ATOM     25  C   UNL     1      52.596   0.708  17.769  0.00  0.00    +0.000 A 
ATOM     26  N   UNL     1      51.436   1.152  17.188  0.00  0.00    +0.000 N 
ATOM     27  C   UNL     1      50.961   2.432  17.353  0.00  0.00    +0.000 A 
ATOM     28  O   UNL     1      49.875   2.774  16.893  0.00  0.00    +0.000 OA
ATOM     29  C   UNL     1      51.825   3.301  18.127  0.00  0.00    +0.000 A 
ATOM     30  H   UNL     1      50.857   0.526  16.650  0.00  0.00    +0.000 HD
ENDBRANCH  17  20
ENDBRANCH   2  16
TORSDOF 5
ENDMDL
MODEL 4
REMARK VINA RESULT:    -6.904      3.748      5.267
REMARK INTER + INTRA:          -9.641
REMARK INTER:                  -8.485
REMARK INTRA:                  -1.156
REMARK UNBOUND:                -0.719
REMARK  Name = 
REMARK  6 active torsions:
REMARK  status: ('A' for Active; 'I' for Inactive)
REMARK    1  A    between atoms: C_1  and  C_2
REMARK    2  A    between atoms: C_2  and  N_3
REMARK    3  A    between atoms: C_2  and  C_16
REMARK    4  A    between atoms: C_4  and  C_6
REMARK    5  A    between atoms: C_19  and  C_20
REMARK    6  A    between atoms: C_20  and  N_21
REMARK                            x       y       z     vdW  Elec       q    Type
REMARK                         _______ _______ _______ _____ _____    ______ ____
ROOT
ATOM      1  C   UNL     1      50.028   7.765  12.094  0.00  0.00    +0.000 C 
ATOM      2  C   UNL     1      48.818   7.867  13.023  0.00  0.00    +0.000 C 
ENDROOT
BRANCH   2   3
ATOM      3  C   UNL     1      47.467   7.540  12.398  0.00  0.00    +0.000 A 
ATOM      4  C   UNL     1      46.327   8.128  12.968  0.00  0.00    +0.000 A 
ATOM      5  C   UNL     1      45.041   7.830  12.507  0.00  0.00    +0.000 A 
ATOM      6  C   UNL     1      44.842   6.935  11.449  0.00  0.00    +0.000 A 
ATOM      7  C   UNL     1      45.978   6.347  10.868  0.00  0.00    +0.000 A 
ATOM      8  C   UNL     1      47.274   6.640  11.341  0.00  0.00    +0.000 A 
BRANCH   6   9
ATOM      9  C   UNL     1      43.437   6.518  11.066  0.00  0.00    +0.000 C 
BRANCH   9  10
ATOM     10  N   UNL     1      42.880   5.256  11.546  0.00  0.00    +0.000 NA
ATOM     11  C   UNL     1      42.915   5.015  12.990  0.00  0.00    +0.000 C 
ATOM     12  C   UNL     1      44.157   4.259  13.483  0.00  0.00    +0.000 C 
ATOM     13  O   UNL     1      44.392   3.059  12.736  0.00  0.00    +0.000 OA
ATOM     14  C   UNL     1      44.490   3.329  11.332  0.00  0.00    +0.000 C 
ATOM     15  C   UNL     1      43.234   4.040  10.809  0.00  0.00    +0.000 C 
ENDBRANCH   9  10
ENDBRANCH   6   9
ENDBRANCH   2   3
BRANCH   2  16
ATOM     16  N   UNL     1      49.017   7.029  14.195  0.00  0.00    +0.000 N 
ATOM     17  C   UNL     1      48.882   7.502  15.474  0.00  0.00    +0.000 C 
ATOM     18  O   UNL     1      48.494   8.644  15.716  0.00  0.00    +0.000 OA
ATOM     19  H   UNL     1      49.478   6.139  14.039  0.00  0.00    +0.000 HD
BRANCH  17  20
ATOM     20  C   UNL     1      49.169   6.553  16.557  0.00  0.00    +0.000 A 
ATOM     21  C   UNL     1      50.142   6.856  17.499  0.00  0.00    +0.000 A 
ATOM     22  S   UNL     1      50.345   5.649  18.686  0.00  0.00    +0.000 S 
ATOM     23  C   UNL     1      49.175   4.653  17.952  0.00  0.00    +0.000 A 
ATOM     24  N   UNL     1      48.893   3.418  18.450  0.00  0.00    +0.000 NA
ATOM     25  C   UNL     1      48.014   2.760  17.775  0.00  0.00    +0.000 A 
ATOM     26  N   UNL     1      47.383   3.225  16.649  0.00  0.00    +0.000 N 
ATOM     27  C   UNL     1      47.601   4.483  16.139  0.00  0.00    +0.000 A 
ATOM     28  O   UNL     1      46.957   4.903  15.182  0.00  0.00    +0.000 OA
ATOM     29  C   UNL     1      48.610   5.252  16.839  0.00  0.00    +0.000 A 
ATOM     30  H   UNL     1      46.689   2.665  16.179  0.00  0.00    +0.000 HD
ENDBRANCH  17  20
ENDBRANCH   2  16
TORSDOF 5
ENDMDL
MODEL 5
REMARK VINA RESULT:    -6.617      4.042      5.521
REMARK INTER + INTRA:          -9.270
REMARK INTER:                  -8.432
REMARK INTRA:                  -0.837
REMARK UNBOUND:                -0.719
REMARK  Name = 
REMARK  6 active torsions:
REMARK  status: ('A' for Active; 'I' for Inactive)
REMARK    1  A    between atoms: C_1  and  C_2
REMARK    2  A    between atoms: C_2  and  N_3
REMARK    3  A    between atoms: C_2  and  C_16
REMARK    4  A    between atoms: C_4  and  C_6
REMARK    5  A    between atoms: C_19  and  C_20
REMARK    6  A    between atoms: C_20  and  N_21
REMARK                            x       y       z     vdW  Elec       q    Type
REMARK                         _______ _______ _______ _____ _____    ______ ____
ROOT
ATOM      1  C   UNL     1      43.132   5.503  12.545  0.00  0.00    +0.000 C 
ATOM      2  C   UNL     1      44.499   5.741  11.902  0.00  0.00    +0.000 C 
ENDROOT
BRANCH   2   3
ATOM      3  C   UNL     1      44.824   4.881  10.687  0.00  0.00    +0.000 A 
ATOM      4  C   UNL     1      45.596   5.460   9.667  0.00  0.00    +0.000 A 
ATOM      5  C   UNL     1      45.882   4.770   8.485  0.00  0.00    +0.000 A 
ATOM      6  C   UNL     1      45.415   3.467   8.277  0.00  0.00    +0.000 A 
ATOM      7  C   UNL     1      44.647   2.878   9.295  0.00  0.00    +0.000 A 
ATOM      8  C   UNL     1      44.349   3.578  10.483  0.00  0.00    +0.000 A 
BRANCH   6   9
ATOM      9  C   UNL     1      45.614   2.799   6.931  0.00  0.00    +0.000 C 
BRANCH   9  10
ATOM     10  N   UNL     1      46.945   2.376   6.502  0.00  0.00    +0.000 NA
ATOM     11  C   UNL     1      47.299   2.599   5.100  0.00  0.00    +0.000 C 
ATOM     12  C   UNL     1      46.999   1.417   4.167  0.00  0.00    +0.000 C 
ATOM     13  O   UNL     1      47.538   0.185   4.664  0.00  0.00    +0.000 OA
ATOM     14  C   UNL     1      47.075  -0.089   5.993  0.00  0.00    +0.000 C 
ATOM     15  C   UNL     1      47.411   1.061   6.952  0.00  0.00    +0.000 C 
ENDBRANCH   9  10
ENDBRANCH   6   9
ENDBRANCH   2   3
BRANCH   2  16
ATOM     16  N   UNL     1      44.644   7.144  11.546  0.00  0.00    +0.000 N 
ATOM     17  C   UNL     1      45.341   8.035  12.320  0.00  0.00    +0.000 C 
ATOM     18  O   UNL     1      45.966   7.688  13.321  0.00  0.00    +0.000 OA
ATOM     19  H   UNL     1      44.025   7.491  10.821  0.00  0.00    +0.000 HD
BRANCH  17  20
ATOM     20  C   UNL     1      45.354   9.429  11.862  0.00  0.00    +0.000 A 
ATOM     21  C   UNL     1      46.476  10.216  12.081  0.00  0.00    +0.000 A 
ATOM     22  S   UNL     1      46.325  11.806  11.483  0.00  0.00    +0.000 S 
ATOM     23  C   UNL     1      44.732  11.515  10.957  0.00  0.00    +0.000 A 
ATOM     24  N   UNL     1      43.990  12.503  10.386  0.00  0.00    +0.000 NA
ATOM     25  C   UNL     1      42.791  12.153  10.068  0.00  0.00    +0.000 A 
ATOM     26  N   UNL     1      42.265  10.901  10.261  0.00  0.00    +0.000 N 
ATOM     27  C   UNL     1      42.992   9.860  10.788  0.00  0.00    +0.000 A 
ATOM     28  O   UNL     1      42.521   8.729  10.867  0.00  0.00    +0.000 OA
ATOM     29  C   UNL     1      44.337  10.210  11.198  0.00  0.00    +0.000 A 
ATOM     30  H   UNL     1      41.323  10.688   9.971  0.00  0.00    +0.000 HD
ENDBRANCH  17  20
ENDBRANCH   2  16
TORSDOF 5
ENDMDL
MODEL 6
REMARK VINA RESULT:    -6.560      3.789      5.585
REMARK INTER + INTRA:          -9.197
REMARK INTER:                  -8.283
REMARK INTRA:                  -0.913
REMARK UNBOUND:                -0.719
REMARK  Name = 
REMARK  6 active torsions:
REMARK  status: ('A' for Active; 'I' for Inactive)
REMARK    1  A    between atoms: C_1  and  C_2
REMARK    2  A    between atoms: C_2  and  N_3
REMARK    3  A    between atoms: C_2  and  C_16
REMARK    4  A    between atoms: C_4  and  C_6
REMARK    5  A    between atoms: C_19  and  C_20
REMARK    6  A    between atoms: C_20  and  N_21
REMARK                            x       y       z     vdW  Elec       q    Type
REMARK                         _______ _______ _______ _____ _____    ______ ____
ROOT
ATOM      1  C   UNL     1      49.217   9.483  13.885  0.00  0.00    +0.000 C 
ATOM      2  C   UNL     1      47.862   8.990  14.395  0.00  0.00    +0.000 C 
ENDROOT
BRANCH   2   3
ATOM      3  C   UNL     1      47.027   8.189  13.405  0.00  0.00    +0.000 A 
ATOM      4  C   UNL     1      47.473   6.901  13.069  0.00  0.00    +0.000 A 
ATOM      5  C   UNL     1      46.811   6.122  12.116  0.00  0.00    +0.000 A 
ATOM      6  C   UNL     1      45.667   6.597  11.463  0.00  0.00    +0.000 A 
ATOM      7  C   UNL     1      45.209   7.882  11.797  0.00  0.00    +0.000 A 
ATOM      8  C   UNL     1      45.885   8.672  12.752  0.00  0.00    +0.000 A 
BRANCH   6   9
ATOM      9  C   UNL     1      45.055   5.795  10.331  0.00  0.00    +0.000 C 
BRANCH   9  10
ATOM     10  N   UNL     1      44.070   4.752  10.608  0.00  0.00    +0.000 NA
ATOM     11  C   UNL     1      42.978   5.088  11.523  0.00  0.00    +0.000 C 
ATOM     12  C   UNL     1      43.247   4.745  12.996  0.00  0.00    +0.000 C 
ATOM     13  O   UNL     1      43.687   3.392  13.164  0.00  0.00    +0.000 OA
ATOM     14  C   UNL     1      44.842   3.114  12.362  0.00  0.00    +0.000 C 
ATOM     15  C   UNL     1      44.576   3.403  10.878  0.00  0.00    +0.000 C 
ENDBRANCH   9  10
ENDBRANCH   6   9
ENDBRANCH   2   3
BRANCH   2  16
ATOM     16  N   UNL     1      48.040   8.210  15.610  0.00  0.00    +0.000 N 
ATOM     17  C   UNL     1      48.236   8.787  16.838  0.00  0.00    +0.000 C 
ATOM     18  O   UNL     1      48.182  10.004  17.009  0.00  0.00    +0.000 OA
ATOM     19  H   UNL     1      48.240   7.223  15.486  0.00  0.00    +0.000 HD
BRANCH  17  20
ATOM     20  C   UNL     1      48.457   7.872  17.963  0.00  0.00    +0.000 A 
ATOM     21  C   UNL     1      47.907   8.160  19.204  0.00  0.00    +0.000 A 
ATOM     22  S   UNL     1      48.257   6.992  20.397  0.00  0.00    +0.000 S 
ATOM     23  C   UNL     1      49.203   6.085  19.309  0.00  0.00    +0.000 A 
ATOM     24  N   UNL     1      49.851   4.959  19.713  0.00  0.00    +0.000 NA
ATOM     25  C   UNL     1      50.558   4.393  18.795  0.00  0.00    +0.000 A 
ATOM     26  N   UNL     1      50.672   4.845  17.506  0.00  0.00    +0.000 N 
ATOM     27  C   UNL     1      49.997   5.949  17.041  0.00  0.00    +0.000 A 
ATOM     28  O   UNL     1      50.050   6.278  15.859  0.00  0.00    +0.000 OA
ATOM     29  C   UNL     1      49.216   6.646  18.043  0.00  0.00    +0.000 A 
ATOM     30  H   UNL     1      51.228   4.343  16.831  0.00  0.00    +0.000 HD
ENDBRANCH  17  20
ENDBRANCH   2  16
TORSDOF 5
ENDMDL
MODEL 7
REMARK VINA RESULT:    -6.489      4.458      6.396
REMARK INTER + INTRA:          -9.105
REMARK INTER:                  -8.203
REMARK INTRA:                  -0.902
REMARK UNBOUND:                -0.719
REMARK  Name = 
REMARK  6 active torsions:
REMARK  status: ('A' for Active; 'I' for Inactive)
REMARK    1  A    between atoms: C_1  and  C_2
REMARK    2  A    between atoms: C_2  and  N_3
REMARK    3  A    between atoms: C_2  and  C_16
REMARK    4  A    between atoms: C_4  and  C_6
REMARK    5  A    between atoms: C_19  and  C_20
REMARK    6  A    between atoms: C_20  and  N_21
REMARK                            x       y       z     vdW  Elec       q    Type
REMARK                         _______ _______ _______ _____ _____    ______ ____
ROOT
ATOM      1  C   UNL     1      44.386   4.032  13.100  0.00  0.00    +0.000 C 
ATOM      2  C   UNL     1      45.543   5.025  12.981  0.00  0.00    +0.000 C 
ENDROOT
BRANCH   2   3
ATOM      3  C   UNL     1      45.178   6.420  12.492  0.00  0.00    +0.000 A 
ATOM      4  C   UNL     1      44.131   6.532  11.563  0.00  0.00    +0.000 A 
ATOM      5  C   UNL     1      43.774   7.763  11.006  0.00  0.00    +0.000 A 
ATOM      6  C   UNL     1      44.446   8.939  11.361  0.00  0.00    +0.000 A 
ATOM      7  C   UNL     1      45.491   8.838  12.294  0.00  0.00    +0.000 A 
ATOM      8  C   UNL     1      45.857   7.593  12.848  0.00  0.00    +0.000 A 
BRANCH   6   9
ATOM      9  C   UNL     1      44.139  10.233  10.635  0.00  0.00    +0.000 C 
BRANCH   9  10
ATOM     10  N   UNL     1      42.995  10.324   9.731  0.00  0.00    +0.000 NA
ATOM     11  C   UNL     1      43.200  11.020   8.459  0.00  0.00    +0.000 C 
ATOM     12  C   UNL     1      42.859  12.517   8.487  0.00  0.00    +0.000 C 
ATOM     13  O   UNL     1      41.556  12.766   9.028  0.00  0.00    +0.000 OA
ATOM     14  C   UNL     1      41.414  12.191  10.333  0.00  0.00    +0.000 C 
ATOM     15  C   UNL     1      41.701  10.684  10.317  0.00  0.00    +0.000 C 
ENDBRANCH   9  10
ENDBRANCH   6   9
ENDBRANCH   2   3
BRANCH   2  16
ATOM     16  N   UNL     1      46.241   5.132  14.253  0.00  0.00    +0.000 N 
ATOM     17  C   UNL     1      47.063   4.146  14.731  0.00  0.00    +0.000 C 
ATOM     18  O   UNL     1      47.338   3.143  14.075  0.00  0.00    +0.000 OA
ATOM     19  H   UNL     1      45.924   5.864  14.879  0.00  0.00    +0.000 HD
BRANCH  17  20
ATOM     20  C   UNL     1      47.654   4.371  16.055  0.00  0.00    +0.000 A 
ATOM     21  C   UNL     1      47.334   3.525  17.107  0.00  0.00    +0.000 A 
ATOM     22  S   UNL     1      48.110   3.927  18.572  0.00  0.00    +0.000 S 
ATOM     23  C   UNL     1      48.862   5.281  17.864  0.00  0.00    +0.000 A 
ATOM     24  N   UNL     1      49.648   6.112  18.602  0.00  0.00    +0.000 NA
ATOM     25  C   UNL     1      50.124   7.115  17.947  0.00  0.00    +0.000 A 
ATOM     26  N   UNL     1      49.893   7.362  16.618  0.00  0.00    +0.000 N 
ATOM     27  C   UNL     1      49.147   6.525  15.823  0.00  0.00    +0.000 A 
ATOM     28  O   UNL     1      49.032   6.726  14.617  0.00  0.00    +0.000 OA
ATOM     29  C   UNL     1      48.556   5.399  16.519  0.00  0.00    +0.000 A 
ATOM     30  H   UNL     1      50.313   8.157  16.162  0.00  0.00    +0.000 HD
ENDBRANCH  17  20
ENDBRANCH   2  16
TORSDOF 5
ENDMDL
MODEL 8
REMARK VINA RESULT:    -6.267      4.180     10.088
REMARK INTER + INTRA:          -8.817
REMARK INTER:                  -7.987
REMARK INTRA:                  -0.830
REMARK UNBOUND:                -0.719
REMARK  Name = 
REMARK  6 active torsions:
REMARK  status: ('A' for Active; 'I' for Inactive)
REMARK    1  A    between atoms: C_1  and  C_2
REMARK    2  A    between atoms: C_2  and  N_3
REMARK    3  A    between atoms: C_2  and  C_16
REMARK    4  A    between atoms: C_4  and  C_6
REMARK    5  A    between atoms: C_19  and  C_20
REMARK    6  A    between atoms: C_20  and  N_21
REMARK                            x       y       z     vdW  Elec       q    Type
REMARK                         _______ _______ _______ _____ _____    ______ ____
ROOT
ATOM      1  C   UNL     1      48.933   9.502  15.283  0.00  0.00    +0.000 C 
ATOM      2  C   UNL     1      48.991   7.984  15.108  0.00  0.00    +0.000 C 
ENDROOT
BRANCH   2   3
ATOM      3  C   UNL     1      49.192   7.173  16.382  0.00  0.00    +0.000 A 
ATOM      4  C   UNL     1      49.952   7.753  17.410  0.00  0.00    +0.000 A 
ATOM      5  C   UNL     1      50.248   7.055  18.584  0.00  0.00    +0.000 A 
ATOM      6  C   UNL     1      49.790   5.747  18.783  0.00  0.00    +0.000 A 
ATOM      7  C   UNL     1      49.024   5.161  17.762  0.00  0.00    +0.000 A 
ATOM      8  C   UNL     1      48.734   5.862  16.573  0.00  0.00    +0.000 A 
BRANCH   6   9
ATOM      9  C   UNL     1      50.248   4.963  19.997  0.00  0.00    +0.000 C 
BRANCH   9  10
ATOM     10  N   UNL     1      49.585   5.137  21.287  0.00  0.00    +0.000 NA
ATOM     11  C   UNL     1      48.121   5.124  21.295  0.00  0.00    +0.000 C 
ATOM     12  C   UNL     1      47.468   6.508  21.160  0.00  0.00    +0.000 C 
ATOM     13  O   UNL     1      47.999   7.450  22.100  0.00  0.00    +0.000 OA
ATOM     14  C   UNL     1      49.424   7.552  21.990  0.00  0.00    +0.000 C 
ATOM     15  C   UNL     1      50.099   6.185  22.172  0.00  0.00    +0.000 C 
ENDBRANCH   9  10
ENDBRANCH   6   9
ENDBRANCH   2   3
BRANCH   2  16
ATOM     16  N   UNL     1      47.794   7.514  14.427  0.00  0.00    +0.000 N 
ATOM     17  C   UNL     1      47.842   6.710  13.318  0.00  0.00    +0.000 C 
ATOM     18  O   UNL     1      48.898   6.257  12.879  0.00  0.00    +0.000 OA
ATOM     19  H   UNL     1      46.927   7.983  14.666  0.00  0.00    +0.000 HD
BRANCH  17  20
ATOM     20  C   UNL     1      46.554   6.362  12.707  0.00  0.00    +0.000 A 
ATOM     21  C   UNL     1      45.769   7.356  12.140  0.00  0.00    +0.000 A 
ATOM     22  S   UNL     1      44.310   6.780  11.472  0.00  0.00    +0.000 S 
ATOM     23  C   UNL     1      44.651   5.186  11.964  0.00  0.00    +0.000 A 
ATOM     24  N   UNL     1      43.764   4.178  11.742  0.00  0.00    +0.000 NA
ATOM     25  C   UNL     1      44.135   3.030  12.198  0.00  0.00    +0.000 A 
ATOM     26  N   UNL     1      45.318   2.795  12.850  0.00  0.00    +0.000 N 
ATOM     27  C   UNL     1      46.265   3.771  13.054  0.00  0.00    +0.000 A 
ATOM     28  O   UNL     1      47.351   3.509  13.563  0.00  0.00    +0.000 OA
ATOM     29  C   UNL     1      45.880   5.090  12.593  0.00  0.00    +0.000 A 
ATOM     30  H   UNL     1      45.556   1.867  13.165  0.00  0.00    +0.000 HD
ENDBRANCH  17  20
ENDBRANCH   2  16
TORSDOF 5
ENDMDL
MODEL 9
REMARK VINA RESULT:    -6.254      4.796      6.665
REMARK INTER + INTRA:          -8.801
REMARK INTER:                  -7.819
REMARK INTRA:                  -0.983
REMARK UNBOUND:                -0.719
REMARK  Name = 
REMARK  6 active torsions:
REMARK  status: ('A' for Active; 'I' for Inactive)
REMARK    1  A    between atoms: C_1  and  C_2
REMARK    2  A    between atoms: C_2  and  N_3
REMARK    3  A    between atoms: C_2  and  C_16
REMARK    4  A    between atoms: C_4  and  C_6
REMARK    5  A    between atoms: C_19  and  C_20
REMARK    6  A    between atoms: C_20  and  N_21
REMARK                            x       y       z     vdW  Elec       q    Type
REMARK                         _______ _______ _______ _____ _____    ______ ____
ROOT
ATOM      1  C   UNL     1      46.625   4.062  13.453  0.00  0.00    +0.000 C 
ATOM      2  C   UNL     1      47.167   5.484  13.602  0.00  0.00    +0.000 C 
ENDROOT
BRANCH   2   3
ATOM      3  C   UNL     1      46.327   6.588  12.972  0.00  0.00    +0.000 A 
ATOM      4  C   UNL     1      45.314   6.206  12.079  0.00  0.00    +0.000 A 
ATOM      5  C   UNL     1      44.541   7.153  11.400  0.00  0.00    +0.000 A 
ATOM      6  C   UNL     1      44.745   8.524  11.592  0.00  0.00    +0.000 A 
ATOM      7  C   UNL     1      45.752   8.916  12.489  0.00  0.00    +0.000 A 
ATOM      8  C   UNL     1      46.539   7.960  13.166  0.00  0.00    +0.000 A 
BRANCH   6   9
ATOM      9  C   UNL     1      43.996   9.527  10.737  0.00  0.00    +0.000 C 
BRANCH   9  10
ATOM     10  N   UNL     1      43.215  10.595  11.356  0.00  0.00    +0.000 NA
ATOM     11  C   UNL     1      41.765  10.563  11.161  0.00  0.00    +0.000 C 
ATOM     12  C   UNL     1      41.264  11.367   9.952  0.00  0.00    +0.000 C 
ATOM     13  O   UNL     1      41.775  12.705   9.943  0.00  0.00    +0.000 OA
ATOM     14  C   UNL     1      43.207  12.718   9.999  0.00  0.00    +0.000 C 
ATOM     15  C   UNL     1      43.726  11.962  11.230  0.00  0.00    +0.000 C 
ENDBRANCH   9  10
ENDBRANCH   6   9
ENDBRANCH   2   3
BRANCH   2  16
ATOM     16  N   UNL     1      47.384   5.792  15.007  0.00  0.00    +0.000 N 
ATOM     17  C   UNL     1      48.581   6.254  15.487  0.00  0.00    +0.000 C 
ATOM     18  O   UNL     1      49.525   6.528  14.747  0.00  0.00    +0.000 OA
ATOM     19  H   UNL     1      46.689   5.440  15.657  0.00  0.00    +0.000 HD
BRANCH  17  20
ATOM     20  C   UNL     1      48.667   6.467  16.937  0.00  0.00    +0.000 A 
ATOM     21  C   UNL     1      48.885   7.744  17.435  0.00  0.00    +0.000 A 
ATOM     22  S   UNL     1      48.953   7.813  19.137  0.00  0.00    +0.000 S 
ATOM     23  C   UNL     1      48.747   6.128  19.268  0.00  0.00    +0.000 A 
ATOM     24  N   UNL     1      48.762   5.511  20.481  0.00  0.00    +0.000 NA
ATOM     25  C   UNL     1      48.630   4.230  20.430  0.00  0.00    +0.000 A 
ATOM     26  N   UNL     1      48.476   3.506  19.275  0.00  0.00    +0.000 N 
ATOM     27  C   UNL     1      48.406   4.090  18.033  0.00  0.00    +0.000 A 
ATOM     28  O   UNL     1      48.180   3.424  17.026  0.00  0.00    +0.000 OA
ATOM     29  C   UNL     1      48.587   5.528  18.031  0.00  0.00    +0.000 A 
ATOM     30  H   UNL     1      48.358   2.505  19.307  0.00  0.00    +0.000 HD
ENDBRANCH  17  20
ENDBRANCH   2  16
TORSDOF 5
ENDMDL
