MODEL 1
REMARK VINA RESULT:    -7.660      0.000      0.000
REMARK INTER + INTRA:         -13.298
REMARK INTER:                 -11.690
REMARK INTRA:                  -1.607
REMARK UNBOUND:                -1.607
REMARK  Name = 
REMARK  11 active torsions:
REMARK  status: ('A' for Active; 'I' for Inactive)
REMARK    1  A    between atoms: C_1  and  O_2
REMARK    2  A    between atoms: O_2  and  C_3
REMARK    3  A    between atoms: C_8  and  C_9
REMARK    4  A    between atoms: C_9  and  N_10
REMARK    5  A    between atoms: N_10  and  C_11
REMARK    6  A    between atoms: C_11  and  C_12
REMARK    7  A    between atoms: C_15  and  C_16
REMARK    8  A    between atoms: C_16  and  N_17
REMARK    9  A    between atoms: C_18  and  C_20
REMARK   10  A    between atoms: C_27  and  O_28
REMARK   11  A    between atoms: O_28  and  C_29
REMARK                            x       y       z     vdW  Elec       q    Type
REMARK                         _______ _______ _______ _____ _____    ______ ____
ROOT
ATOM      1  C   UNL     1      44.565   4.707  11.268  0.00  0.00    +0.000 A 
ATOM      2  C   UNL     1      45.536   5.434  10.564  0.00  0.00    +0.000 A 
ATOM      3  C   UNL     1      46.248   6.464  11.185  0.00  0.00    +0.000 A 
ATOM      4  C   UNL     1      46.013   6.783  12.527  0.00  0.00    +0.000 A 
ATOM      5  C   UNL     1      45.037   6.063  13.229  0.00  0.00    +0.000 A 
ATOM      6  C   UNL     1      44.316   5.040  12.605  0.00  0.00    +0.000 A 
ENDROOT
BRANCH   1   7
ATOM      7  C   UNL     1      43.823   3.567  10.607  0.00  0.00    +0.000 C 
BRANCH   7   8
ATOM      8  N   UNL     1      44.658   2.385  10.380  0.00  0.00    +0.000 NA
ATOM      9  H   UNL     1      45.637   2.651  10.468  0.00  0.00    +0.000 HD
BRANCH   8  10
ATOM     10  C   UNL     1      44.472   1.833   9.031  0.00  0.00    +0.000 C 
BRANCH  10  16
ATOM     11  C   UNL     1      46.607   1.218   7.761  0.00  0.00    +0.000 A 
ATOM     12  C   UNL     1      47.711   1.618   6.995  0.00  0.00    +0.000 A 
ATOM     13  C   UNL     1      47.864   2.949   6.603  0.00  0.00    +0.000 A 
ATOM     14  C   UNL     1      46.909   3.894   6.954  0.00  0.00    +0.000 A 
ATOM     15  C   UNL     1      45.805   3.508   7.711  0.00  0.00    +0.000 A 
ATOM     16  C   UNL     1      45.638   2.173   8.124  0.00  0.00    +0.000 A 
BRANCH  11  18
ATOM     17  C   UNL     1      46.737  -1.104   7.262  0.00  0.00    +0.000 C 
ATOM     18  O   UNL     1      46.385  -0.070   8.173  0.00  0.00    +0.000 OA
ENDBRANCH  11  18
ENDBRANCH  10  16
ENDBRANCH   8  10
ENDBRANCH   7   8
ENDBRANCH   1   7
BRANCH   4  19
ATOM     19  C   UNL     1      46.761   7.906  13.196  0.00  0.00    +0.000 C 
BRANCH  19  20
ATOM     20  N   UNL     1      47.388   7.458  14.414  0.00  0.00    +0.000 N 
ATOM     21  C   UNL     1      48.646   6.916  14.421  0.00  0.00    +0.000 C 
ATOM     22  O   UNL     1      49.347   6.885  13.413  0.00  0.00    +0.000 OA
ATOM     23  H   UNL     1      46.797   7.303  15.220  0.00  0.00    +0.000 HD
BRANCH  21  24
ATOM     24  C   UNL     1      49.140   6.438  15.720  0.00  0.00    +0.000 A 
ATOM     25  C   UNL     1      50.265   7.037  16.270  0.00  0.00    +0.000 A 
ATOM     26  S   UNL     1      50.671   6.439  17.809  0.00  0.00    +0.000 S 
ATOM     27  C   UNL     1      49.394   5.319  17.764  0.00  0.00    +0.000 A 
ATOM     28  N   UNL     1      49.214   4.489  18.813  0.00  0.00    +0.000 NA
ATOM     29  C   UNL     1      48.196   3.628  18.668  0.00  0.00    +0.000 A 
ATOM     30  C   UNL     1      47.377   3.545  17.562  0.00  0.00    +0.000 A 
ATOM     31  C   UNL     1      47.589   4.419  16.494  0.00  0.00    +0.000 A 
ATOM     32  C   UNL     1      48.640   5.377  16.594  0.00  0.00    +0.000 A 
BRANCH  31  33
ATOM     33  O   UNL     1      46.846   4.400  15.342  0.00  0.00    +0.000 OA
ATOM     34  C   UNL     1      47.205   3.462  14.334  0.00  0.00    +0.000 C 
ENDBRANCH  31  33
ENDBRANCH  21  24
ENDBRANCH  19  20
ENDBRANCH   4  19
TORSDOF 9
ENDMDL
MODEL 2
REMARK VINA RESULT:    -6.697      1.724      2.633
REMARK INTER + INTRA:         -11.827
REMARK INTER:                 -10.585
REMARK INTRA:                  -1.242
REMARK UNBOUND:                -1.607
REMARK  Name = 
REMARK  11 active torsions:
REMARK  status: ('A' for Active; 'I' for Inactive)
REMARK    1  A    between atoms: C_1  and  O_2
REMARK    2  A    between atoms: O_2  and  C_3
REMARK    3  A    between atoms: C_8  and  C_9
REMARK    4  A    between atoms: C_9  and  N_10
REMARK    5  A    between atoms: N_10  and  C_11
REMARK    6  A    between atoms: C_11  and  C_12
REMARK    7  A    between atoms: C_15  and  C_16
REMARK    8  A    between atoms: C_16  and  N_17
REMARK    9  A    between atoms: C_18  and  C_20
REMARK   10  A    between atoms: C_27  and  O_28
REMARK   11  A    between atoms: O_28  and  C_29
REMARK                            x       y       z     vdW  Elec       q    Type
REMARK                         _______ _______ _______ _____ _____    ______ ____
ROOT
ATOM      1  C   UNL     1      45.008   4.684  11.495  0.00  0.00    +0.000 A 
ATOM      2  C   UNL     1      45.567   5.787  10.833  0.00  0.00    +0.000 A 
ATOM      3  C   UNL     1      46.414   6.672  11.507  0.00  0.00    +0.000 A 
ATOM      4  C   UNL     1      46.730   6.466  12.855  0.00  0.00    +0.000 A 
ATOM      5  C   UNL     1      46.164   5.370  13.519  0.00  0.00    +0.000 A 
ATOM      6  C   UNL     1      45.307   4.492  12.849  0.00  0.00    +0.000 A 
ENDROOT
BRANCH   1   7
ATOM      7  C   UNL     1      44.122   3.707  10.754  0.00  0.00    +0.000 C 
BRANCH   7   8
ATOM      8  N   UNL     1      44.795   2.447  10.428  0.00  0.00    +0.000 NA
ATOM      9  H   UNL     1      45.802   2.581  10.508  0.00  0.00    +0.000 HD
BRANCH   8  10
ATOM     10  C   UNL     1      44.517   2.019   9.050  0.00  0.00    +0.000 C 
BRANCH  10  16
ATOM     11  C   UNL     1      46.601   1.304   7.747  0.00  0.00    +0.000 A 
ATOM     12  C   UNL     1      47.715   1.653   6.970  0.00  0.00    +0.000 A 
ATOM     13  C   UNL     1      47.931   2.977   6.585  0.00  0.00    +0.000 A 
ATOM     14  C   UNL     1      47.029   3.967   6.955  0.00  0.00    +0.000 A 
ATOM     15  C   UNL     1      45.917   3.633   7.724  0.00  0.00    +0.000 A 
ATOM     16  C   UNL     1      45.687   2.304   8.130  0.00  0.00    +0.000 A 
BRANCH  11  18
ATOM     17  C   UNL     1      46.832  -1.030   7.352  0.00  0.00    +0.000 C 
ATOM     18  O   UNL     1      46.319   0.026   8.154  0.00  0.00    +0.000 OA
ENDBRANCH  11  18
ENDBRANCH  10  16
ENDBRANCH   8  10
ENDBRANCH   7   8
ENDBRANCH   1   7
BRANCH   4  19
ATOM     19  C   UNL     1      47.624   7.428  13.594  0.00  0.00    +0.000 C 
BRANCH  19  20
ATOM     20  N   UNL     1      47.806   7.017  14.963  0.00  0.00    +0.000 N 
ATOM     21  C   UNL     1      49.038   6.673  15.455  0.00  0.00    +0.000 C 
ATOM     22  O   UNL     1      50.063   6.802  14.791  0.00  0.00    +0.000 OA
ATOM     23  H   UNL     1      46.987   6.732  15.483  0.00  0.00    +0.000 HD
BRANCH  21  24
ATOM     24  C   UNL     1      49.073   6.209  16.849  0.00  0.00    +0.000 A 
ATOM     25  C   UNL     1      48.570   4.949  17.148  0.00  0.00    +0.000 A 
ATOM     26  S   UNL     1      48.752   4.514  18.781  0.00  0.00    +0.000 S 
ATOM     27  C   UNL     1      49.453   6.016  19.154  0.00  0.00    +0.000 A 
ATOM     28  N   UNL     1      49.828   6.266  20.427  0.00  0.00    +0.000 NA
ATOM     29  C   UNL     1      50.346   7.488  20.620  0.00  0.00    +0.000 A 
ATOM     30  C   UNL     1      50.498   8.450  19.645  0.00  0.00    +0.000 A 
ATOM     31  C   UNL     1      50.102   8.159  18.337  0.00  0.00    +0.000 A 
ATOM     32  C   UNL     1      49.564   6.868  18.058  0.00  0.00    +0.000 A 
BRANCH  31  33
ATOM     33  O   UNL     1      50.188   9.056  17.304  0.00  0.00    +0.000 OA
ATOM     34  C   UNL     1      49.296  10.164  17.307  0.00  0.00    +0.000 C 
ENDBRANCH  31  33
ENDBRANCH  21  24
ENDBRANCH  19  20
ENDBRANCH   4  19
TORSDOF 9
ENDMDL
MODEL 3
REMARK VINA RESULT:    -6.603      5.199      9.513
REMARK INTER + INTRA:         -11.684
REMARK INTER:                 -10.424
REMARK INTRA:                  -1.260
REMARK UNBOUND:                -1.607
REMARK  Name = 
REMARK  11 active torsions:
REMARK  status: ('A' for Active; 'I' for Inactive)
REMARK    1  A    between atoms: C_1  and  O_2
REMARK    2  A    between atoms: O_2  and  C_3
REMARK    3  A    between atoms: C_8  and  C_9
REMARK    4  A    between atoms: C_9  and  N_10
REMARK    5  A    between atoms: N_10  and  C_11
REMARK    6  A    between atoms: C_11  and  C_12
REMARK    7  A    between atoms: C_15  and  C_16
REMARK    8  A    between atoms: C_16  and  N_17
REMARK    9  A    between atoms: C_18  and  C_20
REMARK   10  A    between atoms: C_27  and  O_28
REMARK   11  A    between atoms: O_28  and  C_29
REMARK                            x       y       z     vdW  Elec       q    Type
REMARK                         _______ _______ _______ _____ _____    ______ ____
ROOT
ATOM      1  C   UNL     1      51.453   2.970  17.779  0.00  0.00    +0.000 A 
ATOM      2  C   UNL     1      50.775   1.917  17.146  0.00  0.00    +0.000 A 
ATOM      3  C   UNL     1      49.412   2.019  16.851  0.00  0.00    +0.000 A 
ATOM      4  C   UNL     1      48.700   3.180  17.171  0.00  0.00    +0.000 A 
ATOM      5  C   UNL     1      49.374   4.228  17.812  0.00  0.00    +0.000 A 
ATOM      6  C   UNL     1      50.734   4.122  18.118  0.00  0.00    +0.000 A 
ENDROOT
BRANCH   1   7
ATOM      7  C   UNL     1      52.935   2.874  18.063  0.00  0.00    +0.000 C 
BRANCH   7   8
ATOM      8  N   UNL     1      53.343   1.567  18.585  0.00  0.00    +0.000 NA
ATOM      9  H   UNL     1      53.379   1.615  19.602  0.00  0.00    +0.000 HD
BRANCH   8  10
ATOM     10  C   UNL     1      54.682   1.183  18.116  0.00  0.00    +0.000 C 
BRANCH  10  16
ATOM     11  C   UNL     1      54.734  -1.331  18.594  0.00  0.00    +0.000 A 
ATOM     12  C   UNL     1      54.866  -2.645  18.123  0.00  0.00    +0.000 A 
ATOM     13  C   UNL     1      55.000  -2.904  16.759  0.00  0.00    +0.000 A 
ATOM     14  C   UNL     1      54.986  -1.858  15.845  0.00  0.00    +0.000 A 
ATOM     15  C   UNL     1      54.850  -0.548  16.300  0.00  0.00    +0.000 A 
ATOM     16  C   UNL     1      54.724  -0.266  17.674  0.00  0.00    +0.000 A 
BRANCH  11  18
ATOM     17  C   UNL     1      54.717  -2.057  20.860  0.00  0.00    +0.000 C 
ATOM     18  O   UNL     1      54.587  -1.000  19.917  0.00  0.00    +0.000 OA
ENDBRANCH  11  18
ENDBRANCH  10  16
ENDBRANCH   8  10
ENDBRANCH   7   8
ENDBRANCH   1   7
BRANCH   4  19
ATOM     19  C   UNL     1      47.226   3.287  16.876  0.00  0.00    +0.000 C 
BRANCH  19  20
ATOM     20  N   UNL     1      46.957   4.379  15.975  0.00  0.00    +0.000 N 
ATOM     21  C   UNL     1      47.049   4.232  14.617  0.00  0.00    +0.000 C 
ATOM     22  O   UNL     1      47.255   3.141  14.092  0.00  0.00    +0.000 OA
ATOM     23  H   UNL     1      46.959   5.316  16.356  0.00  0.00    +0.000 HD
BRANCH  21  24
ATOM     24  C   UNL     1      46.814   5.442  13.816  0.00  0.00    +0.000 A 
ATOM     25  C   UNL     1      47.778   6.441  13.814  0.00  0.00    +0.000 A 
ATOM     26  S   UNL     1      47.411   7.741  12.781  0.00  0.00    +0.000 S 
ATOM     27  C   UNL     1      45.924   7.040  12.349  0.00  0.00    +0.000 A 
ATOM     28  N   UNL     1      45.121   7.690  11.480  0.00  0.00    +0.000 NA
ATOM     29  C   UNL     1      43.963   7.066  11.225  0.00  0.00    +0.000 A 
ATOM     30  C   UNL     1      43.567   5.868  11.781  0.00  0.00    +0.000 A 
ATOM     31  C   UNL     1      44.421   5.219  12.675  0.00  0.00    +0.000 A 
ATOM     32  C   UNL     1      45.681   5.818  12.971  0.00  0.00    +0.000 A 
BRANCH  31  33
ATOM     33  O   UNL     1      44.109   4.039  13.298  0.00  0.00    +0.000 OA
ATOM     34  C   UNL     1      43.664   2.956  12.489  0.00  0.00    +0.000 C 
ENDBRANCH  31  33
ENDBRANCH  21  24
ENDBRANCH  19  20
ENDBRANCH   4  19
TORSDOF 9
ENDMDL
MODEL 4
REMARK VINA RESULT:    -6.581      3.108      5.377
REMARK INTER + INTRA:         -11.651
REMARK INTER:                 -10.485
REMARK INTRA:                  -1.166
REMARK UNBOUND:                -1.607
REMARK  Name = 
REMARK  11 active torsions:
REMARK  status: ('A' for Active; 'I' for Inactive)
REMARK    1  A    between atoms: C_1  and  O_2
REMARK    2  A    between atoms: O_2  and  C_3
REMARK    3  A    between atoms: C_8  and  C_9
REMARK    4  A    between atoms: C_9  and  N_10
REMARK    5  A    between atoms: N_10  and  C_11
REMARK    6  A    between atoms: C_11  and  C_12
REMARK    7  A    between atoms: C_15  and  C_16
REMARK    8  A    between atoms: C_16  and  N_17
REMARK    9  A    between atoms: C_18  and  C_20
REMARK   10  A    between atoms: C_27  and  O_28
REMARK   11  A    between atoms: O_28  and  C_29
REMARK                            x       y       z     vdW  Elec       q    Type
REMARK                         _______ _______ _______ _____ _____    ______ ____
ROOT
ATOM      1  C   UNL     1      47.360   5.921  14.144  0.00  0.00    +0.000 A 
ATOM      2  C   UNL     1      46.809   4.632  14.100  0.00  0.00    +0.000 A 
ATOM      3  C   UNL     1      46.981   3.744  15.166  0.00  0.00    +0.000 A 
ATOM      4  C   UNL     1      47.697   4.130  16.305  0.00  0.00    +0.000 A 
ATOM      5  C   UNL     1      48.256   5.414  16.346  0.00  0.00    +0.000 A 
ATOM      6  C   UNL     1      48.094   6.299  15.275  0.00  0.00    +0.000 A 
ENDROOT
BRANCH   1   7
ATOM      7  C   UNL     1      47.141   6.894  13.007  0.00  0.00    +0.000 C 
BRANCH   7   8
ATOM      8  N   UNL     1      47.052   6.244  11.697  0.00  0.00    +0.000 NA
ATOM      9  H   UNL     1      47.742   6.662  11.074  0.00  0.00    +0.000 HD
BRANCH   8  10
ATOM     10  C   UNL     1      45.732   6.435  11.079  0.00  0.00    +0.000 C 
BRANCH  10  16
ATOM     11  C   UNL     1      44.527   4.177  11.085  0.00  0.00    +0.000 A 
ATOM     12  C   UNL     1      44.188   2.990  10.420  0.00  0.00    +0.000 A 
ATOM     13  C   UNL     1      44.567   2.781   9.093  0.00  0.00    +0.000 A 
ATOM     14  C   UNL     1      45.273   3.762   8.408  0.00  0.00    +0.000 A 
ATOM     15  C   UNL     1      45.612   4.947   9.055  0.00  0.00    +0.000 A 
ATOM     16  C   UNL     1      45.248   5.171  10.397  0.00  0.00    +0.000 A 
BRANCH  11  18
ATOM     17  C   UNL     1      42.892   5.017  12.595  0.00  0.00    +0.000 C 
ATOM     18  O   UNL     1      44.182   4.456  12.382  0.00  0.00    +0.000 OA
ENDBRANCH  11  18
ENDBRANCH  10  16
ENDBRANCH   8  10
ENDBRANCH   7   8
ENDBRANCH   1   7
BRANCH   4  19
ATOM     19  C   UNL     1      47.905   3.171  17.448  0.00  0.00    +0.000 C 
BRANCH  19  20
ATOM     20  N   UNL     1      49.307   3.016  17.745  0.00  0.00    +0.000 N 
ATOM     21  C   UNL     1      50.112   2.184  17.013  0.00  0.00    +0.000 C 
ATOM     22  O   UNL     1      49.711   1.615  16.001  0.00  0.00    +0.000 OA
ATOM     23  H   UNL     1      49.632   3.317  18.654  0.00  0.00    +0.000 HD
BRANCH  21  24
ATOM     24  C   UNL     1      51.506   2.067  17.464  0.00  0.00    +0.000 A 
ATOM     25  C   UNL     1      52.055   0.802  17.620  0.00  0.00    +0.000 A 
ATOM     26  S   UNL     1      53.695   0.822  18.066  0.00  0.00    +0.000 S 
ATOM     27  C   UNL     1      53.710   2.520  18.124  0.00  0.00    +0.000 A 
ATOM     28  N   UNL     1      54.851   3.154  18.463  0.00  0.00    +0.000 NA
ATOM     29  C   UNL     1      54.750   4.491  18.504  0.00  0.00    +0.000 A 
ATOM     30  C   UNL     1      53.602   5.209  18.242  0.00  0.00    +0.000 A 
ATOM     31  C   UNL     1      52.438   4.522  17.892  0.00  0.00    +0.000 A 
ATOM     32  C   UNL     1      52.483   3.100  17.807  0.00  0.00    +0.000 A 
BRANCH  31  33
ATOM     33  O   UNL     1      51.242   5.143  17.638  0.00  0.00    +0.000 OA
ATOM     34  C   UNL     1      51.160   6.546  17.855  0.00  0.00    +0.000 C 
ENDBRANCH  31  33
ENDBRANCH  21  24
ENDBRANCH  19  20
ENDBRANCH   4  19
TORSDOF 9
ENDMDL
MODEL 5
REMARK VINA RESULT:    -6.498      1.962      2.686
REMARK INTER + INTRA:         -11.524
REMARK INTER:                 -10.109
REMARK INTRA:                  -1.415
REMARK UNBOUND:                -1.607
REMARK  Name = 
REMARK  11 active torsions:
REMARK  status: ('A' for Active; 'I' for Inactive)
REMARK    1  A    between atoms: C_1  and  O_2
REMARK    2  A    between atoms: O_2  and  C_3
REMARK    3  A    between atoms: C_8  and  C_9
REMARK    4  A    between atoms: C_9  and  N_10
REMARK    5  A    between atoms: N_10  and  C_11
REMARK    6  A    between atoms: C_11  and  C_12
REMARK    7  A    between atoms: C_15  and  C_16
REMARK    8  A    between atoms: C_16  and  N_17
REMARK    9  A    between atoms: C_18  and  C_20
REMARK   10  A    between atoms: C_27  and  O_28
REMARK   11  A    between atoms: O_28  and  C_29
REMARK                            x       y       z     vdW  Elec       q    Type
REMARK                         _______ _______ _______ _____ _____    ______ ____
ROOT
ATOM      1  C   UNL     1      44.879   4.413  11.727  0.00  0.00    +0.000 A 
ATOM      2  C   UNL     1      45.675   4.411  12.882  0.00  0.00    +0.000 A 
ATOM      3  C   UNL     1      46.252   5.593  13.354  0.00  0.00    +0.000 A 
ATOM      4  C   UNL     1      46.037   6.806  12.688  0.00  0.00    +0.000 A 
ATOM      5  C   UNL     1      45.249   6.806  11.529  0.00  0.00    +0.000 A 
ATOM      6  C   UNL     1      44.681   5.622  11.050  0.00  0.00    +0.000 A 
ENDROOT
BRANCH   1   7
ATOM      7  C   UNL     1      44.223   3.140  11.238  0.00  0.00    +0.000 C 
BRANCH   7   8
ATOM      8  N   UNL     1      44.065   3.090   9.783  0.00  0.00    +0.000 NA
ATOM      9  H   UNL     1      43.071   3.073   9.560  0.00  0.00    +0.000 HD
BRANCH   8  10
ATOM     10  C   UNL     1      44.665   1.878   9.207  0.00  0.00    +0.000 C 
BRANCH  10  16
ATOM     11  C   UNL     1      46.668   1.259   7.739  0.00  0.00    +0.000 A 
ATOM     12  C   UNL     1      47.694   1.656   6.871  0.00  0.00    +0.000 A 
ATOM     13  C   UNL     1      47.811   2.986   6.464  0.00  0.00    +0.000 A 
ATOM     14  C   UNL     1      46.894   3.933   6.905  0.00  0.00    +0.000 A 
ATOM     15  C   UNL     1      45.868   3.550   7.764  0.00  0.00    +0.000 A 
ATOM     16  C   UNL     1      45.740   2.215   8.193  0.00  0.00    +0.000 A 
BRANCH  11  18
ATOM     17  C   UNL     1      46.737  -1.064   7.231  0.00  0.00    +0.000 C 
ATOM     18  O   UNL     1      46.484  -0.029   8.172  0.00  0.00    +0.000 OA
ENDBRANCH  11  18
ENDBRANCH  10  16
ENDBRANCH   8  10
ENDBRANCH   7   8
ENDBRANCH   1   7
BRANCH   4  19
ATOM     19  C   UNL     1      46.674   8.079  13.179  0.00  0.00    +0.000 C 
BRANCH  19  20
ATOM     20  N   UNL     1      48.048   7.860  13.553  0.00  0.00    +0.000 N 
ATOM     21  C   UNL     1      48.924   8.900  13.721  0.00  0.00    +0.000 C 
ATOM     22  O   UNL     1      48.561  10.072  13.672  0.00  0.00    +0.000 OA
ATOM     23  H   UNL     1      48.427   6.930  13.433  0.00  0.00    +0.000 HD
BRANCH  21  24
ATOM     24  C   UNL     1      50.312   8.534  14.037  0.00  0.00    +0.000 A 
ATOM     25  C   UNL     1      51.340   9.098  13.292  0.00  0.00    +0.000 A 
ATOM     26  S   UNL     1      52.891   8.648  13.821  0.00  0.00    +0.000 S 
ATOM     27  C   UNL     1      52.242   7.638  15.023  0.00  0.00    +0.000 A 
ATOM     28  N   UNL     1      53.081   6.950  15.825  0.00  0.00    +0.000 NA
ATOM     29  C   UNL     1      52.469   6.164  16.723  0.00  0.00    +0.000 A 
ATOM     30  C   UNL     1      51.104   6.023  16.855  0.00  0.00    +0.000 A 
ATOM     31  C   UNL     1      50.262   6.750  16.011  0.00  0.00    +0.000 A 
ATOM     32  C   UNL     1      50.849   7.624  15.049  0.00  0.00    +0.000 A 
BRANCH  31  33
ATOM     33  O   UNL     1      48.894   6.661  16.046  0.00  0.00    +0.000 OA
ATOM     34  C   UNL     1      48.319   5.446  16.511  0.00  0.00    +0.000 C 
ENDBRANCH  31  33
ENDBRANCH  21  24
ENDBRANCH  19  20
ENDBRANCH   4  19
TORSDOF 9
ENDMDL
MODEL 6
REMARK VINA RESULT:    -6.493      2.466      3.420
REMARK INTER + INTRA:         -11.516
REMARK INTER:                 -10.901
REMARK INTRA:                  -0.616
REMARK UNBOUND:                -1.607
REMARK  Name = 
REMARK  11 active torsions:
REMARK  status: ('A' for Active; 'I' for Inactive)
REMARK    1  A    between atoms: C_1  and  O_2
REMARK    2  A    between atoms: O_2  and  C_3
REMARK    3  A    between atoms: C_8  and  C_9
REMARK    4  A    between atoms: C_9  and  N_10
REMARK    5  A    between atoms: N_10  and  C_11
REMARK    6  A    between atoms: C_11  and  C_12
REMARK    7  A    between atoms: C_15  and  C_16
REMARK    8  A    between atoms: C_16  and  N_17
REMARK    9  A    between atoms: C_18  and  C_20
REMARK   10  A    between atoms: C_27  and  O_28
REMARK   11  A    between atoms: O_28  and  C_29
REMARK                            x       y       z     vdW  Elec       q    Type
REMARK                         _______ _______ _______ _____ _____    ______ ____
ROOT
ATOM      1  C   UNL     1      45.309   4.184  12.155  0.00  0.00    +0.000 A 
ATOM      2  C   UNL     1      46.152   3.649  13.140  0.00  0.00    +0.000 A 
ATOM      3  C   UNL     1      47.060   4.464  13.823  0.00  0.00    +0.000 A 
ATOM      4  C   UNL     1      47.136   5.833  13.546  0.00  0.00    +0.000 A 
ATOM      5  C   UNL     1      46.301   6.367  12.555  0.00  0.00    +0.000 A 
ATOM      6  C   UNL     1      45.401   5.550  11.862  0.00  0.00    +0.000 A 
ENDROOT
BRANCH   1   7
ATOM      7  C   UNL     1      44.301   3.310  11.442  0.00  0.00    +0.000 C 
BRANCH   7   8
ATOM      8  N   UNL     1      44.293   3.499   9.989  0.00  0.00    +0.000 NA
ATOM      9  H   UNL     1      43.405   3.921   9.717  0.00  0.00    +0.000 HD
BRANCH   8  10
ATOM     10  C   UNL     1      44.413   2.224   9.269  0.00  0.00    +0.000 C 
BRANCH  10  16
ATOM     11  C   UNL     1      46.114   3.373   7.741  0.00  0.00    +0.000 A 
ATOM     12  C   UNL     1      47.184   3.274   6.840  0.00  0.00    +0.000 A 
ATOM     13  C   UNL     1      47.758   2.037   6.545  0.00  0.00    +0.000 A 
ATOM     14  C   UNL     1      47.284   0.884   7.159  0.00  0.00    +0.000 A 
ATOM     15  C   UNL     1      46.225   0.969   8.059  0.00  0.00    +0.000 A 
ATOM     16  C   UNL     1      45.626   2.207   8.362  0.00  0.00    +0.000 A 
BRANCH  11  18
ATOM     17  C   UNL     1      46.312   5.515   8.755  0.00  0.00    +0.000 C 
ATOM     18  O   UNL     1      45.507   4.552   8.087  0.00  0.00    +0.000 OA
ENDBRANCH  11  18
ENDBRANCH  10  16
ENDBRANCH   8  10
ENDBRANCH   7   8
ENDBRANCH   1   7
BRANCH   4  19
ATOM     19  C   UNL     1      48.127   6.712  14.263  0.00  0.00    +0.000 C 
BRANCH  19  20
ATOM     20  N   UNL     1      47.994   6.583  15.692  0.00  0.00    +0.000 N 
ATOM     21  C   UNL     1      49.040   6.181  16.481  0.00  0.00    +0.000 C 
ATOM     22  O   UNL     1      50.170   6.018  16.029  0.00  0.00    +0.000 OA
ATOM     23  H   UNL     1      47.060   6.535  16.077  0.00  0.00    +0.000 HD
BRANCH  21  24
ATOM     24  C   UNL     1      48.750   6.026  17.913  0.00  0.00    +0.000 A 
ATOM     25  C   UNL     1      48.978   4.795  18.513  0.00  0.00    +0.000 A 
ATOM     26  S   UNL     1      48.678   4.785  20.186  0.00  0.00    +0.000 S 
ATOM     27  C   UNL     1      48.176   6.408  20.154  0.00  0.00    +0.000 A 
ATOM     28  N   UNL     1      47.776   6.993  21.303  0.00  0.00    +0.000 NA
ATOM     29  C   UNL     1      47.376   8.266  21.165  0.00  0.00    +0.000 A 
ATOM     30  C   UNL     1      47.345   8.965  19.977  0.00  0.00    +0.000 A 
ATOM     31  C   UNL     1      47.767   8.331  18.806  0.00  0.00    +0.000 A 
ATOM     32  C   UNL     1      48.228   6.984  18.887  0.00  0.00    +0.000 A 
BRANCH  31  33
ATOM     33  O   UNL     1      47.751   8.931  17.573  0.00  0.00    +0.000 OA
ATOM     34  C   UNL     1      48.381  10.199  17.442  0.00  0.00    +0.000 C 
ENDBRANCH  31  33
ENDBRANCH  21  24
ENDBRANCH  19  20
ENDBRANCH   4  19
TORSDOF 9
ENDMDL
MODEL 7
REMARK VINA RESULT:    -6.307      4.218      9.803
REMARK INTER + INTRA:         -11.232
REMARK INTER:                  -8.617
REMARK INTRA:                  -2.615
REMARK UNBOUND:                -1.607
REMARK  Name = 
REMARK  11 active torsions:
REMARK  status: ('A' for Active; 'I' for Inactive)
REMARK    1  A    between atoms: C_1  and  O_2
REMARK    2  A    between atoms: O_2  and  C_3
REMARK    3  A    between atoms: C_8  and  C_9
REMARK    4  A    between atoms: C_9  and  N_10
REMARK    5  A    between atoms: N_10  and  C_11
REMARK    6  A    between atoms: C_11  and  C_12
REMARK    7  A    between atoms: C_15  and  C_16
REMARK    8  A    between atoms: C_16  and  N_17
REMARK    9  A    between atoms: C_18  and  C_20
REMARK   10  A    between atoms: C_27  and  O_28
REMARK   11  A    between atoms: O_28  and  C_29
REMARK                            x       y       z     vdW  Elec       q    Type
REMARK                         _______ _______ _______ _____ _____    ______ ____
ROOT
ATOM      1  C   UNL     1      48.291   5.740  20.378  0.00  0.00    +0.000 A 
ATOM      2  C   UNL     1      47.161   5.991  19.586  0.00  0.00    +0.000 A 
ATOM      3  C   UNL     1      46.976   5.326  18.371  0.00  0.00    +0.000 A 
ATOM      4  C   UNL     1      47.912   4.385  17.926  0.00  0.00    +0.000 A 
ATOM      5  C   UNL     1      49.046   4.140  18.712  0.00  0.00    +0.000 A 
ATOM      6  C   UNL     1      49.237   4.815  19.921  0.00  0.00    +0.000 A 
ENDROOT
BRANCH   1   7
ATOM      7  C   UNL     1      48.470   6.433  21.710  0.00  0.00    +0.000 C 
BRANCH   7   8
ATOM      8  N   UNL     1      48.271   7.883  21.642  0.00  0.00    +0.000 NA
ATOM      9  H   UNL     1      47.439   8.075  21.086  0.00  0.00    +0.000 HD
BRANCH   8  10
ATOM     10  C   UNL     1      49.400   8.562  20.992  0.00  0.00    +0.000 C 
BRANCH  10  16
ATOM     11  C   UNL     1      48.017   9.927  19.326  0.00  0.00    +0.000 A 
ATOM     12  C   UNL     1      47.681  10.226  17.998  0.00  0.00    +0.000 A 
ATOM     13  C   UNL     1      48.349   9.613  16.937  0.00  0.00    +0.000 A 
ATOM     14  C   UNL     1      49.373   8.707  17.188  0.00  0.00    +0.000 A 
ATOM     15  C   UNL     1      49.719   8.405  18.502  0.00  0.00    +0.000 A 
ATOM     16  C   UNL     1      49.050   9.006  19.586  0.00  0.00    +0.000 A 
BRANCH  11  18
ATOM     17  C   UNL     1      46.002  10.663  20.355  0.00  0.00    +0.000 C 
ATOM     18  O   UNL     1      47.413  10.495  20.418  0.00  0.00    +0.000 OA
ENDBRANCH  11  18
ENDBRANCH  10  16
ENDBRANCH   8  10
ENDBRANCH   7   8
ENDBRANCH   1   7
BRANCH   4  19
ATOM     19  C   UNL     1      47.731   3.680  16.607  0.00  0.00    +0.000 C 
BRANCH  19  20
ATOM     20  N   UNL     1      46.929   4.468  15.705  0.00  0.00    +0.000 N 
ATOM     21  C   UNL     1      46.815   4.150  14.377  0.00  0.00    +0.000 C 
ATOM     22  O   UNL     1      47.296   3.121  13.910  0.00  0.00    +0.000 OA
ATOM     23  H   UNL     1      46.667   5.400  15.998  0.00  0.00    +0.000 HD
BRANCH  21  24
ATOM     24  C   UNL     1      46.022   5.075  13.555  0.00  0.00    +0.000 A 
ATOM     25  C   UNL     1      44.866   4.605  12.944  0.00  0.00    +0.000 A 
ATOM     26  S   UNL     1      44.009   5.803  12.095  0.00  0.00    +0.000 S 
ATOM     27  C   UNL     1      45.183   6.974  12.465  0.00  0.00    +0.000 A 
ATOM     28  N   UNL     1      45.022   8.232  12.004  0.00  0.00    +0.000 NA
ATOM     29  C   UNL     1      46.015   9.072  12.329  0.00  0.00    +0.000 A 
ATOM     30  C   UNL     1      47.134   8.733  13.060  0.00  0.00    +0.000 A 
ATOM     31  C   UNL     1      47.271   7.424  13.524  0.00  0.00    +0.000 A 
ATOM     32  C   UNL     1      46.237   6.485  13.234  0.00  0.00    +0.000 A 
BRANCH  31  33
ATOM     33  O   UNL     1      48.356   6.983  14.237  0.00  0.00    +0.000 OA
ATOM     34  C   UNL     1      49.649   7.368  13.786  0.00  0.00    +0.000 C 
ENDBRANCH  31  33
ENDBRANCH  21  24
ENDBRANCH  19  20
ENDBRANCH   4  19
TORSDOF 9
ENDMDL
MODEL 8
REMARK VINA RESULT:    -6.294      2.666      4.037
REMARK INTER + INTRA:         -11.212
REMARK INTER:                  -9.798
REMARK INTRA:                  -1.414
REMARK UNBOUND:                -1.607
REMARK  Name = 
REMARK  11 active torsions:
REMARK  status: ('A' for Active; 'I' for Inactive)
REMARK    1  A    between atoms: C_1  and  O_2
REMARK    2  A    between atoms: O_2  and  C_3
REMARK    3  A    between atoms: C_8  and  C_9
REMARK    4  A    between atoms: C_9  and  N_10
REMARK    5  A    between atoms: N_10  and  C_11
REMARK    6  A    between atoms: C_11  and  C_12
REMARK    7  A    between atoms: C_15  and  C_16
REMARK    8  A    between atoms: C_16  and  N_17
REMARK    9  A    between atoms: C_18  and  C_20
REMARK   10  A    between atoms: C_27  and  O_28
REMARK   11  A    between atoms: O_28  and  C_29
REMARK                            x       y       z     vdW  Elec       q    Type
REMARK                         _______ _______ _______ _____ _____    ______ ____
ROOT
ATOM      1  C   UNL     1      47.176   7.421  13.076  0.00  0.00    +0.000 A 
ATOM      2  C   UNL     1      47.738   6.306  13.715  0.00  0.00    +0.000 A 
ATOM      3  C   UNL     1      48.470   6.452  14.896  0.00  0.00    +0.000 A 
ATOM      4  C   UNL     1      48.646   7.715  15.473  0.00  0.00    +0.000 A 
ATOM      5  C   UNL     1      48.093   8.831  14.830  0.00  0.00    +0.000 A 
ATOM      6  C   UNL     1      47.370   8.687  13.642  0.00  0.00    +0.000 A 
ENDROOT
BRANCH   1   7
ATOM      7  C   UNL     1      46.351   7.257  11.819  0.00  0.00    +0.000 C 
BRANCH   7   8
ATOM      8  N   UNL     1      46.132   5.857  11.447  0.00  0.00    +0.000 NA
ATOM      9  H   UNL     1      46.987   5.488  11.033  0.00  0.00    +0.000 HD
BRANCH   8  10
ATOM     10  C   UNL     1      45.064   5.716  10.447  0.00  0.00    +0.000 C 
BRANCH  10  16
ATOM     11  C   UNL     1      45.071   3.175  10.144  0.00  0.00    +0.000 A 
ATOM     12  C   UNL     1      45.343   2.058   9.342  0.00  0.00    +0.000 A 
ATOM     13  C   UNL     1      45.794   2.213   8.030  0.00  0.00    +0.000 A 
ATOM     14  C   UNL     1      45.962   3.485   7.497  0.00  0.00    +0.000 A 
ATOM     15  C   UNL     1      45.691   4.603   8.282  0.00  0.00    +0.000 A 
ATOM     16  C   UNL     1      45.245   4.466   9.610  0.00  0.00    +0.000 A 
BRANCH  11  18
ATOM     17  C   UNL     1      43.253   2.738  11.614  0.00  0.00    +0.000 C 
ATOM     18  O   UNL     1      44.617   3.101  11.435  0.00  0.00    +0.000 OA
ENDBRANCH  11  18
ENDBRANCH  10  16
ENDBRANCH   8  10
ENDBRANCH   7   8
ENDBRANCH   1   7
BRANCH   4  19
ATOM     19  C   UNL     1      49.453   7.883  16.734  0.00  0.00    +0.000 C 
BRANCH  19  20
ATOM     20  N   UNL     1      50.316   6.749  16.951  0.00  0.00    +0.000 N 
ATOM     21  C   UNL     1      50.676   6.347  18.210  0.00  0.00    +0.000 C 
ATOM     22  O   UNL     1      50.196   6.859  19.219  0.00  0.00    +0.000 OA
ATOM     23  H   UNL     1      50.864   6.417  16.168  0.00  0.00    +0.000 HD
BRANCH  21  24
ATOM     24  C   UNL     1      51.614   5.219  18.288  0.00  0.00    +0.000 A 
ATOM     25  C   UNL     1      52.887   5.440  18.796  0.00  0.00    +0.000 A 
ATOM     26  S   UNL     1      53.833   4.032  18.902  0.00  0.00    +0.000 S 
ATOM     27  C   UNL     1      52.595   3.091  18.217  0.00  0.00    +0.000 A 
ATOM     28  N   UNL     1      52.802   1.770  18.033  0.00  0.00    +0.000 NA
ATOM     29  C   UNL     1      51.775   1.123  17.464  0.00  0.00    +0.000 A 
ATOM     30  C   UNL     1      50.589   1.707  17.070  0.00  0.00    +0.000 A 
ATOM     31  C   UNL     1      50.405   3.076  17.276  0.00  0.00    +0.000 A 
ATOM     32  C   UNL     1      51.451   3.818  17.900  0.00  0.00    +0.000 A 
BRANCH  31  33
ATOM     33  O   UNL     1      49.275   3.753  16.898  0.00  0.00    +0.000 OA
ATOM     34  C   UNL     1      48.022   3.098  17.059  0.00  0.00    +0.000 C 
ENDBRANCH  31  33
ENDBRANCH  21  24
ENDBRANCH  19  20
ENDBRANCH   4  19
TORSDOF 9
ENDMDL
MODEL 9
REMARK VINA RESULT:    -6.292      1.785      2.501
REMARK INTER + INTRA:         -11.209
REMARK INTER:                 -10.427
REMARK INTRA:                  -0.782
REMARK UNBOUND:                -1.607
REMARK  Name = 
REMARK  11 active torsions:
REMARK  status: ('A' for Active; 'I' for Inactive)
REMARK    1  A    between atoms: C_1  and  O_2
REMARK    2  A    between atoms: O_2  and  C_3
REMARK    3  A    between atoms: C_8  and  C_9
REMARK    4  A    between atoms: C_9  and  N_10
REMARK    5  A    between atoms: N_10  and  C_11
REMARK    6  A    between atoms: C_11  and  C_12
REMARK    7  A    between atoms: C_15  and  C_16
REMARK    8  A    between atoms: C_16  and  N_17
REMARK    9  A    between atoms: C_18  and  C_20
REMARK   10  A    between atoms: C_27  and  O_28
REMARK   11  A    between atoms: O_28  and  C_29
REMARK                            x       y       z     vdW  Elec       q    Type
REMARK                         _______ _______ _______ _____ _____    ______ ____
ROOT
ATOM      1  C   UNL     1      45.039   4.305  12.114  0.00  0.00    +0.000 A 
ATOM      2  C   UNL     1      46.163   3.979  12.887  0.00  0.00    +0.000 A 
ATOM      3  C   UNL     1      46.954   4.981  13.457  0.00  0.00    +0.000 A 
ATOM      4  C   UNL     1      46.631   6.331  13.278  0.00  0.00    +0.000 A 
ATOM      5  C   UNL     1      45.513   6.657  12.498  0.00  0.00    +0.000 A 
ATOM      6  C   UNL     1      44.729   5.656  11.917  0.00  0.00    +0.000 A 
ENDROOT
BRANCH   1   7
ATOM      7  C   UNL     1      44.163   3.220  11.529  0.00  0.00    +0.000 C 
BRANCH   7   8
ATOM      8  N   UNL     1      44.065   3.278  10.068  0.00  0.00    +0.000 NA
ATOM      9  H   UNL     1      43.103   3.497   9.810  0.00  0.00    +0.000 HD
BRANCH   8  10
ATOM     10  C   UNL     1      44.404   1.991   9.444  0.00  0.00    +0.000 C 
BRANCH  10  16
ATOM     11  C   UNL     1      45.996   3.358   7.979  0.00  0.00    +0.000 A 
ATOM     12  C   UNL     1      47.042   3.397   7.047  0.00  0.00    +0.000 A 
ATOM     13  C   UNL     1      47.672   2.223   6.632  0.00  0.00    +0.000 A 
ATOM     14  C   UNL     1      47.279   0.997   7.155  0.00  0.00    +0.000 A 
ATOM     15  C   UNL     1      46.243   0.946   8.085  0.00  0.00    +0.000 A 
ATOM     16  C   UNL     1      45.589   2.119   8.509  0.00  0.00    +0.000 A 
BRANCH  11  18
ATOM     17  C   UNL     1      46.144   5.557   8.876  0.00  0.00    +0.000 C 
ATOM     18  O   UNL     1      45.338   4.468   8.441  0.00  0.00    +0.000 OA
ENDBRANCH  11  18
ENDBRANCH  10  16
ENDBRANCH   8  10
ENDBRANCH   7   8
ENDBRANCH   1   7
BRANCH   4  19
ATOM     19  C   UNL     1      47.491   7.416  13.871  0.00  0.00    +0.000 C 
BRANCH  19  20
ATOM     20  N   UNL     1      48.635   6.858  14.546  0.00  0.00    +0.000 N 
ATOM     21  C   UNL     1      49.135   7.411  15.696  0.00  0.00    +0.000 C 
ATOM     22  O   UNL     1      48.571   8.338  16.271  0.00  0.00    +0.000 OA
ATOM     23  H   UNL     1      49.225   6.221  14.027  0.00  0.00    +0.000 HD
BRANCH  21  24
ATOM     24  C   UNL     1      50.346   6.784  16.244  0.00  0.00    +0.000 A 
ATOM     25  C   UNL     1      51.532   7.506  16.244  0.00  0.00    +0.000 A 
ATOM     26  S   UNL     1      52.827   6.688  16.982  0.00  0.00    +0.000 S 
ATOM     27  C   UNL     1      51.862   5.320  17.271  0.00  0.00    +0.000 A 
ATOM     28  N   UNL     1      52.410   4.249  17.882  0.00  0.00    +0.000 NA
ATOM     29  C   UNL     1      51.573   3.214  18.041  0.00  0.00    +0.000 A 
ATOM     30  C   UNL     1      50.258   3.186  17.626  0.00  0.00    +0.000 A 
ATOM     31  C   UNL     1      49.720   4.311  16.999  0.00  0.00    +0.000 A 
ATOM     32  C   UNL     1      50.551   5.456  16.821  0.00  0.00    +0.000 A 
BRANCH  31  33
ATOM     33  O   UNL     1      48.433   4.373  16.530  0.00  0.00    +0.000 OA
ATOM     34  C   UNL     1      47.457   3.548  17.153  0.00  0.00    +0.000 C 
ENDBRANCH  31  33
ENDBRANCH  21  24
ENDBRANCH  19  20
ENDBRANCH   4  19
TORSDOF 9
ENDMDL
