MODEL 1
REMARK VINA RESULT:    -7.766      0.000      0.000
REMARK INTER + INTRA:         -12.962
REMARK INTER:                 -11.171
REMARK INTRA:                  -1.790
REMARK UNBOUND:                -1.790
REMARK  Name = 
REMARK  8 active torsions:
REMARK  status: ('A' for Active; 'I' for Inactive)
REMARK    1  A    between atoms: C_2  and  C_22
REMARK    2  A    between atoms: N_3  and  C_4
REMARK    3  A    between atoms: C_4  and  C_5
REMARK    4  A    between atoms: C_8  and  C_9
REMARK    5  A    between atoms: C_9  and  N_10
REMARK    6  A    between atoms: N_10  and  C_11
REMARK    7  A    between atoms: C_11  and  C_12
REMARK    8  A    between atoms: C_12  and  O_13
REMARK                            x       y       z     vdW  Elec       q    Type
REMARK                         _______ _______ _______ _____ _____    ______ ____
ROOT
ATOM      1  C   UNL     1      47.328   8.268  12.908  0.00  0.00    +0.000 A 
ATOM      2  C   UNL     1      45.956   8.436  13.100  0.00  0.00    +0.000 A 
ATOM      3  C   UNL     1      45.040   7.636  12.414  0.00  0.00    +0.000 A 
ATOM      4  C   UNL     1      45.472   6.635  11.535  0.00  0.00    +0.000 A 
ATOM      5  C   UNL     1      46.850   6.508  11.287  0.00  0.00    +0.000 A 
ATOM      6  C   UNL     1      47.764   7.304  11.981  0.00  0.00    +0.000 A 
ENDROOT
BRANCH   1   7
ATOM      7  C   UNL     1      48.303   9.010  13.792  0.00  0.00    +0.000 C 
BRANCH   7  10
ATOM      8  O   UNL     1      50.062   6.944  14.730  0.00  0.00    +0.000 OA
ATOM      9  C   UNL     1      49.146   7.352  15.431  0.00  0.00    +0.000 C 
ATOM     10  N   UNL     1      48.314   8.393  15.096  0.00  0.00    +0.000 N 
ATOM     11  H   UNL     1      47.488   8.541  15.655  0.00  0.00    +0.000 HD
BRANCH   9  12
ATOM     12  C   UNL     1      48.674   6.656  16.624  0.00  0.00    +0.000 A 
ATOM     13  C   UNL     1      48.864   7.156  17.900  0.00  0.00    +0.000 A 
ATOM     14  S   UNL     1      48.699   5.936  19.095  0.00  0.00    +0.000 S 
ATOM     15  C   UNL     1      48.234   4.779  17.931  0.00  0.00    +0.000 A 
ATOM     16  N   UNL     1      48.052   3.466  18.238  0.00  0.00    +0.000 NA
ATOM     17  C   UNL     1      47.633   2.745  17.248  0.00  0.00    +0.000 A 
ATOM     18  N   UNL     1      47.337   3.224  15.995  0.00  0.00    +0.000 N 
ATOM     19  C   UNL     1      47.493   4.543  15.644  0.00  0.00    +0.000 A 
ATOM     20  O   UNL     1      47.132   4.973  14.553  0.00  0.00    +0.000 OA
ATOM     21  C   UNL     1      48.080   5.354  16.687  0.00  0.00    +0.000 A 
ATOM     22  H   UNL     1      46.923   2.625  15.295  0.00  0.00    +0.000 HD
ENDBRANCH   9  12
ENDBRANCH   7  10
ENDBRANCH   1   7
BRANCH   4  23
ATOM     23  C   UNL     1      44.465   5.655  10.946  0.00  0.00    +0.000 C 
BRANCH  23  24
ATOM     24  N   UNL     1      44.935   4.284  10.885  0.00  0.00    +0.000 N 
ATOM     25  C   UNL     1      45.271   3.731   9.673  0.00  0.00    +0.000 A 
ATOM     26  N   UNL     1      45.469   4.540   8.623  0.00  0.00    +0.000 NA
ATOM     27  C   UNL     1      45.961   4.006   7.489  0.00  0.00    +0.000 A 
ATOM     28  C   UNL     1      46.216   2.672   7.336  0.00  0.00    +0.000 A 
ATOM     29  C   UNL     1      45.915   1.900   8.427  0.00  0.00    +0.000 A 
ATOM     30  N   UNL     1      45.455   2.401   9.591  0.00  0.00    +0.000 NA
BRANCH  24  31
ATOM     31  C   UNL     1      44.917   3.448  12.081  0.00  0.00    +0.000 C 
BRANCH  31  32
ATOM     32  C   UNL     1      43.494   2.997  12.448  0.00  0.00    +0.000 C 
BRANCH  32  33
ATOM     33  O   UNL     1      43.059   1.913  11.629  0.00  0.00    +0.000 OA
ATOM     34  H   UNL     1      43.604   1.943  10.822  0.00  0.00    +0.000 HD
ENDBRANCH  32  33
ENDBRANCH  31  32
ENDBRANCH  24  31
ENDBRANCH  23  24
ENDBRANCH   4  23
TORSDOF 8
ENDMDL
MODEL 2
REMARK VINA RESULT:    -7.016      1.499      1.574
REMARK INTER + INTRA:         -11.883
REMARK INTER:                 -10.617
REMARK INTRA:                  -1.266
REMARK UNBOUND:                -1.790
REMARK  Name = 
REMARK  8 active torsions:
REMARK  status: ('A' for Active; 'I' for Inactive)
REMARK    1  A    between atoms: C_2  and  C_22
REMARK    2  A    between atoms: N_3  and  C_4
REMARK    3  A    between atoms: C_4  and  C_5
REMARK    4  A    between atoms: C_8  and  C_9
REMARK    5  A    between atoms: C_9  and  N_10
REMARK    6  A    between atoms: N_10  and  C_11
REMARK    7  A    between atoms: C_11  and  C_12
REMARK    8  A    between atoms: C_12  and  O_13
REMARK                            x       y       z     vdW  Elec       q    Type
REMARK                         _______ _______ _______ _____ _____    ______ ____
ROOT
ATOM      1  C   UNL     1      47.368   8.092  13.543  0.00  0.00    +0.000 A 
ATOM      2  C   UNL     1      46.031   8.443  13.355  0.00  0.00    +0.000 A 
ATOM      3  C   UNL     1      45.269   7.830  12.358  0.00  0.00    +0.000 A 
ATOM      4  C   UNL     1      45.818   6.837  11.538  0.00  0.00    +0.000 A 
ATOM      5  C   UNL     1      47.183   6.529  11.679  0.00  0.00    +0.000 A 
ATOM      6  C   UNL     1      47.939   7.138  12.682  0.00  0.00    +0.000 A 
ENDROOT
BRANCH   1   7
ATOM      7  C   UNL     1      48.121   8.627  14.739  0.00  0.00    +0.000 C 
BRANCH   7  10
ATOM      8  O   UNL     1      48.427   8.476  17.590  0.00  0.00    +0.000 OA
ATOM      9  C   UNL     1      48.807   7.562  16.870  0.00  0.00    +0.000 C 
ATOM     10  N   UNL     1      48.623   7.515  15.509  0.00  0.00    +0.000 N 
ATOM     11  H   UNL     1      49.119   6.811  14.985  0.00  0.00    +0.000 HD
BRANCH   9  12
ATOM     12  C   UNL     1      49.696   6.497  17.324  0.00  0.00    +0.000 A 
ATOM     13  C   UNL     1      51.039   6.707  17.577  0.00  0.00    +0.000 A 
ATOM     14  S   UNL     1      51.926   5.238  17.577  0.00  0.00    +0.000 S 
ATOM     15  C   UNL     1      50.506   4.314  17.386  0.00  0.00    +0.000 A 
ATOM     16  N   UNL     1      50.531   2.968  17.189  0.00  0.00    +0.000 NA
ATOM     17  C   UNL     1      49.360   2.420  17.134  0.00  0.00    +0.000 A 
ATOM     18  N   UNL     1      48.170   3.085  17.305  0.00  0.00    +0.000 N 
ATOM     19  C   UNL     1      48.097   4.440  17.520  0.00  0.00    +0.000 A 
ATOM     20  O   UNL     1      47.036   5.004  17.767  0.00  0.00    +0.000 OA
ATOM     21  C   UNL     1      49.379   5.106  17.459  0.00  0.00    +0.000 A 
ATOM     22  H   UNL     1      47.296   2.582  17.346  0.00  0.00    +0.000 HD
ENDBRANCH   9  12
ENDBRANCH   7  10
ENDBRANCH   1   7
BRANCH   4  23
ATOM     23  C   UNL     1      44.920   6.052  10.590  0.00  0.00    +0.000 C 
BRANCH  23  24
ATOM     24  N   UNL     1      45.084   4.613  10.669  0.00  0.00    +0.000 N 
ATOM     25  C   UNL     1      45.387   3.897   9.535  0.00  0.00    +0.000 A 
ATOM     26  N   UNL     1      45.839   4.551   8.456  0.00  0.00    +0.000 NA
ATOM     27  C   UNL     1      46.290   3.828   7.415  0.00  0.00    +0.000 A 
ATOM     28  C   UNL     1      46.261   2.462   7.379  0.00  0.00    +0.000 A 
ATOM     29  C   UNL     1      45.714   1.869   8.487  0.00  0.00    +0.000 A 
ATOM     30  N   UNL     1      45.284   2.556   9.563  0.00  0.00    +0.000 NA
BRANCH  24  31
ATOM     31  C   UNL     1      44.791   3.908  11.913  0.00  0.00    +0.000 C 
BRANCH  31  32
ATOM     32  C   UNL     1      43.279   3.736  12.135  0.00  0.00    +0.000 C 
BRANCH  32  33
ATOM     33  O   UNL     1      42.791   2.542  11.524  0.00  0.00    +0.000 OA
ATOM     34  H   UNL     1      42.614   1.916  12.249  0.00  0.00    +0.000 HD
ENDBRANCH  32  33
ENDBRANCH  31  32
ENDBRANCH  24  31
ENDBRANCH  23  24
ENDBRANCH   4  23
TORSDOF 8
ENDMDL
MODEL 3
REMARK VINA RESULT:    -6.379      1.785      2.115
REMARK INTER + INTRA:         -10.966
REMARK INTER:                 -10.017
REMARK INTRA:                  -0.948
REMARK UNBOUND:                -1.790
REMARK  Name = 
REMARK  8 active torsions:
REMARK  status: ('A' for Active; 'I' for Inactive)
REMARK    1  A    between atoms: C_2  and  C_22
REMARK    2  A    between atoms: N_3  and  C_4
REMARK    3  A    between atoms: C_4  and  C_5
REMARK    4  A    between atoms: C_8  and  C_9
REMARK    5  A    between atoms: C_9  and  N_10
REMARK    6  A    between atoms: N_10  and  C_11
REMARK    7  A    between atoms: C_11  and  C_12
REMARK    8  A    between atoms: C_12  and  O_13
REMARK                            x       y       z     vdW  Elec       q    Type
REMARK                         _______ _______ _______ _____ _____    ______ ____
ROOT
ATOM      1  C   UNL     1      48.864   7.084  13.189  0.00  0.00    +0.000 A 
ATOM      2  C   UNL     1      48.696   7.491  11.865  0.00  0.00    +0.000 A 
ATOM      3  C   UNL     1      47.522   7.189  11.173  0.00  0.00    +0.000 A 
ATOM      4  C   UNL     1      46.478   6.490  11.791  0.00  0.00    +0.000 A 
ATOM      5  C   UNL     1      46.671   6.018  13.102  0.00  0.00    +0.000 A 
ATOM      6  C   UNL     1      47.843   6.330  13.794  0.00  0.00    +0.000 A 
ENDROOT
BRANCH   1   7
ATOM      7  C   UNL     1      50.055   7.576  13.978  0.00  0.00    +0.000 C 
BRANCH   7  10
ATOM      8  O   UNL     1      51.270   6.253  16.216  0.00  0.00    +0.000 OA
ATOM      9  C   UNL     1      50.275   6.948  16.365  0.00  0.00    +0.000 C 
ATOM     10  N   UNL     1      49.682   7.683  15.367  0.00  0.00    +0.000 N 
ATOM     11  H   UNL     1      48.774   8.083  15.545  0.00  0.00    +0.000 HD
BRANCH   9  12
ATOM     12  C   UNL     1      49.453   6.928  17.571  0.00  0.00    +0.000 A 
ATOM     13  C   UNL     1      49.080   8.083  18.236  0.00  0.00    +0.000 A 
ATOM     14  S   UNL     1      48.593   7.762  19.850  0.00  0.00    +0.000 S 
ATOM     15  C   UNL     1      48.739   6.078  19.619  0.00  0.00    +0.000 A 
ATOM     16  N   UNL     1      48.589   5.186  20.635  0.00  0.00    +0.000 NA
ATOM     17  C   UNL     1      48.664   3.948  20.267  0.00  0.00    +0.000 A 
ATOM     18  N   UNL     1      48.829   3.520  18.972  0.00  0.00    +0.000 N 
ATOM     19  C   UNL     1      48.970   4.384  17.913  0.00  0.00    +0.000 A 
ATOM     20  O   UNL     1      49.018   3.989  16.753  0.00  0.00    +0.000 OA
ATOM     21  C   UNL     1      49.020   5.775  18.304  0.00  0.00    +0.000 A 
ATOM     22  H   UNL     1      48.783   2.538  18.741  0.00  0.00    +0.000 HD
ENDBRANCH   9  12
ENDBRANCH   7  10
ENDBRANCH   1   7
BRANCH   4  23
ATOM     23  C   UNL     1      45.139   6.339  11.081  0.00  0.00    +0.000 C 
BRANCH  23  24
ATOM     24  N   UNL     1      44.752   4.964  10.827  0.00  0.00    +0.000 N 
ATOM     25  C   UNL     1      45.034   4.391   9.610  0.00  0.00    +0.000 A 
ATOM     26  N   UNL     1      45.930   4.981   8.806  0.00  0.00    +0.000 NA
ATOM     27  C   UNL     1      46.322   4.324   7.698  0.00  0.00    +0.000 A 
ATOM     28  C   UNL     1      45.814   3.113   7.322  0.00  0.00    +0.000 A 
ATOM     29  C   UNL     1      44.847   2.612   8.154  0.00  0.00    +0.000 A 
ATOM     30  N   UNL     1      44.453   3.220   9.290  0.00  0.00    +0.000 NA
BRANCH  24  31
ATOM     31  C   UNL     1      43.942   4.237  11.799  0.00  0.00    +0.000 C 
BRANCH  31  32
ATOM     32  C   UNL     1      42.712   5.045  12.244  0.00  0.00    +0.000 C 
BRANCH  32  33
ATOM     33  O   UNL     1      42.914   5.648  13.521  0.00  0.00    +0.000 OA
ATOM     34  H   UNL     1      43.453   5.022  14.038  0.00  0.00    +0.000 HD
ENDBRANCH  32  33
ENDBRANCH  31  32
ENDBRANCH  24  31
ENDBRANCH  23  24
ENDBRANCH   4  23
TORSDOF 8
ENDMDL
MODEL 4
REMARK VINA RESULT:    -6.266      3.215      7.830
REMARK INTER + INTRA:         -10.804
REMARK INTER:                  -9.464
REMARK INTRA:                  -1.340
REMARK UNBOUND:                -1.790
REMARK  Name = 
REMARK  8 active torsions:
REMARK  status: ('A' for Active; 'I' for Inactive)
REMARK    1  A    between atoms: C_2  and  C_22
REMARK    2  A    between atoms: N_3  and  C_4
REMARK    3  A    between atoms: C_4  and  C_5
REMARK    4  A    between atoms: C_8  and  C_9
REMARK    5  A    between atoms: C_9  and  N_10
REMARK    6  A    between atoms: N_10  and  C_11
REMARK    7  A    between atoms: C_11  and  C_12
REMARK    8  A    between atoms: C_12  and  O_13
REMARK                            x       y       z     vdW  Elec       q    Type
REMARK                         _______ _______ _______ _____ _____    ______ ____
ROOT
ATOM      1  C   UNL     1      47.835   7.890  13.892  0.00  0.00    +0.000 A 
ATOM      2  C   UNL     1      47.970   6.511  14.053  0.00  0.00    +0.000 A 
ATOM      3  C   UNL     1      48.546   5.984  15.210  0.00  0.00    +0.000 A 
ATOM      4  C   UNL     1      48.982   6.820  16.245  0.00  0.00    +0.000 A 
ATOM      5  C   UNL     1      48.911   8.213  16.058  0.00  0.00    +0.000 A 
ATOM      6  C   UNL     1      48.327   8.736  14.902  0.00  0.00    +0.000 A 
ENDROOT
BRANCH   1   7
ATOM      7  C   UNL     1      47.046   8.434  12.723  0.00  0.00    +0.000 C 
BRANCH   7  10
ATOM      8  O   UNL     1      44.616   7.911  11.287  0.00  0.00    +0.000 OA
ATOM      9  C   UNL     1      45.566   7.144  11.210  0.00  0.00    +0.000 C 
ATOM     10  N   UNL     1      46.791   7.360  11.794  0.00  0.00    +0.000 N 
ATOM     11  H   UNL     1      47.448   6.597  11.819  0.00  0.00    +0.000 HD
BRANCH   9  12
ATOM     12  C   UNL     1      45.466   5.792  10.668  0.00  0.00    +0.000 A 
ATOM     13  C   UNL     1      45.795   5.491   9.358  0.00  0.00    +0.000 A 
ATOM     14  S   UNL     1      45.105   4.004   8.852  0.00  0.00    +0.000 S 
ATOM     15  C   UNL     1      44.492   3.692  10.413  0.00  0.00    +0.000 A 
ATOM     16  N   UNL     1      43.682   2.633  10.682  0.00  0.00    +0.000 NA
ATOM     17  C   UNL     1      43.368   2.510  11.931  0.00  0.00    +0.000 A 
ATOM     18  N   UNL     1      43.827   3.320  12.941  0.00  0.00    +0.000 N 
ATOM     19  C   UNL     1      44.657   4.392  12.719  0.00  0.00    +0.000 A 
ATOM     20  O   UNL     1      45.137   5.046  13.640  0.00  0.00    +0.000 OA
ATOM     21  C   UNL     1      44.925   4.636  11.319  0.00  0.00    +0.000 A 
ATOM     22  H   UNL     1      43.621   3.112  13.908  0.00  0.00    +0.000 HD
ENDBRANCH   9  12
ENDBRANCH   7  10
ENDBRANCH   1   7
BRANCH   4  23
ATOM     23  C   UNL     1      49.429   6.219  17.571  0.00  0.00    +0.000 C 
BRANCH  23  24
ATOM     24  N   UNL     1      50.755   5.631  17.541  0.00  0.00    +0.000 N 
ATOM     25  C   UNL     1      50.896   4.264  17.571  0.00  0.00    +0.000 A 
ATOM     26  N   UNL     1      49.831   3.496  17.304  0.00  0.00    +0.000 NA
ATOM     27  C   UNL     1      50.018   2.170  17.170  0.00  0.00    +0.000 A 
ATOM     28  C   UNL     1      51.229   1.560  17.346  0.00  0.00    +0.000 A 
ATOM     29  C   UNL     1      52.252   2.403  17.692  0.00  0.00    +0.000 A 
ATOM     30  N   UNL     1      52.113   3.739  17.801  0.00  0.00    +0.000 NA
BRANCH  24  31
ATOM     31  C   UNL     1      51.938   6.482  17.623  0.00  0.00    +0.000 C 
BRANCH  31  32
ATOM     32  C   UNL     1      52.586   6.702  16.247  0.00  0.00    +0.000 C 
BRANCH  32  33
ATOM     33  O   UNL     1      53.819   5.994  16.128  0.00  0.00    +0.000 OA
ATOM     34  H   UNL     1      54.050   6.001  15.181  0.00  0.00    +0.000 HD
ENDBRANCH  32  33
ENDBRANCH  31  32
ENDBRANCH  24  31
ENDBRANCH  23  24
ENDBRANCH   4  23
TORSDOF 8
ENDMDL
MODEL 5
REMARK VINA RESULT:    -6.176      3.265      8.456
REMARK INTER + INTRA:         -10.674
REMARK INTER:                  -9.837
REMARK INTRA:                  -0.837
REMARK UNBOUND:                -1.790
REMARK  Name = 
REMARK  8 active torsions:
REMARK  status: ('A' for Active; 'I' for Inactive)
REMARK    1  A    between atoms: C_2  and  C_22
REMARK    2  A    between atoms: N_3  and  C_4
REMARK    3  A    between atoms: C_4  and  C_5
REMARK    4  A    between atoms: C_8  and  C_9
REMARK    5  A    between atoms: C_9  and  N_10
REMARK    6  A    between atoms: N_10  and  C_11
REMARK    7  A    between atoms: C_11  and  C_12
REMARK    8  A    between atoms: C_12  and  O_13
REMARK                            x       y       z     vdW  Elec       q    Type
REMARK                         _______ _______ _______ _____ _____    ______ ____
ROOT
ATOM      1  C   UNL     1      47.719   6.050  14.097  0.00  0.00    +0.000 A 
ATOM      2  C   UNL     1      47.100   4.851  14.451  0.00  0.00    +0.000 A 
ATOM      3  C   UNL     1      47.299   4.296  15.717  0.00  0.00    +0.000 A 
ATOM      4  C   UNL     1      48.105   4.935  16.667  0.00  0.00    +0.000 A 
ATOM      5  C   UNL     1      48.785   6.107  16.290  0.00  0.00    +0.000 A 
ATOM      6  C   UNL     1      48.577   6.664  15.027  0.00  0.00    +0.000 A 
ENDROOT
BRANCH   1   7
ATOM      7  C   UNL     1      47.347   6.729  12.798  0.00  0.00    +0.000 C 
BRANCH   7  10
ATOM      8  O   UNL     1      44.881   7.274  11.434  0.00  0.00    +0.000 OA
ATOM      9  C   UNL     1      45.353   6.145  11.448  0.00  0.00    +0.000 C 
ATOM     10  N   UNL     1      46.566   5.815  12.002  0.00  0.00    +0.000 N 
ATOM     11  H   UNL     1      46.788   4.838  12.116  0.00  0.00    +0.000 HD
BRANCH   9  12
ATOM     12  C   UNL     1      44.599   4.954  11.067  0.00  0.00    +0.000 A 
ATOM     13  C   UNL     1      43.558   4.458  11.831  0.00  0.00    +0.000 A 
ATOM     14  S   UNL     1      43.216   2.819  11.456  0.00  0.00    +0.000 S 
ATOM     15  C   UNL     1      44.349   2.814  10.182  0.00  0.00    +0.000 A 
ATOM     16  N   UNL     1      44.668   1.686   9.491  0.00  0.00    +0.000 NA
ATOM     17  C   UNL     1      45.493   1.880   8.514  0.00  0.00    +0.000 A 
ATOM     18  N   UNL     1      45.993   3.102   8.136  0.00  0.00    +0.000 N 
ATOM     19  C   UNL     1      45.689   4.269   8.794  0.00  0.00    +0.000 A 
ATOM     20  O   UNL     1      46.063   5.363   8.386  0.00  0.00    +0.000 OA
ATOM     21  C   UNL     1      44.870   4.073   9.970  0.00  0.00    +0.000 A 
ATOM     22  H   UNL     1      46.558   3.197   7.304  0.00  0.00    +0.000 HD
ENDBRANCH   9  12
ENDBRANCH   7  10
ENDBRANCH   1   7
BRANCH   4  23
ATOM     23  C   UNL     1      48.155   4.412  18.096  0.00  0.00    +0.000 C 
BRANCH  23  24
ATOM     24  N   UNL     1      49.216   4.983  18.903  0.00  0.00    +0.000 N 
ATOM     25  C   UNL     1      50.456   4.389  18.919  0.00  0.00    +0.000 A 
ATOM     26  N   UNL     1      50.763   3.501  17.963  0.00  0.00    +0.000 NA
ATOM     27  C   UNL     1      52.031   3.055  17.890  0.00  0.00    +0.000 A 
ATOM     28  C   UNL     1      53.008   3.420  18.774  0.00  0.00    +0.000 A 
ATOM     29  C   UNL     1      52.597   4.269  19.767  0.00  0.00    +0.000 A 
ATOM     30  N   UNL     1      51.347   4.766  19.854  0.00  0.00    +0.000 NA
BRANCH  24  31
ATOM     31  C   UNL     1      48.936   6.097  19.803  0.00  0.00    +0.000 C 
BRANCH  31  32
ATOM     32  C   UNL     1      47.427   6.298  20.018  0.00  0.00    +0.000 C 
BRANCH  32  33
ATOM     33  O   UNL     1      46.965   5.603  21.175  0.00  0.00    +0.000 OA
ATOM     34  H   UNL     1      47.760   5.289  21.643  0.00  0.00    +0.000 HD
ENDBRANCH  32  33
ENDBRANCH  31  32
ENDBRANCH  24  31
ENDBRANCH  23  24
ENDBRANCH   4  23
TORSDOF 8
ENDMDL
MODEL 6
REMARK VINA RESULT:    -6.092      3.030      8.075
REMARK INTER + INTRA:         -10.554
REMARK INTER:                  -9.629
REMARK INTRA:                  -0.924
REMARK UNBOUND:                -1.790
REMARK  Name = 
REMARK  8 active torsions:
REMARK  status: ('A' for Active; 'I' for Inactive)
REMARK    1  A    between atoms: C_2  and  C_22
REMARK    2  A    between atoms: N_3  and  C_4
REMARK    3  A    between atoms: C_4  and  C_5
REMARK    4  A    between atoms: C_8  and  C_9
REMARK    5  A    between atoms: C_9  and  N_10
REMARK    6  A    between atoms: N_10  and  C_11
REMARK    7  A    between atoms: C_11  and  C_12
REMARK    8  A    between atoms: C_12  and  O_13
REMARK                            x       y       z     vdW  Elec       q    Type
REMARK                         _______ _______ _______ _____ _____    ______ ____
ROOT
ATOM      1  C   UNL     1      48.395   7.322  13.916  0.00  0.00    +0.000 A 
ATOM      2  C   UNL     1      47.806   6.297  14.656  0.00  0.00    +0.000 A 
ATOM      3  C   UNL     1      48.481   5.720  15.734  0.00  0.00    +0.000 A 
ATOM      4  C   UNL     1      49.753   6.166  16.112  0.00  0.00    +0.000 A 
ATOM      5  C   UNL     1      50.379   7.151  15.327  0.00  0.00    +0.000 A 
ATOM      6  C   UNL     1      49.697   7.732  14.255  0.00  0.00    +0.000 A 
ENDROOT
BRANCH   1   7
ATOM      7  C   UNL     1      47.581   8.058  12.877  0.00  0.00    +0.000 C 
BRANCH   7  10
ATOM      8  O   UNL     1      44.901   7.636  11.941  0.00  0.00    +0.000 OA
ATOM      9  C   UNL     1      45.820   6.930  11.548  0.00  0.00    +0.000 C 
ATOM     10  N   UNL     1      47.140   7.116  11.878  0.00  0.00    +0.000 N 
ATOM     11  H   UNL     1      47.797   6.386  11.647  0.00  0.00    +0.000 HD
BRANCH   9  12
ATOM     12  C   UNL     1      45.619   5.665  10.847  0.00  0.00    +0.000 A 
ATOM     13  C   UNL     1      45.900   5.508   9.502  0.00  0.00    +0.000 A 
ATOM     14  S   UNL     1      45.101   4.143   8.838  0.00  0.00    +0.000 S 
ATOM     15  C   UNL     1      44.502   3.679  10.366  0.00  0.00    +0.000 A 
ATOM     16  N   UNL     1      43.629   2.648  10.526  0.00  0.00    +0.000 NA
ATOM     17  C   UNL     1      43.334   2.391  11.759  0.00  0.00    +0.000 A 
ATOM     18  N   UNL     1      43.867   3.039  12.847  0.00  0.00    +0.000 N 
ATOM     19  C   UNL     1      44.761   4.075  12.735  0.00  0.00    +0.000 A 
ATOM     20  O   UNL     1      45.302   4.578  13.714  0.00  0.00    +0.000 OA
ATOM     21  C   UNL     1      45.016   4.474  11.368  0.00  0.00    +0.000 A 
ATOM     22  H   UNL     1      43.667   2.726  13.786  0.00  0.00    +0.000 HD
ENDBRANCH   9  12
ENDBRANCH   7  10
ENDBRANCH   1   7
BRANCH   4  23
ATOM     23  C   UNL     1      50.387   5.655  17.399  0.00  0.00    +0.000 C 
BRANCH  23  24
ATOM     24  N   UNL     1      49.452   5.029  18.315  0.00  0.00    +0.000 N 
ATOM     25  C   UNL     1      48.888   5.769  19.326  0.00  0.00    +0.000 A 
ATOM     26  N   UNL     1      48.950   7.106  19.265  0.00  0.00    +0.000 NA
ATOM     27  C   UNL     1      48.252   7.819  20.168  0.00  0.00    +0.000 A 
ATOM     28  C   UNL     1      47.527   7.250  21.177  0.00  0.00    +0.000 A 
ATOM     29  C   UNL     1      47.576   5.882  21.219  0.00  0.00    +0.000 A 
ATOM     30  N   UNL     1      48.234   5.131  20.314  0.00  0.00    +0.000 NA
BRANCH  24  31
ATOM     31  C   UNL     1      49.219   3.590  18.254  0.00  0.00    +0.000 C 
BRANCH  31  32
ATOM     32  C   UNL     1      50.309   2.862  17.451  0.00  0.00    +0.000 C 
BRANCH  32  33
ATOM     33  O   UNL     1      49.750   2.083  16.394  0.00  0.00    +0.000 OA
ATOM     34  H   UNL     1      50.491   1.844  15.807  0.00  0.00    +0.000 HD
ENDBRANCH  32  33
ENDBRANCH  31  32
ENDBRANCH  24  31
ENDBRANCH  23  24
ENDBRANCH   4  23
TORSDOF 8
ENDMDL
MODEL 7
REMARK VINA RESULT:    -5.845      2.203      3.196
REMARK INTER + INTRA:         -10.197
REMARK INTER:                  -9.335
REMARK INTRA:                  -0.863
REMARK UNBOUND:                -1.790
REMARK  Name = 
REMARK  8 active torsions:
REMARK  status: ('A' for Active; 'I' for Inactive)
REMARK    1  A    between atoms: C_2  and  C_22
REMARK    2  A    between atoms: N_3  and  C_4
REMARK    3  A    between atoms: C_4  and  C_5
REMARK    4  A    between atoms: C_8  and  C_9
REMARK    5  A    between atoms: C_9  and  N_10
REMARK    6  A    between atoms: N_10  and  C_11
REMARK    7  A    between atoms: C_11  and  C_12
REMARK    8  A    between atoms: C_12  and  O_13
REMARK                            x       y       z     vdW  Elec       q    Type
REMARK                         _______ _______ _______ _____ _____    ______ ____
ROOT
ATOM      1  C   UNL     1      46.642   8.010  12.841  0.00  0.00    +0.000 A 
ATOM      2  C   UNL     1      45.468   8.603  12.375  0.00  0.00    +0.000 A 
ATOM      3  C   UNL     1      44.599   7.899  11.540  0.00  0.00    +0.000 A 
ATOM      4  C   UNL     1      44.869   6.578  11.166  0.00  0.00    +0.000 A 
ATOM      5  C   UNL     1      46.084   5.999  11.576  0.00  0.00    +0.000 A 
ATOM      6  C   UNL     1      46.947   6.704  12.418  0.00  0.00    +0.000 A 
ENDROOT
BRANCH   1   7
ATOM      7  C   UNL     1      47.473   8.715  13.887  0.00  0.00    +0.000 C 
BRANCH   7  10
ATOM      8  O   UNL     1      48.446   8.774  16.587  0.00  0.00    +0.000 OA
ATOM      9  C   UNL     1      48.808   7.901  15.810  0.00  0.00    +0.000 C 
ATOM     10  N   UNL     1      48.329   7.750  14.531  0.00  0.00    +0.000 N 
ATOM     11  H   UNL     1      48.810   7.113  13.915  0.00  0.00    +0.000 HD
BRANCH   9  12
ATOM     12  C   UNL     1      49.953   7.030  16.056  0.00  0.00    +0.000 A 
ATOM     13  C   UNL     1      49.893   5.949  16.918  0.00  0.00    +0.000 A 
ATOM     14  S   UNL     1      51.454   5.441  17.416  0.00  0.00    +0.000 S 
ATOM     15  C   UNL     1      52.212   6.560  16.376  0.00  0.00    +0.000 A 
ATOM     16  N   UNL     1      53.558   6.759  16.372  0.00  0.00    +0.000 NA
ATOM     17  C   UNL     1      53.967   7.593  15.472  0.00  0.00    +0.000 A 
ATOM     18  N   UNL     1      53.161   8.211  14.546  0.00  0.00    +0.000 N 
ATOM     19  C   UNL     1      51.800   8.029  14.503  0.00  0.00    +0.000 A 
ATOM     20  O   UNL     1      51.107   8.509  13.612  0.00  0.00    +0.000 OA
ATOM     21  C   UNL     1      51.292   7.204  15.576  0.00  0.00    +0.000 A 
ATOM     22  H   UNL     1      53.556   8.777  13.809  0.00  0.00    +0.000 HD
ENDBRANCH   9  12
ENDBRANCH   7  10
ENDBRANCH   1   7
BRANCH   4  23
ATOM     23  C   UNL     1      43.819   5.770  10.414  0.00  0.00    +0.000 C 
BRANCH  23  24
ATOM     24  N   UNL     1      44.034   4.336  10.448  0.00  0.00    +0.000 N 
ATOM     25  C   UNL     1      44.724   3.725   9.428  0.00  0.00    +0.000 A 
ATOM     26  N   UNL     1      45.457   4.479   8.597  0.00  0.00    +0.000 NA
ATOM     27  C   UNL     1      46.258   3.858   7.712  0.00  0.00    +0.000 A 
ATOM     28  C   UNL     1      46.322   2.499   7.580  0.00  0.00    +0.000 A 
ATOM     29  C   UNL     1      45.486   1.801   8.412  0.00  0.00    +0.000 A 
ATOM     30  N   UNL     1      44.696   2.383   9.335  0.00  0.00    +0.000 NA
BRANCH  24  31
ATOM     31  C   UNL     1      43.401   3.524  11.482  0.00  0.00    +0.000 C 
BRANCH  31  32
ATOM     32  C   UNL     1      44.254   3.449  12.759  0.00  0.00    +0.000 C 
BRANCH  32  33
ATOM     33  O   UNL     1      45.473   2.742  12.536  0.00  0.00    +0.000 OA
ATOM     34  H   UNL     1      45.303   2.126  11.801  0.00  0.00    +0.000 HD
ENDBRANCH  32  33
ENDBRANCH  31  32
ENDBRANCH  24  31
ENDBRANCH  23  24
ENDBRANCH   4  23
TORSDOF 8
ENDMDL
MODEL 8
REMARK VINA RESULT:    -5.840      3.670      9.220
REMARK INTER + INTRA:         -10.191
REMARK INTER:                  -9.219
REMARK INTRA:                  -0.972
REMARK UNBOUND:                -1.790
REMARK  Name = 
REMARK  8 active torsions:
REMARK  status: ('A' for Active; 'I' for Inactive)
REMARK    1  A    between atoms: C_2  and  C_22
REMARK    2  A    between atoms: N_3  and  C_4
REMARK    3  A    between atoms: C_4  and  C_5
REMARK    4  A    between atoms: C_8  and  C_9
REMARK    5  A    between atoms: C_9  and  N_10
REMARK    6  A    between atoms: N_10  and  C_11
REMARK    7  A    between atoms: C_11  and  C_12
REMARK    8  A    between atoms: C_12  and  O_13
REMARK                            x       y       z     vdW  Elec       q    Type
REMARK                         _______ _______ _______ _____ _____    ______ ____
ROOT
ATOM      1  C   UNL     1      47.790   4.871  17.651  0.00  0.00    +0.000 A 
ATOM      2  C   UNL     1      46.987   5.444  18.638  0.00  0.00    +0.000 A 
ATOM      3  C   UNL     1      47.398   6.599  19.306  0.00  0.00    +0.000 A 
ATOM      4  C   UNL     1      48.612   7.222  18.992  0.00  0.00    +0.000 A 
ATOM      5  C   UNL     1      49.455   6.609  18.048  0.00  0.00    +0.000 A 
ATOM      6  C   UNL     1      49.037   5.459  17.375  0.00  0.00    +0.000 A 
ENDROOT
BRANCH   1   7
ATOM      7  C   UNL     1      47.250   3.736  16.813  0.00  0.00    +0.000 C 
BRANCH   7  10
ATOM      8  O   UNL     1      47.688   3.153  14.036  0.00  0.00    +0.000 OA
ATOM      9  C   UNL     1      46.879   4.005  14.377  0.00  0.00    +0.000 C 
ATOM     10  N   UNL     1      46.547   4.286  15.680  0.00  0.00    +0.000 N 
ATOM     11  H   UNL     1      46.004   5.116  15.865  0.00  0.00    +0.000 HD
BRANCH   9  12
ATOM     12  C   UNL     1      46.311   4.988  13.459  0.00  0.00    +0.000 A 
ATOM     13  C   UNL     1      46.871   6.239  13.270  0.00  0.00    +0.000 A 
ATOM     14  S   UNL     1      45.752   7.341  12.579  0.00  0.00    +0.000 S 
ATOM     15  C   UNL     1      44.575   6.120  12.397  0.00  0.00    +0.000 A 
ATOM     16  N   UNL     1      43.310   6.383  11.972  0.00  0.00    +0.000 NA
ATOM     17  C   UNL     1      42.572   5.331  11.825  0.00  0.00    +0.000 A 
ATOM     18  N   UNL     1      42.996   4.038  12.019  0.00  0.00    +0.000 N 
ATOM     19  C   UNL     1      44.267   3.725  12.434  0.00  0.00    +0.000 A 
ATOM     20  O   UNL     1      44.661   2.565  12.508  0.00  0.00    +0.000 OA
ATOM     21  C   UNL     1      45.081   4.882  12.732  0.00  0.00    +0.000 A 
ATOM     22  H   UNL     1      42.398   3.256  11.795  0.00  0.00    +0.000 HD
ENDBRANCH   9  12
ENDBRANCH   7  10
ENDBRANCH   1   7
BRANCH   4  23
ATOM     23  C   UNL     1      48.949   8.579  19.597  0.00  0.00    +0.000 C 
BRANCH  23  24
ATOM     24  N   UNL     1      48.018   9.634  19.246  0.00  0.00    +0.000 N 
ATOM     25  C   UNL     1      47.020   9.983  20.124  0.00  0.00    +0.000 A 
ATOM     26  N   UNL     1      47.108   9.583  21.401  0.00  0.00    +0.000 NA
ATOM     27  C   UNL     1      46.218  10.069  22.285  0.00  0.00    +0.000 A 
ATOM     28  C   UNL     1      45.195  10.907  21.938  0.00  0.00    +0.000 A 
ATOM     29  C   UNL     1      45.125  11.208  20.604  0.00  0.00    +0.000 A 
ATOM     30  N   UNL     1      46.017  10.770  19.693  0.00  0.00    +0.000 NA
BRANCH  24  31
ATOM     31  C   UNL     1      48.049  10.227  17.913  0.00  0.00    +0.000 C 
BRANCH  31  32
ATOM     32  C   UNL     1      48.369  11.730  17.958  0.00  0.00    +0.000 C 
BRANCH  32  33
ATOM     33  O   UNL     1      47.301  12.510  17.422  0.00  0.00    +0.000 OA
ATOM     34  H   UNL     1      46.646  12.608  18.136  0.00  0.00    +0.000 HD
ENDBRANCH  32  33
ENDBRANCH  31  32
ENDBRANCH  24  31
ENDBRANCH  23  24
ENDBRANCH   4  23
TORSDOF 8
ENDMDL
MODEL 9
REMARK VINA RESULT:    -5.807      1.947      2.692
REMARK INTER + INTRA:         -10.143
REMARK INTER:                  -9.405
REMARK INTRA:                  -0.739
REMARK UNBOUND:                -1.790
REMARK  Name = 
REMARK  8 active torsions:
REMARK  status: ('A' for Active; 'I' for Inactive)
REMARK    1  A    between atoms: C_2  and  C_22
REMARK    2  A    between atoms: N_3  and  C_4
REMARK    3  A    between atoms: C_4  and  C_5
REMARK    4  A    between atoms: C_8  and  C_9
REMARK    5  A    between atoms: C_9  and  N_10
REMARK    6  A    between atoms: N_10  and  C_11
REMARK    7  A    between atoms: C_11  and  C_12
REMARK    8  A    between atoms: C_12  and  O_13
REMARK                            x       y       z     vdW  Elec       q    Type
REMARK                         _______ _______ _______ _____ _____    ______ ____
ROOT
ATOM      1  C   UNL     1      47.342   7.565  13.604  0.00  0.00    +0.000 A 
ATOM      2  C   UNL     1      47.267   6.265  13.103  0.00  0.00    +0.000 A 
ATOM      3  C   UNL     1      46.212   5.883  12.273  0.00  0.00    +0.000 A 
ATOM      4  C   UNL     1      45.215   6.795  11.906  0.00  0.00    +0.000 A 
ATOM      5  C   UNL     1      45.249   8.086  12.464  0.00  0.00    +0.000 A 
ATOM      6  C   UNL     1      46.311   8.467  13.286  0.00  0.00    +0.000 A 
ENDROOT
BRANCH   1   7
ATOM      7  C   UNL     1      48.581   8.012  14.344  0.00  0.00    +0.000 C 
BRANCH   7  10
ATOM      8  O   UNL     1      50.514   8.392  16.432  0.00  0.00    +0.000 OA
ATOM      9  C   UNL     1      49.575   7.623  16.581  0.00  0.00    +0.000 C 
ATOM     10  N   UNL     1      48.561   7.446  15.671  0.00  0.00    +0.000 N 
ATOM     11  H   UNL     1      47.930   6.671  15.804  0.00  0.00    +0.000 HD
BRANCH   9  12
ATOM     12  C   UNL     1      49.510   6.630  17.650  0.00  0.00    +0.000 A 
ATOM     13  C   UNL     1      49.890   5.312  17.464  0.00  0.00    +0.000 A 
ATOM     14  S   UNL     1      49.235   4.283  18.670  0.00  0.00    +0.000 S 
ATOM     15  C   UNL     1      48.568   5.604  19.517  0.00  0.00    +0.000 A 
ATOM     16  N   UNL     1      47.759   5.445  20.599  0.00  0.00    +0.000 NA
ATOM     17  C   UNL     1      47.401   6.555  21.159  0.00  0.00    +0.000 A 
ATOM     18  N   UNL     1      47.813   7.805  20.765  0.00  0.00    +0.000 N 
ATOM     19  C   UNL     1      48.640   8.013  19.688  0.00  0.00    +0.000 A 
ATOM     20  O   UNL     1      49.078   9.124  19.408  0.00  0.00    +0.000 OA
ATOM     21  C   UNL     1      48.957   6.804  18.960  0.00  0.00    +0.000 A 
ATOM     22  H   UNL     1      47.573   8.624  21.304  0.00  0.00    +0.000 HD
ENDBRANCH   9  12
ENDBRANCH   7  10
ENDBRANCH   1   7
BRANCH   4  23
ATOM     23  C   UNL     1      44.183   6.412  10.853  0.00  0.00    +0.000 C 
BRANCH  23  24
ATOM     24  N   UNL     1      43.957   4.984  10.734  0.00  0.00    +0.000 N 
ATOM     25  C   UNL     1      44.506   4.291   9.682  0.00  0.00    +0.000 A 
ATOM     26  N   UNL     1      45.490   4.861   8.972  0.00  0.00    +0.000 NA
ATOM     27  C   UNL     1      46.133   4.112   8.057  0.00  0.00    +0.000 A 
ATOM     28  C   UNL     1      45.797   2.818   7.775  0.00  0.00    +0.000 A 
ATOM     29  C   UNL     1      44.732   2.332   8.487  0.00  0.00    +0.000 A 
ATOM     30  N   UNL     1      44.086   3.037   9.436  0.00  0.00    +0.000 NA
BRANCH  24  31
ATOM     31  C   UNL     1      43.036   4.309  11.643  0.00  0.00    +0.000 C 
BRANCH  31  32
ATOM     32  C   UNL     1      43.745   3.246  12.498  0.00  0.00    +0.000 C 
BRANCH  32  33
ATOM     33  O   UNL     1      43.348   1.926  12.131  0.00  0.00    +0.000 OA
ATOM     34  H   UNL     1      42.615   2.026  11.497  0.00  0.00    +0.000 HD
ENDBRANCH  32  33
ENDBRANCH  31  32
ENDBRANCH  24  31
ENDBRANCH  23  24
ENDBRANCH   4  23
TORSDOF 8
ENDMDL
