MODEL 1
REMARK VINA RESULT:    -8.424      0.000      0.000
REMARK INTER + INTRA:         -12.763
REMARK INTER:                 -11.871
REMARK INTRA:                  -0.892
REMARK UNBOUND:                -0.892
REMARK  Name = 
REMARK  9 active torsions:
REMARK  status: ('A' for Active; 'I' for Inactive)
REMARK    1  A    between atoms: C_1  and  C_2
REMARK    2  A    between atoms: C_2  and  C_3
REMARK    3  A    between atoms: C_6  and  C_7
REMARK    4  A    between atoms: C_11  and  C_12
REMARK    5  A    between atoms: C_12  and  C_13
REMARK    6  A    between atoms: C_13  and  C_14
REMARK    7  A    between atoms: C_13  and  N_15
REMARK    8  A    between atoms: N_15  and  C_16
REMARK    9  A    between atoms: C_19  and  C_20
REMARK                            x       y       z     vdW  Elec       q    Type
REMARK                         _______ _______ _______ _____ _____    ______ ____
ROOT
ATOM      1  C   UNL     1      44.110   4.967  11.283  0.00  0.00    +0.000 C 
ATOM      2  C   UNL     1      42.831   4.932  12.130  0.00  0.00    +0.000 C 
ENDROOT
BRANCH   1   3
ATOM      3  N   UNL     1      43.816   4.570   9.879  0.00  0.00    +0.000 N 
ATOM      4  H   UNL     1      43.368   5.314   9.346  0.00  0.00    +0.000 HD
BRANCH   3   5
ATOM      5  C   UNL     1      44.775   3.889   9.117  0.00  0.00    +0.000 A 
ATOM      6  C   UNL     1      45.578   4.562   8.180  0.00  0.00    +0.000 A 
ATOM      7  N   UNL     1      46.498   3.986   7.358  0.00  0.00    +0.000 NA
ATOM      8  C   UNL     1      46.612   2.625   7.443  0.00  0.00    +0.000 A 
ATOM      9  C   UNL     1      45.837   1.862   8.302  0.00  0.00    +0.000 A 
ATOM     10  F   UNL     1      45.930   0.528   8.366  0.00  0.00    +0.000 F 
ATOM     11  C   UNL     1      44.916   2.502   9.125  0.00  0.00    +0.000 A 
BRANCH   8  12
ATOM     12  C   UNL     1      47.610   1.969   6.547  0.00  0.00    +0.000 C 
ATOM     13  N   UNL     1      48.841   2.568   6.493  0.00  0.00    +0.000 N 
ATOM     14  O   UNL     1      47.384   0.962   5.891  0.00  0.00    +0.000 OA
ATOM     15  H   UNL     1      49.021   3.412   7.030  0.00  0.00    +0.000 HD
ATOM     16  H   UNL     1      49.547   2.183   5.890  0.00  0.00    +0.000 HD
ENDBRANCH   8  12
ENDBRANCH   3   5
ENDBRANCH   1   3
BRANCH   1  17
ATOM     17  C   UNL     1      44.709   6.399  11.292  0.00  0.00    +0.000 C 
BRANCH  17  22
ATOM     18  C   UNL     1      47.558   5.939  13.852  0.00  0.00    +0.000 A 
ATOM     19  C   UNL     1      48.559   6.702  13.223  0.00  0.00    +0.000 A 
ATOM     20  C   UNL     1      48.299   7.424  12.059  0.00  0.00    +0.000 A 
ATOM     21  C   UNL     1      47.038   7.367  11.468  0.00  0.00    +0.000 A 
ATOM     22  C   UNL     1      46.032   6.564  12.017  0.00  0.00    +0.000 A 
ATOM     23  C   UNL     1      46.300   5.872  13.212  0.00  0.00    +0.000 A 
BRANCH  18  27
ATOM     24  C   UNL     1      48.251   4.023  17.522  0.00  0.00    +0.000 A 
ATOM     25  C   UNL     1      48.970   5.124  17.113  0.00  0.00    +0.000 A 
ATOM     26  N   UNL     1      48.779   5.747  15.936  0.00  0.00    +0.000 NA
ATOM     27  C   UNL     1      47.817   5.247  15.131  0.00  0.00    +0.000 A 
ATOM     28  N   UNL     1      47.050   4.184  15.441  0.00  0.00    +0.000 NA
ATOM     29  C   UNL     1      47.285   3.600  16.632  0.00  0.00    +0.000 A 
BRANCH  24  31
ATOM     30  C   UNL     1      48.804   4.352  19.938  0.00  0.00    +0.000 C 
ATOM     31  C   UNL     1      48.476   3.353  18.840  0.00  0.00    +0.000 C 
ENDBRANCH  24  31
ENDBRANCH  18  27
ENDBRANCH  17  22
ENDBRANCH   1  17
TORSDOF 7
ENDMDL
MODEL 2
REMARK VINA RESULT:    -8.024      3.321      8.381
REMARK INTER + INTRA:         -12.200
REMARK INTER:                 -11.241
REMARK INTRA:                  -0.959
REMARK UNBOUND:                -0.892
REMARK  Name = 
REMARK  9 active torsions:
REMARK  status: ('A' for Active; 'I' for Inactive)
REMARK    1  A    between atoms: C_1  and  C_2
REMARK    2  A    between atoms: C_2  and  C_3
REMARK    3  A    between atoms: C_6  and  C_7
REMARK    4  A    between atoms: C_11  and  C_12
REMARK    5  A    between atoms: C_12  and  C_13
REMARK    6  A    between atoms: C_13  and  C_14
REMARK    7  A    between atoms: C_13  and  N_15
REMARK    8  A    between atoms: N_15  and  C_16
REMARK    9  A    between atoms: C_19  and  C_20
REMARK                            x       y       z     vdW  Elec       q    Type
REMARK                         _______ _______ _______ _____ _____    ______ ____
ROOT
ATOM      1  C   UNL     1      47.459   7.387  12.236  0.00  0.00    +0.000 C 
ATOM      2  C   UNL     1      48.354   8.336  11.428  0.00  0.00    +0.000 C 
ENDROOT
BRANCH   1   3
ATOM      3  N   UNL     1      47.738   7.520  13.691  0.00  0.00    +0.000 N 
ATOM      4  H   UNL     1      47.169   8.239  14.136  0.00  0.00    +0.000 HD
BRANCH   3   5
ATOM      5  C   UNL     1      47.862   6.381  14.499  0.00  0.00    +0.000 A 
ATOM      6  C   UNL     1      47.221   5.175  14.166  0.00  0.00    +0.000 A 
ATOM      7  N   UNL     1      47.238   4.033  14.908  0.00  0.00    +0.000 NA
ATOM      8  C   UNL     1      47.916   4.096  16.095  0.00  0.00    +0.000 A 
ATOM      9  C   UNL     1      48.545   5.249  16.536  0.00  0.00    +0.000 A 
ATOM     10  F   UNL     1      49.185   5.318  17.710  0.00  0.00    +0.000 F 
ATOM     11  C   UNL     1      48.503   6.387  15.738  0.00  0.00    +0.000 A 
BRANCH   8  12
ATOM     12  C   UNL     1      47.943   2.858  16.929  0.00  0.00    +0.000 C 
ATOM     13  N   UNL     1      46.884   2.699  17.785  0.00  0.00    +0.000 N 
ATOM     14  O   UNL     1      48.830   2.018  16.882  0.00  0.00    +0.000 OA
ATOM     15  H   UNL     1      46.155   3.405  17.831  0.00  0.00    +0.000 HD
ATOM     16  H   UNL     1      46.858   1.894  18.388  0.00  0.00    +0.000 HD
ENDBRANCH   8  12
ENDBRANCH   3   5
ENDBRANCH   1   3
BRANCH   1  17
ATOM     17  C   UNL     1      45.965   7.719  11.971  0.00  0.00    +0.000 C 
BRANCH  17  22
ATOM     18  C   UNL     1      44.998   4.646   9.850  0.00  0.00    +0.000 A 
ATOM     19  C   UNL     1      43.674   4.469  10.290  0.00  0.00    +0.000 A 
ATOM     20  C   UNL     1      43.074   5.368  11.172  0.00  0.00    +0.000 A 
ATOM     21  C   UNL     1      43.801   6.448  11.670  0.00  0.00    +0.000 A 
ATOM     22  C   UNL     1      45.144   6.624  11.317  0.00  0.00    +0.000 A 
ATOM     23  C   UNL     1      45.721   5.730  10.399  0.00  0.00    +0.000 A 
BRANCH  18  27
ATOM     24  C   UNL     1      46.768   2.078   7.040  0.00  0.00    +0.000 A 
ATOM     25  C   UNL     1      46.759   3.447   6.891  0.00  0.00    +0.000 A 
ATOM     26  N   UNL     1      46.186   4.292   7.768  0.00  0.00    +0.000 NA
ATOM     27  C   UNL     1      45.598   3.738   8.851  0.00  0.00    +0.000 A 
ATOM     28  N   UNL     1      45.562   2.415   9.097  0.00  0.00    +0.000 NA
ATOM     29  C   UNL     1      46.153   1.618   8.186  0.00  0.00    +0.000 A 
BRANCH  24  31
ATOM     30  C   UNL     1      47.299   1.675   4.630  0.00  0.00    +0.000 C 
ATOM     31  C   UNL     1      47.420   1.161   6.056  0.00  0.00    +0.000 C 
ENDBRANCH  24  31
ENDBRANCH  18  27
ENDBRANCH  17  22
ENDBRANCH   1  17
TORSDOF 7
ENDMDL
MODEL 3
REMARK VINA RESULT:    -7.457      2.504      4.974
REMARK INTER + INTRA:         -11.401
REMARK INTER:                 -10.500
REMARK INTRA:                  -0.900
REMARK UNBOUND:                -0.892
REMARK  Name = 
REMARK  9 active torsions:
REMARK  status: ('A' for Active; 'I' for Inactive)
REMARK    1  A    between atoms: C_1  and  C_2
REMARK    2  A    between atoms: C_2  and  C_3
REMARK    3  A    between atoms: C_6  and  C_7
REMARK    4  A    between atoms: C_11  and  C_12
REMARK    5  A    between atoms: C_12  and  C_13
REMARK    6  A    between atoms: C_13  and  C_14
REMARK    7  A    between atoms: C_13  and  N_15
REMARK    8  A    between atoms: N_15  and  C_16
REMARK    9  A    between atoms: C_19  and  C_20
REMARK                            x       y       z     vdW  Elec       q    Type
REMARK                         _______ _______ _______ _____ _____    ______ ____
ROOT
ATOM      1  C   UNL     1      44.495   3.848  11.687  0.00  0.00    +0.000 C 
ATOM      2  C   UNL     1      43.531   3.155  12.659  0.00  0.00    +0.000 C 
ENDROOT
BRANCH   1   3
ATOM      3  N   UNL     1      44.023   3.691  10.285  0.00  0.00    +0.000 N 
ATOM      4  H   UNL     1      43.408   4.449   9.991  0.00  0.00    +0.000 HD
BRANCH   3   5
ATOM      5  C   UNL     1      44.916   3.321   9.271  0.00  0.00    +0.000 A 
ATOM      6  C   UNL     1      45.322   4.236   8.284  0.00  0.00    +0.000 A 
ATOM      7  N   UNL     1      46.142   3.962   7.232  0.00  0.00    +0.000 NA
ATOM      8  C   UNL     1      46.571   2.667   7.124  0.00  0.00    +0.000 A 
ATOM      9  C   UNL     1      46.195   1.678   8.019  0.00  0.00    +0.000 A 
ATOM     10  F   UNL     1      46.592   0.406   7.898  0.00  0.00    +0.000 F 
ATOM     11  C   UNL     1      45.359   2.013   9.079  0.00  0.00    +0.000 A 
BRANCH   8  12
ATOM     12  C   UNL     1      47.466   2.340   5.975  0.00  0.00    +0.000 C 
ATOM     13  N   UNL     1      48.810   2.454   6.221  0.00  0.00    +0.000 N 
ATOM     14  O   UNL     1      47.068   1.989   4.873  0.00  0.00    +0.000 OA
ATOM     15  H   UNL     1      49.137   2.758   7.134  0.00  0.00    +0.000 HD
ATOM     16  H   UNL     1      49.461   2.266   5.478  0.00  0.00    +0.000 HD
ENDBRANCH   8  12
ENDBRANCH   3   5
ENDBRANCH   1   3
BRANCH   1  17
ATOM     17  C   UNL     1      44.590   5.359  12.027  0.00  0.00    +0.000 C 
BRANCH  17  22
ATOM     18  C   UNL     1      47.749   7.479  12.664  0.00  0.00    +0.000 A 
ATOM     19  C   UNL     1      48.238   6.827  13.810  0.00  0.00    +0.000 A 
ATOM     20  C   UNL     1      47.625   5.679  14.311  0.00  0.00    +0.000 A 
ATOM     21  C   UNL     1      46.478   5.176  13.699  0.00  0.00    +0.000 A 
ATOM     22  C   UNL     1      45.914   5.833  12.599  0.00  0.00    +0.000 A 
ATOM     23  C   UNL     1      46.566   6.967  12.085  0.00  0.00    +0.000 A 
BRANCH  18  27
ATOM     24  C   UNL     1      49.744  10.760  10.966  0.00  0.00    +0.000 A 
ATOM     25  C   UNL     1      50.374   9.564  11.230  0.00  0.00    +0.000 A 
ATOM     26  N   UNL     1      49.763   8.503  11.787  0.00  0.00    +0.000 NA
ATOM     27  C   UNL     1      48.455   8.644  12.090  0.00  0.00    +0.000 A 
ATOM     28  N   UNL     1      47.743   9.764  11.861  0.00  0.00    +0.000 NA
ATOM     29  C   UNL     1      48.406  10.794  11.301  0.00  0.00    +0.000 A 
BRANCH  24  31
ATOM     30  C   UNL     1      49.910  12.222   8.944  0.00  0.00    +0.000 C 
ATOM     31  C   UNL     1      50.443  11.922  10.336  0.00  0.00    +0.000 C 
ENDBRANCH  24  31
ENDBRANCH  18  27
ENDBRANCH  17  22
ENDBRANCH   1  17
TORSDOF 7
ENDMDL
MODEL 4
REMARK VINA RESULT:    -7.146      4.283      8.303
REMARK INTER + INTRA:         -10.962
REMARK INTER:                  -9.918
REMARK INTRA:                  -1.044
REMARK UNBOUND:                -0.892
REMARK  Name = 
REMARK  9 active torsions:
REMARK  status: ('A' for Active; 'I' for Inactive)
REMARK    1  A    between atoms: C_1  and  C_2
REMARK    2  A    between atoms: C_2  and  C_3
REMARK    3  A    between atoms: C_6  and  C_7
REMARK    4  A    between atoms: C_11  and  C_12
REMARK    5  A    between atoms: C_12  and  C_13
REMARK    6  A    between atoms: C_13  and  C_14
REMARK    7  A    between atoms: C_13  and  N_15
REMARK    8  A    between atoms: N_15  and  C_16
REMARK    9  A    between atoms: C_19  and  C_20
REMARK                            x       y       z     vdW  Elec       q    Type
REMARK                         _______ _______ _______ _____ _____    ______ ____
ROOT
ATOM      1  C   UNL     1      44.663   7.755  11.407  0.00  0.00    +0.000 C 
ATOM      2  C   UNL     1      44.297   9.245  11.437  0.00  0.00    +0.000 C 
ENDROOT
BRANCH   1   3
ATOM      3  N   UNL     1      45.326   7.355  12.678  0.00  0.00    +0.000 N 
ATOM      4  H   UNL     1      45.093   6.403  12.959  0.00  0.00    +0.000 HD
BRANCH   3   5
ATOM      5  C   UNL     1      46.678   7.647  12.898  0.00  0.00    +0.000 A 
ATOM      6  C   UNL     1      47.077   8.584  13.866  0.00  0.00    +0.000 A 
ATOM      7  N   UNL     1      48.357   8.973  14.120  0.00  0.00    +0.000 NA
ATOM      8  C   UNL     1      49.324   8.415  13.328  0.00  0.00    +0.000 A 
ATOM      9  C   UNL     1      49.033   7.514  12.316  0.00  0.00    +0.000 A 
ATOM     10  F   UNL     1      49.976   6.990  11.524  0.00  0.00    +0.000 F 
ATOM     11  C   UNL     1      47.709   7.146  12.102  0.00  0.00    +0.000 A 
BRANCH   8  12
ATOM     12  C   UNL     1      50.735   8.831  13.582  0.00  0.00    +0.000 C 
ATOM     13  N   UNL     1      51.541   7.876  14.144  0.00  0.00    +0.000 N 
ATOM     14  O   UNL     1      51.182   9.939  13.319  0.00  0.00    +0.000 OA
ATOM     15  H   UNL     1      51.163   6.961  14.373  0.00  0.00    +0.000 HD
ATOM     16  H   UNL     1      52.496   8.105  14.357  0.00  0.00    +0.000 HD
ENDBRANCH   8  12
ENDBRANCH   3   5
ENDBRANCH   1   3
BRANCH   1  17
ATOM     17  C   UNL     1      43.382   6.902  11.210  0.00  0.00    +0.000 C 
BRANCH  17  22
ATOM     18  C   UNL     1      44.692   3.556   9.805  0.00  0.00    +0.000 A 
ATOM     19  C   UNL     1      44.166   2.678  10.771  0.00  0.00    +0.000 A 
ATOM     20  C   UNL     1      43.333   3.135  11.792  0.00  0.00    +0.000 A 
ATOM     21  C   UNL     1      43.037   4.493  11.898  0.00  0.00    +0.000 A 
ATOM     22  C   UNL     1      43.596   5.414  11.004  0.00  0.00    +0.000 A 
ATOM     23  C   UNL     1      44.403   4.931   9.958  0.00  0.00    +0.000 A 
BRANCH  18  27
ATOM     24  C   UNL     1      46.934   2.093   6.572  0.00  0.00    +0.000 A 
ATOM     25  C   UNL     1      46.638   1.326   7.677  0.00  0.00    +0.000 A 
ATOM     26  N   UNL     1      45.935   1.774   8.733  0.00  0.00    +0.000 NA
ATOM     27  C   UNL     1      45.502   3.052   8.678  0.00  0.00    +0.000 A 
ATOM     28  N   UNL     1      45.726   3.881   7.640  0.00  0.00    +0.000 NA
ATOM     29  C   UNL     1      46.435   3.378   6.611  0.00  0.00    +0.000 A 
BRANCH  24  31
ATOM     30  C   UNL     1      46.838   1.397   4.172  0.00  0.00    +0.000 C 
ATOM     31  C   UNL     1      47.710   1.568   5.406  0.00  0.00    +0.000 C 
ENDBRANCH  24  31
ENDBRANCH  18  27
ENDBRANCH  17  22
ENDBRANCH   1  17
TORSDOF 7
ENDMDL
MODEL 5
REMARK VINA RESULT:    -6.988      3.301      4.199
REMARK INTER + INTRA:         -10.740
REMARK INTER:                  -9.584
REMARK INTRA:                  -1.156
REMARK UNBOUND:                -0.892
REMARK  Name = 
REMARK  9 active torsions:
REMARK  status: ('A' for Active; 'I' for Inactive)
REMARK    1  A    between atoms: C_1  and  C_2
REMARK    2  A    between atoms: C_2  and  C_3
REMARK    3  A    between atoms: C_6  and  C_7
REMARK    4  A    between atoms: C_11  and  C_12
REMARK    5  A    between atoms: C_12  and  C_13
REMARK    6  A    between atoms: C_13  and  C_14
REMARK    7  A    between atoms: C_13  and  N_15
REMARK    8  A    between atoms: N_15  and  C_16
REMARK    9  A    between atoms: C_19  and  C_20
REMARK                            x       y       z     vdW  Elec       q    Type
REMARK                         _______ _______ _______ _____ _____    ______ ____
ROOT
ATOM      1  C   UNL     1      44.996   9.703  11.896  0.00  0.00    +0.000 C 
ATOM      2  C   UNL     1      44.009  10.854  11.661  0.00  0.00    +0.000 C 
ENDROOT
BRANCH   1   3
ATOM      3  N   UNL     1      44.877   8.686  10.817  0.00  0.00    +0.000 N 
ATOM      4  H   UNL     1      45.614   8.767  10.118  0.00  0.00    +0.000 HD
BRANCH   3   5
ATOM      5  C   UNL     1      44.600   7.348  11.128  0.00  0.00    +0.000 A 
ATOM      6  C   UNL     1      45.572   6.345  10.976  0.00  0.00    +0.000 A 
ATOM      7  N   UNL     1      45.387   5.014  11.201  0.00  0.00    +0.000 NA
ATOM      8  C   UNL     1      44.127   4.637  11.575  0.00  0.00    +0.000 A 
ATOM      9  C   UNL     1      43.085   5.540  11.712  0.00  0.00    +0.000 A 
ATOM     10  F   UNL     1      41.845   5.167  12.051  0.00  0.00    +0.000 F 
ATOM     11  C   UNL     1      43.329   6.889  11.475  0.00  0.00    +0.000 A 
BRANCH   8  12
ATOM     12  C   UNL     1      43.897   3.182  11.821  0.00  0.00    +0.000 C 
ATOM     13  N   UNL     1      44.872   2.542  12.541  0.00  0.00    +0.000 N 
ATOM     14  O   UNL     1      42.917   2.566  11.427  0.00  0.00    +0.000 OA
ATOM     15  H   UNL     1      45.691   3.055  12.857  0.00  0.00    +0.000 HD
ATOM     16  H   UNL     1      44.782   1.557  12.720  0.00  0.00    +0.000 HD
ENDBRANCH   8  12
ENDBRANCH   3   5
ENDBRANCH   1   3
BRANCH   1  17
ATOM     17  C   UNL     1      46.448  10.250  11.922  0.00  0.00    +0.000 C 
BRANCH  17  22
ATOM     18  C   UNL     1      48.275   7.232  13.483  0.00  0.00    +0.000 A 
ATOM     19  C   UNL     1      49.464   7.268  12.732  0.00  0.00    +0.000 A 
ATOM     20  C   UNL     1      49.715   8.289  11.816  0.00  0.00    +0.000 A 
ATOM     21  C   UNL     1      48.761   9.282  11.597  0.00  0.00    +0.000 A 
ATOM     22  C   UNL     1      47.533   9.248  12.268  0.00  0.00    +0.000 A 
ATOM     23  C   UNL     1      47.312   8.232  13.215  0.00  0.00    +0.000 A 
BRANCH  18  27
ATOM     24  C   UNL     1      47.693   4.242  16.370  0.00  0.00    +0.000 A 
ATOM     25  C   UNL     1      46.982   4.282  15.191  0.00  0.00    +0.000 A 
ATOM     26  N   UNL     1      47.138   5.237  14.256  0.00  0.00    +0.000 NA
ATOM     27  C   UNL     1      48.054   6.196  14.512  0.00  0.00    +0.000 A 
ATOM     28  N   UNL     1      48.809   6.240  15.626  0.00  0.00    +0.000 NA
ATOM     29  C   UNL     1      48.611   5.258  16.527  0.00  0.00    +0.000 A 
BRANCH  24  31
ATOM     30  C   UNL     1      48.474   3.309  18.555  0.00  0.00    +0.000 C 
ATOM     31  C   UNL     1      47.508   3.163  17.390  0.00  0.00    +0.000 C 
ENDBRANCH  24  31
ENDBRANCH  18  27
ENDBRANCH  17  22
ENDBRANCH   1  17
TORSDOF 7
ENDMDL
MODEL 6
REMARK VINA RESULT:    -6.913      3.615      7.980
REMARK INTER + INTRA:         -10.634
REMARK INTER:                  -9.561
REMARK INTRA:                  -1.073
REMARK UNBOUND:                -0.892
REMARK  Name = 
REMARK  9 active torsions:
REMARK  status: ('A' for Active; 'I' for Inactive)
REMARK    1  A    between atoms: C_1  and  C_2
REMARK    2  A    between atoms: C_2  and  C_3
REMARK    3  A    between atoms: C_6  and  C_7
REMARK    4  A    between atoms: C_11  and  C_12
REMARK    5  A    between atoms: C_12  and  C_13
REMARK    6  A    between atoms: C_13  and  C_14
REMARK    7  A    between atoms: C_13  and  N_15
REMARK    8  A    between atoms: N_15  and  C_16
REMARK    9  A    between atoms: C_19  and  C_20
REMARK                            x       y       z     vdW  Elec       q    Type
REMARK                         _______ _______ _______ _____ _____    ______ ____
ROOT
ATOM      1  C   UNL     1      50.007   8.231  13.398  0.00  0.00    +0.000 C 
ATOM      2  C   UNL     1      51.401   8.840  13.601  0.00  0.00    +0.000 C 
ENDROOT
BRANCH   1   3
ATOM      3  N   UNL     1      49.264   8.189  14.687  0.00  0.00    +0.000 N 
ATOM      4  H   UNL     1      48.481   8.841  14.710  0.00  0.00    +0.000 HD
BRANCH   3   5
ATOM      5  C   UNL     1      48.938   6.962  15.281  0.00  0.00    +0.000 A 
ATOM      6  C   UNL     1      48.093   6.041  14.640  0.00  0.00    +0.000 A 
ATOM      7  N   UNL     1      47.677   4.850  15.153  0.00  0.00    +0.000 NA
ATOM      8  C   UNL     1      48.103   4.558  16.420  0.00  0.00    +0.000 A 
ATOM      9  C   UNL     1      48.903   5.418  17.156  0.00  0.00    +0.000 A 
ATOM     10  F   UNL     1      49.298   5.145  18.405  0.00  0.00    +0.000 F 
ATOM     11  C   UNL     1      49.304   6.620  16.582  0.00  0.00    +0.000 A 
BRANCH   8  12
ATOM     12  C   UNL     1      47.655   3.261  17.007  0.00  0.00    +0.000 C 
ATOM     13  N   UNL     1      48.601   2.270  17.046  0.00  0.00    +0.000 N 
ATOM     14  O   UNL     1      46.529   3.055  17.438  0.00  0.00    +0.000 OA
ATOM     15  H   UNL     1      49.532   2.441  16.675  0.00  0.00    +0.000 HD
ATOM     16  H   UNL     1      48.351   1.368  17.412  0.00  0.00    +0.000 HD
ENDBRANCH   8  12
ENDBRANCH   3   5
ENDBRANCH   1   3
BRANCH   1  17
ATOM     17  C   UNL     1      49.204   9.079  12.375  0.00  0.00    +0.000 C 
BRANCH  17  22
ATOM     18  C   UNL     1      46.070   7.002  11.514  0.00  0.00    +0.000 A 
ATOM     19  C   UNL     1      45.077   7.868  12.005  0.00  0.00    +0.000 A 
ATOM     20  C   UNL     1      45.396   9.127  12.513  0.00  0.00    +0.000 A 
ATOM     21  C   UNL     1      46.726   9.537  12.580  0.00  0.00    +0.000 A 
ATOM     22  C   UNL     1      47.755   8.681  12.170  0.00  0.00    +0.000 A 
ATOM     23  C   UNL     1      47.412   7.429  11.627  0.00  0.00    +0.000 A 
BRANCH  18  27
ATOM     24  C   UNL     1      44.992   3.338   9.771  0.00  0.00    +0.000 A 
ATOM     25  C   UNL     1      44.958   3.551  11.132  0.00  0.00    +0.000 A 
ATOM     26  N   UNL     1      45.312   4.709  11.717  0.00  0.00    +0.000 NA
ATOM     27  C   UNL     1      45.716   5.706  10.900  0.00  0.00    +0.000 A 
ATOM     28  N   UNL     1      45.773   5.605   9.558  0.00  0.00    +0.000 NA
ATOM     29  C   UNL     1      45.406   4.423   9.027  0.00  0.00    +0.000 A 
BRANCH  24  31
ATOM     30  C   UNL     1      45.733   1.382   8.401  0.00  0.00    +0.000 C 
ATOM     31  C   UNL     1      44.583   2.044   9.143  0.00  0.00    +0.000 C 
ENDBRANCH  24  31
ENDBRANCH  18  27
ENDBRANCH  17  22
ENDBRANCH   1  17
TORSDOF 7
ENDMDL
MODEL 7
REMARK VINA RESULT:    -6.815      4.267      7.681
REMARK INTER + INTRA:         -10.495
REMARK INTER:                  -9.319
REMARK INTRA:                  -1.177
REMARK UNBOUND:                -0.892
REMARK  Name = 
REMARK  9 active torsions:
REMARK  status: ('A' for Active; 'I' for Inactive)
REMARK    1  A    between atoms: C_1  and  C_2
REMARK    2  A    between atoms: C_2  and  C_3
REMARK    3  A    between atoms: C_6  and  C_7
REMARK    4  A    between atoms: C_11  and  C_12
REMARK    5  A    between atoms: C_12  and  C_13
REMARK    6  A    between atoms: C_13  and  C_14
REMARK    7  A    between atoms: C_13  and  N_15
REMARK    8  A    between atoms: N_15  and  C_16
REMARK    9  A    between atoms: C_19  and  C_20
REMARK                            x       y       z     vdW  Elec       q    Type
REMARK                         _______ _______ _______ _____ _____    ______ ____
ROOT
ATOM      1  C   UNL     1      48.407   7.528  13.419  0.00  0.00    +0.000 C 
ATOM      2  C   UNL     1      49.871   7.571  13.877  0.00  0.00    +0.000 C 
ENDROOT
BRANCH   1   3
ATOM      3  N   UNL     1      47.702   6.371  14.034  0.00  0.00    +0.000 N 
ATOM      4  H   UNL     1      47.344   6.579  14.965  0.00  0.00    +0.000 HD
BRANCH   3   5
ATOM      5  C   UNL     1      46.793   5.612  13.285  0.00  0.00    +0.000 A 
ATOM      6  C   UNL     1      46.370   4.342  13.715  0.00  0.00    +0.000 A 
ATOM      7  N   UNL     1      45.533   3.509  13.037  0.00  0.00    +0.000 NA
ATOM      8  C   UNL     1      45.103   3.950  11.815  0.00  0.00    +0.000 A 
ATOM      9  C   UNL     1      45.495   5.167  11.280  0.00  0.00    +0.000 A 
ATOM     10  F   UNL     1      45.097   5.587  10.073  0.00  0.00    +0.000 F 
ATOM     11  C   UNL     1      46.348   5.983  12.016  0.00  0.00    +0.000 A 
BRANCH   8  12
ATOM     12  C   UNL     1      44.190   3.051  11.049  0.00  0.00    +0.000 C 
ATOM     13  N   UNL     1      44.775   2.340  10.034  0.00  0.00    +0.000 N 
ATOM     14  O   UNL     1      42.996   2.928  11.281  0.00  0.00    +0.000 OA
ATOM     15  H   UNL     1      45.765   2.454   9.836  0.00  0.00    +0.000 HD
ATOM     16  H   UNL     1      44.205   1.733   9.470  0.00  0.00    +0.000 HD
ENDBRANCH   8  12
ENDBRANCH   3   5
ENDBRANCH   1   3
BRANCH   1  17
ATOM     17  C   UNL     1      47.687   8.840  13.831  0.00  0.00    +0.000 C 
BRANCH  17  22
ATOM     18  C   UNL     1      45.349  10.717  11.404  0.00  0.00    +0.000 A 
ATOM     19  C   UNL     1      46.297  11.518  10.742  0.00  0.00    +0.000 A 
ATOM     20  C   UNL     1      47.662  11.392  10.999  0.00  0.00    +0.000 A 
ATOM     21  C   UNL     1      48.111  10.486  11.959  0.00  0.00    +0.000 A 
ATOM     22  C   UNL     1      47.200   9.719  12.694  0.00  0.00    +0.000 A 
ATOM     23  C   UNL     1      45.830   9.833  12.396  0.00  0.00    +0.000 A 
BRANCH  18  27
ATOM     24  C   UNL     1      41.277  11.016  10.429  0.00  0.00    +0.000 A 
ATOM     25  C   UNL     1      41.757  11.275  11.694  0.00  0.00    +0.000 A 
ATOM     26  N   UNL     1      43.054  11.172  12.037  0.00  0.00    +0.000 NA
ATOM     27  C   UNL     1      43.913  10.797  11.064  0.00  0.00    +0.000 A 
ATOM     28  N   UNL     1      43.548  10.533   9.795  0.00  0.00    +0.000 NA
ATOM     29  C   UNL     1      42.238  10.653   9.509  0.00  0.00    +0.000 A 
BRANCH  24  31
ATOM     30  C   UNL     1      39.346  12.585  10.172  0.00  0.00    +0.000 C 
ATOM     31  C   UNL     1      39.831  11.148  10.070  0.00  0.00    +0.000 C 
ENDBRANCH  24  31
ENDBRANCH  18  27
ENDBRANCH  17  22
ENDBRANCH   1  17
TORSDOF 7
ENDMDL
MODEL 8
REMARK VINA RESULT:    -6.716      4.213      8.356
REMARK INTER + INTRA:         -10.356
REMARK INTER:                  -9.490
REMARK INTRA:                  -0.867
REMARK UNBOUND:                -0.892
REMARK  Name = 
REMARK  9 active torsions:
REMARK  status: ('A' for Active; 'I' for Inactive)
REMARK    1  A    between atoms: C_1  and  C_2
REMARK    2  A    between atoms: C_2  and  C_3
REMARK    3  A    between atoms: C_6  and  C_7
REMARK    4  A    between atoms: C_11  and  C_12
REMARK    5  A    between atoms: C_12  and  C_13
REMARK    6  A    between atoms: C_13  and  C_14
REMARK    7  A    between atoms: C_13  and  N_15
REMARK    8  A    between atoms: N_15  and  C_16
REMARK    9  A    between atoms: C_19  and  C_20
REMARK                            x       y       z     vdW  Elec       q    Type
REMARK                         _______ _______ _______ _____ _____    ______ ____
ROOT
ATOM      1  C   UNL     1      45.929   6.833  12.591  0.00  0.00    +0.000 C 
ATOM      2  C   UNL     1      44.848   7.809  12.107  0.00  0.00    +0.000 C 
ENDROOT
BRANCH   1   3
ATOM      3  N   UNL     1      46.812   7.489  13.593  0.00  0.00    +0.000 N 
ATOM      4  H   UNL     1      46.740   7.063  14.517  0.00  0.00    +0.000 HD
BRANCH   3   5
ATOM      5  C   UNL     1      48.136   7.813  13.271  0.00  0.00    +0.000 A 
ATOM      6  C   UNL     1      48.508   8.153  11.959  0.00  0.00    +0.000 A 
ATOM      7  N   UNL     1      49.771   8.433  11.535  0.00  0.00    +0.000 NA
ATOM      8  C   UNL     1      50.758   8.336  12.478  0.00  0.00    +0.000 A 
ATOM      9  C   UNL     1      50.504   7.966  13.789  0.00  0.00    +0.000 A 
ATOM     10  F   UNL     1      51.473   7.844  14.706  0.00  0.00    +0.000 F 
ATOM     11  C   UNL     1      49.195   7.696  14.172  0.00  0.00    +0.000 A 
BRANCH   8  12
ATOM     12  C   UNL     1      52.153   8.632  12.037  0.00  0.00    +0.000 C 
ATOM     13  N   UNL     1      52.854   7.565  11.537  0.00  0.00    +0.000 N 
ATOM     14  O   UNL     1      52.673   9.737  12.098  0.00  0.00    +0.000 OA
ATOM     15  H   UNL     1      52.423   6.645  11.499  0.00  0.00    +0.000 HD
ATOM     16  H   UNL     1      53.806   7.699  11.243  0.00  0.00    +0.000 HD
ENDBRANCH   8  12
ENDBRANCH   3   5
ENDBRANCH   1   3
BRANCH   1  17
ATOM     17  C   UNL     1      45.264   5.587  13.235  0.00  0.00    +0.000 C 
BRANCH  17  22
ATOM     18  C   UNL     1      44.955   3.249  10.183  0.00  0.00    +0.000 A 
ATOM     19  C   UNL     1      43.876   2.454  10.609  0.00  0.00    +0.000 A 
ATOM     20  C   UNL     1      43.202   2.720  11.800  0.00  0.00    +0.000 A 
ATOM     21  C   UNL     1      43.619   3.768  12.619  0.00  0.00    +0.000 A 
ATOM     22  C   UNL     1      44.733   4.541  12.273  0.00  0.00    +0.000 A 
ATOM     23  C   UNL     1      45.378   4.282  11.050  0.00  0.00    +0.000 A 
BRANCH  18  27
ATOM     24  C   UNL     1      46.876   2.599   6.507  0.00  0.00    +0.000 A 
ATOM     25  C   UNL     1      46.452   3.846   6.912  0.00  0.00    +0.000 A 
ATOM     26  N   UNL     1      45.821   4.079   8.077  0.00  0.00    +0.000 NA
ATOM     27  C   UNL     1      45.608   3.013   8.879  0.00  0.00    +0.000 A 
ATOM     28  N   UNL     1      45.994   1.757   8.583  0.00  0.00    +0.000 NA
ATOM     29  C   UNL     1      46.622   1.583   7.404  0.00  0.00    +0.000 A 
BRANCH  24  31
ATOM     30  C   UNL     1      47.027   1.166   4.463  0.00  0.00    +0.000 C 
ATOM     31  C   UNL     1      47.584   2.367   5.211  0.00  0.00    +0.000 C 
ENDBRANCH  24  31
ENDBRANCH  18  27
ENDBRANCH  17  22
ENDBRANCH   1  17
TORSDOF 7
ENDMDL
MODEL 9
REMARK VINA RESULT:    -6.694      3.741      8.027
REMARK INTER + INTRA:         -10.326
REMARK INTER:                  -9.077
REMARK INTRA:                  -1.249
REMARK UNBOUND:                -0.892
REMARK  Name = 
REMARK  9 active torsions:
REMARK  status: ('A' for Active; 'I' for Inactive)
REMARK    1  A    between atoms: C_1  and  C_2
REMARK    2  A    between atoms: C_2  and  C_3
REMARK    3  A    between atoms: C_6  and  C_7
REMARK    4  A    between atoms: C_11  and  C_12
REMARK    5  A    between atoms: C_12  and  C_13
REMARK    6  A    between atoms: C_13  and  C_14
REMARK    7  A    between atoms: C_13  and  N_15
REMARK    8  A    between atoms: N_15  and  C_16
REMARK    9  A    between atoms: C_19  and  C_20
REMARK                            x       y       z     vdW  Elec       q    Type
REMARK                         _______ _______ _______ _____ _____    ______ ____
ROOT
ATOM      1  C   UNL     1      49.569   8.763  16.931  0.00  0.00    +0.000 C 
ATOM      2  C   UNL     1      50.063   9.985  17.718  0.00  0.00    +0.000 C 
ENDROOT
BRANCH   1   3
ATOM      3  N   UNL     1      48.933   7.777  17.846  0.00  0.00    +0.000 N 
ATOM      4  H   UNL     1      47.949   7.980  18.019  0.00  0.00    +0.000 HD
BRANCH   3   5
ATOM      5  C   UNL     1      49.160   6.404  17.681  0.00  0.00    +0.000 A 
ATOM      6  C   UNL     1      50.440   5.904  17.390  0.00  0.00    +0.000 A 
ATOM      7  N   UNL     1      50.753   4.598  17.162  0.00  0.00    +0.000 NA
ATOM      8  C   UNL     1      49.708   3.715  17.189  0.00  0.00    +0.000 A 
ATOM      9  C   UNL     1      48.401   4.111  17.423  0.00  0.00    +0.000 A 
ATOM     10  F   UNL     1      47.375   3.251  17.423  0.00  0.00    +0.000 F 
ATOM     11  C   UNL     1      48.137   5.456  17.656  0.00  0.00    +0.000 A 
BRANCH   8  12
ATOM     12  C   UNL     1      50.024   2.278  16.935  0.00  0.00    +0.000 C 
ATOM     13  N   UNL     1      50.856   1.685  17.849  0.00  0.00    +0.000 N 
ATOM     14  O   UNL     1      49.590   1.637  15.988  0.00  0.00    +0.000 OA
ATOM     15  H   UNL     1      51.224   2.224  18.628  0.00  0.00    +0.000 HD
ATOM     16  H   UNL     1      51.121   0.724  17.719  0.00  0.00    +0.000 HD
ENDBRANCH   8  12
ENDBRANCH   3   5
ENDBRANCH   1   3
BRANCH   1  17
ATOM     17  C   UNL     1      48.535   9.208  15.863  0.00  0.00    +0.000 C 
BRANCH  17  22
ATOM     18  C   UNL     1      47.745   7.173  12.682  0.00  0.00    +0.000 A 
ATOM     19  C   UNL     1      48.828   7.572  11.878  0.00  0.00    +0.000 A 
ATOM     20  C   UNL     1      49.837   8.397  12.373  0.00  0.00    +0.000 A 
ATOM     21  C   UNL     1      49.767   8.879  13.679  0.00  0.00    +0.000 A 
ATOM     22  C   UNL     1      48.672   8.568  14.494  0.00  0.00    +0.000 A 
ATOM     23  C   UNL     1      47.682   7.705  13.990  0.00  0.00    +0.000 A 
BRANCH  18  27
ATOM     24  C   UNL     1      44.904   4.451  11.219  0.00  0.00    +0.000 A 
ATOM     25  C   UNL     1      45.481   5.418  10.427  0.00  0.00    +0.000 A 
ATOM     26  N   UNL     1      46.382   6.312  10.873  0.00  0.00    +0.000 NA
ATOM     27  C   UNL     1      46.726   6.230  12.177  0.00  0.00    +0.000 A 
ATOM     28  N   UNL     1      46.232   5.315  13.032  0.00  0.00    +0.000 NA
ATOM     29  C   UNL     1      45.335   4.445  12.530  0.00  0.00    +0.000 A 
BRANCH  24  31
ATOM     30  C   UNL     1      43.320   2.607  11.806  0.00  0.00    +0.000 C 
ATOM     31  C   UNL     1      43.912   3.462  10.697  0.00  0.00    +0.000 C 
ENDBRANCH  24  31
ENDBRANCH  18  27
ENDBRANCH  17  22
ENDBRANCH   1  17
TORSDOF 7
ENDMDL
