MODEL 1
REMARK VINA RESULT:    -8.083      0.000      0.000
REMARK INTER + INTRA:         -12.712
REMARK INTER:                 -11.627
REMARK INTRA:                  -1.085
REMARK UNBOUND:                -1.085
REMARK  Name = 
REMARK  9 active torsions:
REMARK  status: ('A' for Active; 'I' for Inactive)
REMARK    1  A    between atoms: C_1  and  C_2
REMARK    2  A    between atoms: C_6  and  C_7
REMARK    3  A    between atoms: C_7  and  N_8
REMARK    4  A    between atoms: N_8  and  C_9
REMARK    5  A    between atoms: C_9  and  C_10
REMARK    6  A    between atoms: C_13  and  C_14
REMARK    7  A    between atoms: C_14  and  N_15
REMARK    8  A    between atoms: C_16  and  C_18
REMARK    9  A    between atoms: C_25  and  O_26
REMARK                            x       y       z     vdW  Elec       q    Type
REMARK                         _______ _______ _______ _____ _____    ______ ____
ROOT
ATOM      1  C   UNL     1      44.473   5.571  11.827  0.00  0.00    +0.000 A 
ATOM      2  C   UNL     1      45.300   6.618  11.395  0.00  0.00    +0.000 A 
ATOM      3  C   UNL     1      46.470   6.935  12.091  0.00  0.00    +0.000 A 
ATOM      4  C   UNL     1      46.838   6.207  13.230  0.00  0.00    +0.000 A 
ATOM      5  C   UNL     1      45.993   5.184  13.681  0.00  0.00    +0.000 A 
ATOM      6  C   UNL     1      44.824   4.867  12.985  0.00  0.00    +0.000 A 
ENDROOT
BRANCH   1   7
ATOM      7  C   UNL     1      43.241   5.188  11.037  0.00  0.00    +0.000 C 
BRANCH   7   8
ATOM      8  N   UNL     1      43.552   4.540   9.761  0.00  0.00    +0.000 NA
ATOM      9  H   UNL     1      42.681   4.374   9.254  0.00  0.00    +0.000 HD
BRANCH   8  10
ATOM     10  C   UNL     1      44.189   3.228   9.948  0.00  0.00    +0.000 C 
BRANCH  10  16
ATOM     11  C   UNL     1      46.927   0.023   7.500  0.00  0.00    +0.000 C 
ATOM     12  C   UNL     1      46.546   1.455   7.716  0.00  0.00    +0.000 A 
ATOM     13  C   UNL     1      47.143   2.473   6.980  0.00  0.00    +0.000 A 
ATOM     14  C   UNL     1      46.762   3.789   7.223  0.00  0.00    +0.000 A 
ATOM     15  C   UNL     1      45.803   4.050   8.194  0.00  0.00    +0.000 A 
ATOM     16  C   UNL     1      45.255   2.982   8.900  0.00  0.00    +0.000 A 
ATOM     17  N   UNL     1      45.607   1.692   8.663  0.00  0.00    +0.000 NA
ENDBRANCH  10  16
ENDBRANCH   8  10
ENDBRANCH   7   8
ENDBRANCH   1   7
BRANCH   4  18
ATOM     18  C   UNL     1      48.111   6.525  13.968  0.00  0.00    +0.000 C 
BRANCH  18  19
ATOM     19  N   UNL     1      47.948   6.373  15.390  0.00  0.00    +0.000 N 
ATOM     20  C   UNL     1      49.032   6.243  16.218  0.00  0.00    +0.000 C 
ATOM     21  O   UNL     1      50.185   6.302  15.795  0.00  0.00    +0.000 OA
ATOM     22  H   UNL     1      47.035   6.115  15.748  0.00  0.00    +0.000 HD
BRANCH  20  23
ATOM     23  C   UNL     1      48.741   6.104  17.649  0.00  0.00    +0.000 A 
ATOM     24  C   UNL     1      48.998   4.889  18.272  0.00  0.00    +0.000 A 
ATOM     25  S   UNL     1      48.673   4.900  19.942  0.00  0.00    +0.000 S 
ATOM     26  C   UNL     1      48.123   6.506  19.875  0.00  0.00    +0.000 A 
ATOM     27  N   UNL     1      47.676   7.102  21.000  0.00  0.00    +0.000 NA
ATOM     28  C   UNL     1      47.250   8.365  20.832  0.00  0.00    +0.000 A 
ATOM     29  C   UNL     1      47.241   9.049  19.634  0.00  0.00    +0.000 A 
ATOM     30  C   UNL     1      47.717   8.394  18.503  0.00  0.00    +0.000 A 
ATOM     31  C   UNL     1      48.194   7.060  18.597  0.00  0.00    +0.000 A 
BRANCH  30  32
ATOM     32  O   UNL     1      47.720   9.053  17.298  0.00  0.00    +0.000 OA
ATOM     33  H   UNL     1      48.355   8.623  16.698  0.00  0.00    +0.000 HD
ENDBRANCH  30  32
ENDBRANCH  20  23
ENDBRANCH  18  19
ENDBRANCH   4  18
TORSDOF 8
ENDMDL
MODEL 2
REMARK VINA RESULT:    -7.975      1.234      2.089
REMARK INTER + INTRA:         -12.557
REMARK INTER:                 -11.343
REMARK INTRA:                  -1.214
REMARK UNBOUND:                -1.085
REMARK  Name = 
REMARK  9 active torsions:
REMARK  status: ('A' for Active; 'I' for Inactive)
REMARK    1  A    between atoms: C_1  and  C_2
REMARK    2  A    between atoms: C_6  and  C_7
REMARK    3  A    between atoms: C_7  and  N_8
REMARK    4  A    between atoms: N_8  and  C_9
REMARK    5  A    between atoms: C_9  and  C_10
REMARK    6  A    between atoms: C_13  and  C_14
REMARK    7  A    between atoms: C_14  and  N_15
REMARK    8  A    between atoms: C_16  and  C_18
REMARK    9  A    between atoms: C_25  and  O_26
REMARK                            x       y       z     vdW  Elec       q    Type
REMARK                         _______ _______ _______ _____ _____    ______ ____
ROOT
ATOM      1  C   UNL     1      44.739   5.543  11.826  0.00  0.00    +0.000 A 
ATOM      2  C   UNL     1      45.082   4.917  13.033  0.00  0.00    +0.000 A 
ATOM      3  C   UNL     1      46.268   5.246  13.695  0.00  0.00    +0.000 A 
ATOM      4  C   UNL     1      47.132   6.213  13.165  0.00  0.00    +0.000 A 
ATOM      5  C   UNL     1      46.807   6.813  11.941  0.00  0.00    +0.000 A 
ATOM      6  C   UNL     1      45.621   6.484  11.280  0.00  0.00    +0.000 A 
ENDROOT
BRANCH   1   7
ATOM      7  C   UNL     1      43.425   5.232  11.144  0.00  0.00    +0.000 C 
BRANCH   7   8
ATOM      8  N   UNL     1      43.591   4.619   9.825  0.00  0.00    +0.000 NA
ATOM      9  H   UNL     1      42.676   4.547   9.377  0.00  0.00    +0.000 HD
BRANCH   8  10
ATOM     10  C   UNL     1      44.127   3.253   9.914  0.00  0.00    +0.000 C 
BRANCH  10  16
ATOM     11  C   UNL     1      46.950   0.090   7.506  0.00  0.00    +0.000 C 
ATOM     12  C   UNL     1      46.549   1.517   7.722  0.00  0.00    +0.000 A 
ATOM     13  C   UNL     1      47.151   2.546   7.005  0.00  0.00    +0.000 A 
ATOM     14  C   UNL     1      46.752   3.856   7.248  0.00  0.00    +0.000 A 
ATOM     15  C   UNL     1      45.769   4.101   8.199  0.00  0.00    +0.000 A 
ATOM     16  C   UNL     1      45.218   3.024   8.888  0.00  0.00    +0.000 A 
ATOM     17  N   UNL     1      45.588   1.739   8.651  0.00  0.00    +0.000 NA
ENDBRANCH  10  16
ENDBRANCH   8  10
ENDBRANCH   7   8
ENDBRANCH   1   7
BRANCH   4  18
ATOM     18  C   UNL     1      48.398   6.592  13.887  0.00  0.00    +0.000 C 
BRANCH  18  19
ATOM     19  N   UNL     1      48.136   6.969  15.250  0.00  0.00    +0.000 N 
ATOM     20  C   UNL     1      48.910   6.498  16.277  0.00  0.00    +0.000 C 
ATOM     21  O   UNL     1      49.888   5.780  16.079  0.00  0.00    +0.000 OA
ATOM     22  H   UNL     1      47.237   7.381  15.474  0.00  0.00    +0.000 HD
BRANCH  20  23
ATOM     23  C   UNL     1      48.552   6.959  17.623  0.00  0.00    +0.000 A 
ATOM     24  C   UNL     1      48.206   8.292  17.809  0.00  0.00    +0.000 A 
ATOM     25  S   UNL     1      47.752   8.660  19.406  0.00  0.00    +0.000 S 
ATOM     26  C   UNL     1      48.061   7.068  19.914  0.00  0.00    +0.000 A 
ATOM     27  N   UNL     1      47.881   6.739  21.210  0.00  0.00    +0.000 NA
ATOM     28  C   UNL     1      48.170   5.461  21.506  0.00  0.00    +0.000 A 
ATOM     29  C   UNL     1      48.620   4.517  20.607  0.00  0.00    +0.000 A 
ATOM     30  C   UNL     1      48.784   4.903  19.280  0.00  0.00    +0.000 A 
ATOM     31  C   UNL     1      48.493   6.235  18.882  0.00  0.00    +0.000 A 
BRANCH  30  32
ATOM     32  O   UNL     1      49.230   3.983  18.364  0.00  0.00    +0.000 OA
ATOM     33  H   UNL     1      48.469   3.620  17.876  0.00  0.00    +0.000 HD
ENDBRANCH  30  32
ENDBRANCH  20  23
ENDBRANCH  18  19
ENDBRANCH   4  18
TORSDOF 8
ENDMDL
MODEL 3
REMARK VINA RESULT:    -7.913      2.146      2.524
REMARK INTER + INTRA:         -12.467
REMARK INTER:                 -11.450
REMARK INTRA:                  -1.018
REMARK UNBOUND:                -1.085
REMARK  Name = 
REMARK  9 active torsions:
REMARK  status: ('A' for Active; 'I' for Inactive)
REMARK    1  A    between atoms: C_1  and  C_2
REMARK    2  A    between atoms: C_6  and  C_7
REMARK    3  A    between atoms: C_7  and  N_8
REMARK    4  A    between atoms: N_8  and  C_9
REMARK    5  A    between atoms: C_9  and  C_10
REMARK    6  A    between atoms: C_13  and  C_14
REMARK    7  A    between atoms: C_14  and  N_15
REMARK    8  A    between atoms: C_16  and  C_18
REMARK    9  A    between atoms: C_25  and  O_26
REMARK                            x       y       z     vdW  Elec       q    Type
REMARK                         _______ _______ _______ _____ _____    ______ ____
ROOT
ATOM      1  C   UNL     1      44.454   6.066  11.483  0.00  0.00    +0.000 A 
ATOM      2  C   UNL     1      45.671   5.449  11.803  0.00  0.00    +0.000 A 
ATOM      3  C   UNL     1      46.692   6.169  12.429  0.00  0.00    +0.000 A 
ATOM      4  C   UNL     1      46.513   7.520  12.754  0.00  0.00    +0.000 A 
ATOM      5  C   UNL     1      45.310   8.146  12.402  0.00  0.00    +0.000 A 
ATOM      6  C   UNL     1      44.289   7.426  11.777  0.00  0.00    +0.000 A 
ENDROOT
BRANCH   1   7
ATOM      7  C   UNL     1      43.327   5.271  10.863  0.00  0.00    +0.000 C 
BRANCH   7   8
ATOM      8  N   UNL     1      43.679   4.683   9.569  0.00  0.00    +0.000 NA
ATOM      9  H   UNL     1      42.852   4.682   8.971  0.00  0.00    +0.000 HD
BRANCH   8  10
ATOM     10  C   UNL     1      44.110   3.283   9.697  0.00  0.00    +0.000 C 
BRANCH  10  16
ATOM     11  C   UNL     1      46.913  -0.092   7.570  0.00  0.00    +0.000 C 
ATOM     12  C   UNL     1      46.559   1.358   7.703  0.00  0.00    +0.000 A 
ATOM     13  C   UNL     1      47.233   2.329   6.969  0.00  0.00    +0.000 A 
ATOM     14  C   UNL     1      46.875   3.663   7.134  0.00  0.00    +0.000 A 
ATOM     15  C   UNL     1      45.861   3.989   8.026  0.00  0.00    +0.000 A 
ATOM     16  C   UNL     1      45.237   2.966   8.735  0.00  0.00    +0.000 A 
ATOM     17  N   UNL     1      45.566   1.658   8.574  0.00  0.00    +0.000 NA
ENDBRANCH  10  16
ENDBRANCH   8  10
ENDBRANCH   7   8
ENDBRANCH   1   7
BRANCH   4  18
ATOM     18  C   UNL     1      47.599   8.294  13.453  0.00  0.00    +0.000 C 
BRANCH  18  19
ATOM     19  N   UNL     1      48.038   7.625  14.649  0.00  0.00    +0.000 N 
ATOM     20  C   UNL     1      49.349   7.270  14.822  0.00  0.00    +0.000 C 
ATOM     21  O   UNL     1      50.214   7.551  13.995  0.00  0.00    +0.000 OA
ATOM     22  H   UNL     1      47.340   7.198  15.249  0.00  0.00    +0.000 HD
BRANCH  20  23
ATOM     23  C   UNL     1      49.679   6.601  16.085  0.00  0.00    +0.000 A 
ATOM     24  C   UNL     1      50.813   6.999  16.783  0.00  0.00    +0.000 A 
ATOM     25  S   UNL     1      51.026   6.179  18.257  0.00  0.00    +0.000 S 
ATOM     26  C   UNL     1      49.648   5.224  17.983  0.00  0.00    +0.000 A 
ATOM     27  N   UNL     1      49.296   4.290  18.892  0.00  0.00    +0.000 NA
ATOM     28  C   UNL     1      48.201   3.582  18.569  0.00  0.00    +0.000 A 
ATOM     29  C   UNL     1      47.457   3.745  17.420  0.00  0.00    +0.000 A 
ATOM     30  C   UNL     1      47.856   4.725  16.516  0.00  0.00    +0.000 A 
ATOM     31  C   UNL     1      48.998   5.524  16.786  0.00  0.00    +0.000 A 
BRANCH  30  32
ATOM     32  O   UNL     1      47.132   4.909  15.364  0.00  0.00    +0.000 OA
ATOM     33  H   UNL     1      46.613   4.105  15.179  0.00  0.00    +0.000 HD
ENDBRANCH  30  32
ENDBRANCH  20  23
ENDBRANCH  18  19
ENDBRANCH   4  18
TORSDOF 8
ENDMDL
MODEL 4
REMARK VINA RESULT:    -7.516      3.114      5.019
REMARK INTER + INTRA:         -11.897
REMARK INTER:                 -10.972
REMARK INTRA:                  -0.925
REMARK UNBOUND:                -1.085
REMARK  Name = 
REMARK  9 active torsions:
REMARK  status: ('A' for Active; 'I' for Inactive)
REMARK    1  A    between atoms: C_1  and  C_2
REMARK    2  A    between atoms: C_6  and  C_7
REMARK    3  A    between atoms: C_7  and  N_8
REMARK    4  A    between atoms: N_8  and  C_9
REMARK    5  A    between atoms: C_9  and  C_10
REMARK    6  A    between atoms: C_13  and  C_14
REMARK    7  A    between atoms: C_14  and  N_15
REMARK    8  A    between atoms: C_16  and  C_18
REMARK    9  A    between atoms: C_25  and  O_26
REMARK                            x       y       z     vdW  Elec       q    Type
REMARK                         _______ _______ _______ _____ _____    ______ ____
ROOT
ATOM      1  C   UNL     1      45.789   3.380   7.925  0.00  0.00    +0.000 A 
ATOM      2  C   UNL     1      45.246   2.399   8.765  0.00  0.00    +0.000 A 
ATOM      3  C   UNL     1      44.804   2.725  10.051  0.00  0.00    +0.000 A 
ATOM      4  C   UNL     1      44.893   4.042  10.519  0.00  0.00    +0.000 A 
ATOM      5  C   UNL     1      45.468   5.017   9.692  0.00  0.00    +0.000 A 
ATOM      6  C   UNL     1      45.908   4.690   8.407  0.00  0.00    +0.000 A 
ENDROOT
BRANCH   1   7
ATOM      7  C   UNL     1      46.207   3.039   6.512  0.00  0.00    +0.000 C 
BRANCH   7   8
ATOM      8  N   UNL     1      46.896   1.751   6.410  0.00  0.00    +0.000 NA
ATOM      9  H   UNL     1      47.560   1.670   7.182  0.00  0.00    +0.000 HD
BRANCH   8  10
ATOM     10  C   UNL     1      47.676   1.639   5.169  0.00  0.00    +0.000 C 
BRANCH  10  16
ATOM     11  C   UNL     1      46.912  -2.855   3.439  0.00  0.00    +0.000 C 
ATOM     12  C   UNL     1      46.594  -1.395   3.349  0.00  0.00    +0.000 A 
ATOM     13  C   UNL     1      45.701  -0.914   2.395  0.00  0.00    +0.000 A 
ATOM     14  C   UNL     1      45.445   0.452   2.344  0.00  0.00    +0.000 A 
ATOM     15  C   UNL     1      46.087   1.297   3.240  0.00  0.00    +0.000 A 
ATOM     16  C   UNL     1      46.977   0.749   4.161  0.00  0.00    +0.000 A 
ATOM     17  N   UNL     1      47.226  -0.584   4.231  0.00  0.00    +0.000 NA
ENDBRANCH  10  16
ENDBRANCH   8  10
ENDBRANCH   7   8
ENDBRANCH   1   7
BRANCH   4  18
ATOM     18  C   UNL     1      44.394   4.406  11.892  0.00  0.00    +0.000 C 
BRANCH  18  19
ATOM     19  N   UNL     1      45.375   5.159  12.627  0.00  0.00    +0.000 N 
ATOM     20  C   UNL     1      46.287   4.535  13.436  0.00  0.00    +0.000 C 
ATOM     21  O   UNL     1      46.344   3.311  13.530  0.00  0.00    +0.000 OA
ATOM     22  H   UNL     1      45.234   6.157  12.741  0.00  0.00    +0.000 HD
BRANCH  20  23
ATOM     23  C   UNL     1      47.243   5.406  14.129  0.00  0.00    +0.000 A 
ATOM     24  C   UNL     1      47.741   6.521  13.465  0.00  0.00    +0.000 A 
ATOM     25  S   UNL     1      48.785   7.468  14.417  0.00  0.00    +0.000 S 
ATOM     26  C   UNL     1      48.653   6.390  15.724  0.00  0.00    +0.000 A 
ATOM     27  N   UNL     1      49.341   6.636  16.858  0.00  0.00    +0.000 NA
ATOM     28  C   UNL     1      49.178   5.713  17.821  0.00  0.00    +0.000 A 
ATOM     29  C   UNL     1      48.390   4.585  17.718  0.00  0.00    +0.000 A 
ATOM     30  C   UNL     1      47.695   4.379  16.530  0.00  0.00    +0.000 A 
ATOM     31  C   UNL     1      47.806   5.312  15.465  0.00  0.00    +0.000 A 
BRANCH  30  32
ATOM     32  O   UNL     1      46.903   3.265  16.401  0.00  0.00    +0.000 OA
ATOM     33  H   UNL     1      47.249   2.556  16.975  0.00  0.00    +0.000 HD
ENDBRANCH  30  32
ENDBRANCH  20  23
ENDBRANCH  18  19
ENDBRANCH   4  18
TORSDOF 8
ENDMDL
MODEL 5
REMARK VINA RESULT:    -7.437      3.145      8.930
REMARK INTER + INTRA:         -11.782
REMARK INTER:                 -10.194
REMARK INTRA:                  -1.589
REMARK UNBOUND:                -1.085
REMARK  Name = 
REMARK  9 active torsions:
REMARK  status: ('A' for Active; 'I' for Inactive)
REMARK    1  A    between atoms: C_1  and  C_2
REMARK    2  A    between atoms: C_6  and  C_7
REMARK    3  A    between atoms: C_7  and  N_8
REMARK    4  A    between atoms: N_8  and  C_9
REMARK    5  A    between atoms: C_9  and  C_10
REMARK    6  A    between atoms: C_13  and  C_14
REMARK    7  A    between atoms: C_14  and  N_15
REMARK    8  A    between atoms: C_16  and  C_18
REMARK    9  A    between atoms: C_25  and  O_26
REMARK                            x       y       z     vdW  Elec       q    Type
REMARK                         _______ _______ _______ _____ _____    ______ ____
ROOT
ATOM      1  C   UNL     1      48.931   7.991  16.170  0.00  0.00    +0.000 A 
ATOM      2  C   UNL     1      48.400   9.139  15.564  0.00  0.00    +0.000 A 
ATOM      3  C   UNL     1      47.927   9.097  14.249  0.00  0.00    +0.000 A 
ATOM      4  C   UNL     1      47.972   7.905  13.516  0.00  0.00    +0.000 A 
ATOM      5  C   UNL     1      48.536   6.766  14.109  0.00  0.00    +0.000 A 
ATOM      6  C   UNL     1      49.007   6.808  15.423  0.00  0.00    +0.000 A 
ENDROOT
BRANCH   1   7
ATOM      7  C   UNL     1      49.383   8.022  17.613  0.00  0.00    +0.000 C 
BRANCH   7   8
ATOM      8  N   UNL     1      48.369   7.525  18.545  0.00  0.00    +0.000 NA
ATOM      9  H   UNL     1      48.194   8.239  19.254  0.00  0.00    +0.000 HD
BRANCH   8  10
ATOM     10  C   UNL     1      48.818   6.322  19.260  0.00  0.00    +0.000 C 
BRANCH  10  16
ATOM     11  C   UNL     1      50.658   2.275  17.258  0.00  0.00    +0.000 C 
ATOM     12  C   UNL     1      49.453   3.132  17.498  0.00  0.00    +0.000 A 
ATOM     13  C   UNL     1      48.208   2.775  16.989  0.00  0.00    +0.000 A 
ATOM     14  C   UNL     1      47.121   3.609  17.230  0.00  0.00    +0.000 A 
ATOM     15  C   UNL     1      47.308   4.773  17.965  0.00  0.00    +0.000 A 
ATOM     16  C   UNL     1      48.584   5.073  18.434  0.00  0.00    +0.000 A 
ATOM     17  N   UNL     1      49.652   4.262  18.219  0.00  0.00    +0.000 NA
ENDBRANCH  10  16
ENDBRANCH   8  10
ENDBRANCH   7   8
ENDBRANCH   1   7
BRANCH   4  18
ATOM     18  C   UNL     1      47.440   7.845  12.109  0.00  0.00    +0.000 C 
BRANCH  18  19
ATOM     19  N   UNL     1      46.798   6.586  11.839  0.00  0.00    +0.000 N 
ATOM     20  C   UNL     1      45.446   6.432  11.996  0.00  0.00    +0.000 C 
ATOM     21  O   UNL     1      44.717   7.367  12.320  0.00  0.00    +0.000 OA
ATOM     22  H   UNL     1      47.374   5.754  11.774  0.00  0.00    +0.000 HD
BRANCH  20  23
ATOM     23  C   UNL     1      44.905   5.105  11.683  0.00  0.00    +0.000 A 
ATOM     24  C   UNL     1      44.277   4.380  12.688  0.00  0.00    +0.000 A 
ATOM     25  S   UNL     1      43.644   2.893  12.159  0.00  0.00    +0.000 S 
ATOM     26  C   UNL     1      44.241   3.140  10.588  0.00  0.00    +0.000 A 
ATOM     27  N   UNL     1      44.042   2.195   9.646  0.00  0.00    +0.000 NA
ATOM     28  C   UNL     1      44.569   2.484   8.444  0.00  0.00    +0.000 A 
ATOM     29  C   UNL     1      45.268   3.633   8.137  0.00  0.00    +0.000 A 
ATOM     30  C   UNL     1      45.442   4.581   9.141  0.00  0.00    +0.000 A 
ATOM     31  C   UNL     1      44.909   4.356  10.437  0.00  0.00    +0.000 A 
BRANCH  30  32
ATOM     32  O   UNL     1      46.134   5.733   8.861  0.00  0.00    +0.000 OA
ATOM     33  H   UNL     1      45.602   6.502   9.137  0.00  0.00    +0.000 HD
ENDBRANCH  30  32
ENDBRANCH  20  23
ENDBRANCH  18  19
ENDBRANCH   4  18
TORSDOF 8
ENDMDL
MODEL 6
REMARK VINA RESULT:    -7.360      3.249      5.275
REMARK INTER + INTRA:         -11.673
REMARK INTER:                 -10.863
REMARK INTRA:                  -0.810
REMARK UNBOUND:                -1.085
REMARK  Name = 
REMARK  9 active torsions:
REMARK  status: ('A' for Active; 'I' for Inactive)
REMARK    1  A    between atoms: C_1  and  C_2
REMARK    2  A    between atoms: C_6  and  C_7
REMARK    3  A    between atoms: C_7  and  N_8
REMARK    4  A    between atoms: N_8  and  C_9
REMARK    5  A    between atoms: C_9  and  C_10
REMARK    6  A    between atoms: C_13  and  C_14
REMARK    7  A    between atoms: C_14  and  N_15
REMARK    8  A    between atoms: C_16  and  C_18
REMARK    9  A    between atoms: C_25  and  O_26
REMARK                            x       y       z     vdW  Elec       q    Type
REMARK                         _______ _______ _______ _____ _____    ______ ____
ROOT
ATOM      1  C   UNL     1      45.712   3.374   7.967  0.00  0.00    +0.000 A 
ATOM      2  C   UNL     1      45.036   2.422   8.743  0.00  0.00    +0.000 A 
ATOM      3  C   UNL     1      44.529   2.758  10.001  0.00  0.00    +0.000 A 
ATOM      4  C   UNL     1      44.685   4.056  10.506  0.00  0.00    +0.000 A 
ATOM      5  C   UNL     1      45.392   4.997   9.746  0.00  0.00    +0.000 A 
ATOM      6  C   UNL     1      45.897   4.661   8.488  0.00  0.00    +0.000 A 
ENDROOT
BRANCH   1   7
ATOM      7  C   UNL     1      46.204   3.026   6.579  0.00  0.00    +0.000 C 
BRANCH   7   8
ATOM      8  N   UNL     1      46.915   1.748   6.523  0.00  0.00    +0.000 NA
ATOM      9  H   UNL     1      47.563   1.695   7.310  0.00  0.00    +0.000 HD
BRANCH   8  10
ATOM     10  C   UNL     1      47.723   1.619   5.301  0.00  0.00    +0.000 C 
BRANCH  10  16
ATOM     11  C   UNL     1      46.822  -2.821   3.498  0.00  0.00    +0.000 C 
ATOM     12  C   UNL     1      46.567  -1.347   3.416  0.00  0.00    +0.000 A 
ATOM     13  C   UNL     1      45.722  -0.820   2.445  0.00  0.00    +0.000 A 
ATOM     14  C   UNL     1      45.525   0.556   2.402  0.00  0.00    +0.000 A 
ATOM     15  C   UNL     1      46.176   1.364   3.326  0.00  0.00    +0.000 A 
ATOM     16  C   UNL     1      47.016   0.769   4.264  0.00  0.00    +0.000 A 
ATOM     17  N   UNL     1      47.207  -0.574   4.325  0.00  0.00    +0.000 NA
ENDBRANCH  10  16
ENDBRANCH   8  10
ENDBRANCH   7   8
ENDBRANCH   1   7
BRANCH   4  18
ATOM     18  C   UNL     1      44.118   4.433  11.849  0.00  0.00    +0.000 C 
BRANCH  18  19
ATOM     19  N   UNL     1      45.113   5.042  12.690  0.00  0.00    +0.000 N 
ATOM     20  C   UNL     1      46.038   4.284  13.357  0.00  0.00    +0.000 C 
ATOM     21  O   UNL     1      46.094   3.063  13.229  0.00  0.00    +0.000 OA
ATOM     22  H   UNL     1      44.976   6.003  12.984  0.00  0.00    +0.000 HD
BRANCH  20  23
ATOM     23  C   UNL     1      47.007   5.017  14.178  0.00  0.00    +0.000 A 
ATOM     24  C   UNL     1      47.231   4.606  15.486  0.00  0.00    +0.000 A 
ATOM     25  S   UNL     1      48.426   5.510  16.289  0.00  0.00    +0.000 S 
ATOM     26  C   UNL     1      48.641   6.519  14.938  0.00  0.00    +0.000 A 
ATOM     27  N   UNL     1      49.534   7.529  15.000  0.00  0.00    +0.000 NA
ATOM     28  C   UNL     1      49.612   8.273  13.884  0.00  0.00    +0.000 A 
ATOM     29  C   UNL     1      48.868   8.074  12.740  0.00  0.00    +0.000 A 
ATOM     30  C   UNL     1      47.966   7.015  12.723  0.00  0.00    +0.000 A 
ATOM     31  C   UNL     1      47.828   6.174  13.859  0.00  0.00    +0.000 A 
BRANCH  30  32
ATOM     32  O   UNL     1      47.213   6.794  11.596  0.00  0.00    +0.000 OA
ATOM     33  H   UNL     1      47.466   5.939  11.203  0.00  0.00    +0.000 HD
ENDBRANCH  30  32
ENDBRANCH  20  23
ENDBRANCH  18  19
ENDBRANCH   4  18
TORSDOF 8
ENDMDL
MODEL 7
REMARK VINA RESULT:    -7.017      3.487      5.377
REMARK INTER + INTRA:         -11.178
REMARK INTER:                  -9.891
REMARK INTRA:                  -1.288
REMARK UNBOUND:                -1.085
REMARK  Name = 
REMARK  9 active torsions:
REMARK  status: ('A' for Active; 'I' for Inactive)
REMARK    1  A    between atoms: C_1  and  C_2
REMARK    2  A    between atoms: C_6  and  C_7
REMARK    3  A    between atoms: C_7  and  N_8
REMARK    4  A    between atoms: N_8  and  C_9
REMARK    5  A    between atoms: C_9  and  C_10
REMARK    6  A    between atoms: C_13  and  C_14
REMARK    7  A    between atoms: C_14  and  N_15
REMARK    8  A    between atoms: C_16  and  C_18
REMARK    9  A    between atoms: C_25  and  O_26
REMARK                            x       y       z     vdW  Elec       q    Type
REMARK                         _______ _______ _______ _____ _____    ______ ____
ROOT
ATOM      1  C   UNL     1      47.478   5.920  13.987  0.00  0.00    +0.000 A 
ATOM      2  C   UNL     1      46.974   4.613  13.937  0.00  0.00    +0.000 A 
ATOM      3  C   UNL     1      47.124   3.748  15.024  0.00  0.00    +0.000 A 
ATOM      4  C   UNL     1      47.777   4.177  16.187  0.00  0.00    +0.000 A 
ATOM      5  C   UNL     1      48.313   5.472  16.224  0.00  0.00    +0.000 A 
ATOM      6  C   UNL     1      48.162   6.335  15.137  0.00  0.00    +0.000 A 
ENDROOT
BRANCH   1   7
ATOM      7  C   UNL     1      47.259   6.875  12.835  0.00  0.00    +0.000 C 
BRANCH   7   8
ATOM      8  N   UNL     1      45.910   7.441  12.803  0.00  0.00    +0.000 NA
ATOM      9  H   UNL     1      45.369   7.048  13.575  0.00  0.00    +0.000 HD
BRANCH   8  10
ATOM     10  C   UNL     1      45.194   7.096  11.566  0.00  0.00    +0.000 C 
BRANCH  10  16
ATOM     11  C   UNL     1      44.465   2.677   9.641  0.00  0.00    +0.000 C 
ATOM     12  C   UNL     1      44.202   3.622  10.772  0.00  0.00    +0.000 A 
ATOM     13  C   UNL     1      43.405   3.246  11.849  0.00  0.00    +0.000 A 
ATOM     14  C   UNL     1      43.181   4.162  12.871  0.00  0.00    +0.000 A 
ATOM     15  C   UNL     1      43.755   5.425  12.789  0.00  0.00    +0.000 A 
ATOM     16  C   UNL     1      44.533   5.737  11.677  0.00  0.00    +0.000 A 
ATOM     17  N   UNL     1      44.771   4.848  10.678  0.00  0.00    +0.000 NA
ENDBRANCH  10  16
ENDBRANCH   8  10
ENDBRANCH   7   8
ENDBRANCH   1   7
BRANCH   4  18
ATOM     18  C   UNL     1      47.919   3.260  17.373  0.00  0.00    +0.000 C 
BRANCH  18  19
ATOM     19  N   UNL     1      49.300   3.056  17.721  0.00  0.00    +0.000 N 
ATOM     20  C   UNL     1      50.092   2.196  17.007  0.00  0.00    +0.000 C 
ATOM     21  O   UNL     1      49.678   1.604  16.013  0.00  0.00    +0.000 OA
ATOM     22  H   UNL     1      49.618   3.356  18.636  0.00  0.00    +0.000 HD
BRANCH  20  23
ATOM     23  C   UNL     1      51.484   2.078  17.451  0.00  0.00    +0.000 A 
ATOM     24  C   UNL     1      52.013   0.813  17.679  0.00  0.00    +0.000 A 
ATOM     25  S   UNL     1      53.654   0.833  18.125  0.00  0.00    +0.000 S 
ATOM     26  C   UNL     1      53.696   2.531  18.088  0.00  0.00    +0.000 A 
ATOM     27  N   UNL     1      54.840   3.174  18.401  0.00  0.00    +0.000 NA
ATOM     28  C   UNL     1      54.758   4.514  18.356  0.00  0.00    +0.000 A 
ATOM     29  C   UNL     1      53.627   5.232  18.027  0.00  0.00    +0.000 A 
ATOM     30  C   UNL     1      52.474   4.524  17.705  0.00  0.00    +0.000 A 
ATOM     31  C   UNL     1      52.478   3.104  17.721  0.00  0.00    +0.000 A 
BRANCH  30  32
ATOM     32  O   UNL     1      51.334   5.214  17.374  0.00  0.00    +0.000 OA
ATOM     33  H   UNL     1      50.967   5.632  18.174  0.00  0.00    +0.000 HD
ENDBRANCH  30  32
ENDBRANCH  20  23
ENDBRANCH  18  19
ENDBRANCH   4  18
TORSDOF 8
ENDMDL
MODEL 8
REMARK VINA RESULT:    -6.929      3.465      8.519
REMARK INTER + INTRA:         -11.052
REMARK INTER:                  -9.451
REMARK INTRA:                  -1.601
REMARK UNBOUND:                -1.085
REMARK  Name = 
REMARK  9 active torsions:
REMARK  status: ('A' for Active; 'I' for Inactive)
REMARK    1  A    between atoms: C_1  and  C_2
REMARK    2  A    between atoms: C_6  and  C_7
REMARK    3  A    between atoms: C_7  and  N_8
REMARK    4  A    between atoms: N_8  and  C_9
REMARK    5  A    between atoms: C_9  and  C_10
REMARK    6  A    between atoms: C_13  and  C_14
REMARK    7  A    between atoms: C_14  and  N_15
REMARK    8  A    between atoms: C_16  and  C_18
REMARK    9  A    between atoms: C_25  and  O_26
REMARK                            x       y       z     vdW  Elec       q    Type
REMARK                         _______ _______ _______ _____ _____    ______ ____
ROOT
ATOM      1  C   UNL     1      48.840   7.857  16.372  0.00  0.00    +0.000 A 
ATOM      2  C   UNL     1      49.133   6.805  15.493  0.00  0.00    +0.000 A 
ATOM      3  C   UNL     1      48.956   6.957  14.115  0.00  0.00    +0.000 A 
ATOM      4  C   UNL     1      48.488   8.167  13.588  0.00  0.00    +0.000 A 
ATOM      5  C   UNL     1      48.162   9.207  14.470  0.00  0.00    +0.000 A 
ATOM      6  C   UNL     1      48.340   9.055  15.846  0.00  0.00    +0.000 A 
ENDROOT
BRANCH   1   7
ATOM      7  C   UNL     1      49.092   7.714  17.857  0.00  0.00    +0.000 C 
BRANCH   7   8
ATOM      8  N   UNL     1      47.972   7.104  18.575  0.00  0.00    +0.000 NA
ATOM      9  H   UNL     1      47.642   7.756  19.288  0.00  0.00    +0.000 HD
BRANCH   8  10
ATOM     10  C   UNL     1      48.370   5.876  19.279  0.00  0.00    +0.000 C 
BRANCH  10  16
ATOM     11  C   UNL     1      50.943   2.191  17.389  0.00  0.00    +0.000 C 
ATOM     12  C   UNL     1      49.638   2.923  17.446  0.00  0.00    +0.000 A 
ATOM     13  C   UNL     1      48.554   2.515  16.675  0.00  0.00    +0.000 A 
ATOM     14  C   UNL     1      47.365   3.233  16.754  0.00  0.00    +0.000 A 
ATOM     15  C   UNL     1      47.293   4.336  17.597  0.00  0.00    +0.000 A 
ATOM     16  C   UNL     1      48.421   4.693  18.332  0.00  0.00    +0.000 A 
ATOM     17  N   UNL     1      49.583   3.994  18.274  0.00  0.00    +0.000 NA
ENDBRANCH  10  16
ENDBRANCH   8  10
ENDBRANCH   7   8
ENDBRANCH   1   7
BRANCH   4  18
ATOM     18  C   UNL     1      48.322   8.347  12.103  0.00  0.00    +0.000 C 
BRANCH  18  19
ATOM     19  N   UNL     1      47.649   7.223  11.507  0.00  0.00    +0.000 N 
ATOM     20  C   UNL     1      46.282   7.144  11.487  0.00  0.00    +0.000 C 
ATOM     21  O   UNL     1      45.571   8.045  11.926  0.00  0.00    +0.000 OA
ATOM     22  H   UNL     1      48.183   6.380  11.326  0.00  0.00    +0.000 HD
BRANCH  20  23
ATOM     23  C   UNL     1      45.711   5.955  10.845  0.00  0.00    +0.000 A 
ATOM     24  C   UNL     1      45.973   5.725   9.500  0.00  0.00    +0.000 A 
ATOM     25  S   UNL     1      45.300   4.277   8.914  0.00  0.00    +0.000 S 
ATOM     26  C   UNL     1      44.586   3.942  10.419  0.00  0.00    +0.000 A 
ATOM     27  N   UNL     1      43.840   2.827  10.566  0.00  0.00    +0.000 NA
ATOM     28  C   UNL     1      43.310   2.667  11.790  0.00  0.00    +0.000 A 
ATOM     29  C   UNL     1      43.475   3.536  12.849  0.00  0.00    +0.000 A 
ATOM     30  C   UNL     1      44.258   4.668  12.650  0.00  0.00    +0.000 A 
ATOM     31  C   UNL     1      44.862   4.908  11.387  0.00  0.00    +0.000 A 
BRANCH  30  32
ATOM     32  O   UNL     1      44.439   5.549  13.688  0.00  0.00    +0.000 OA
ATOM     33  H   UNL     1      44.912   5.101  14.412  0.00  0.00    +0.000 HD
ENDBRANCH  30  32
ENDBRANCH  20  23
ENDBRANCH  18  19
ENDBRANCH   4  18
TORSDOF 8
ENDMDL
MODEL 9
REMARK VINA RESULT:    -6.855      5.312      7.415
REMARK INTER + INTRA:         -10.946
REMARK INTER:                  -9.757
REMARK INTRA:                  -1.190
REMARK UNBOUND:                -1.085
REMARK  Name = 
REMARK  9 active torsions:
REMARK  status: ('A' for Active; 'I' for Inactive)
REMARK    1  A    between atoms: C_1  and  C_2
REMARK    2  A    between atoms: C_6  and  C_7
REMARK    3  A    between atoms: C_7  and  N_8
REMARK    4  A    between atoms: N_8  and  C_9
REMARK    5  A    between atoms: C_9  and  C_10
REMARK    6  A    between atoms: C_13  and  C_14
REMARK    7  A    between atoms: C_14  and  N_15
REMARK    8  A    between atoms: C_16  and  C_18
REMARK    9  A    between atoms: C_25  and  O_26
REMARK                            x       y       z     vdW  Elec       q    Type
REMARK                         _______ _______ _______ _____ _____    ______ ____
ROOT
ATOM      1  C   UNL     1      45.988   5.312  12.519  0.00  0.00    +0.000 A 
ATOM      2  C   UNL     1      46.957   5.151  13.519  0.00  0.00    +0.000 A 
ATOM      3  C   UNL     1      48.109   5.942  13.529  0.00  0.00    +0.000 A 
ATOM      4  C   UNL     1      48.312   6.913  12.540  0.00  0.00    +0.000 A 
ATOM      5  C   UNL     1      47.360   7.050  11.520  0.00  0.00    +0.000 A 
ATOM      6  C   UNL     1      46.209   6.260  11.512  0.00  0.00    +0.000 A 
ENDROOT
BRANCH   1   7
ATOM      7  C   UNL     1      44.712   4.500  12.546  0.00  0.00    +0.000 C 
BRANCH   7   8
ATOM      8  N   UNL     1      44.842   3.199  11.887  0.00  0.00    +0.000 NA
ATOM      9  H   UNL     1      45.824   3.045  11.651  0.00  0.00    +0.000 HD
BRANCH   8  10
ATOM     10  C   UNL     1      44.091   3.142  10.624  0.00  0.00    +0.000 C 
BRANCH  10  16
ATOM     11  C   UNL     1      46.815   0.462   7.596  0.00  0.00    +0.000 C 
ATOM     12  C   UNL     1      46.307   1.820   7.973  0.00  0.00    +0.000 A 
ATOM     13  C   UNL     1      46.679   2.950   7.252  0.00  0.00    +0.000 A 
ATOM     14  C   UNL     1      46.189   4.190   7.647  0.00  0.00    +0.000 A 
ATOM     15  C   UNL     1      45.347   4.268   8.750  0.00  0.00    +0.000 A 
ATOM     16  C   UNL     1      45.026   3.097   9.432  0.00  0.00    +0.000 A 
ATOM     17  N   UNL     1      45.485   1.878   9.049  0.00  0.00    +0.000 NA
ENDBRANCH  10  16
ENDBRANCH   8  10
ENDBRANCH   7   8
ENDBRANCH   1   7
BRANCH   4  18
ATOM     18  C   UNL     1      49.538   7.787  12.560  0.00  0.00    +0.000 C 
BRANCH  18  19
ATOM     19  N   UNL     1      50.475   7.407  11.536  0.00  0.00    +0.000 N 
ATOM     20  C   UNL     1      51.452   8.268  11.114  0.00  0.00    +0.000 C 
ATOM     21  O   UNL     1      51.607   9.376  11.621  0.00  0.00    +0.000 OA
ATOM     22  H   UNL     1      50.259   6.602  10.958  0.00  0.00    +0.000 HD
BRANCH  20  23
ATOM     23  C   UNL     1      52.353   7.765  10.071  0.00  0.00    +0.000 A 
ATOM     24  C   UNL     1      52.802   6.452  10.145  0.00  0.00    +0.000 A 
ATOM     25  S   UNL     1      53.783   5.994   8.834  0.00  0.00    +0.000 S 
ATOM     26  C   UNL     1      53.691   7.550   8.157  0.00  0.00    +0.000 A 
ATOM     27  N   UNL     1      54.351   7.815   7.010  0.00  0.00    +0.000 NA
ATOM     28  C   UNL     1      54.223   9.079   6.572  0.00  0.00    +0.000 A 
ATOM     29  C   UNL     1      53.495  10.069   7.198  0.00  0.00    +0.000 A 
ATOM     30  C   UNL     1      52.827   9.745   8.374  0.00  0.00    +0.000 A 
ATOM     31  C   UNL     1      52.903   8.429   8.901  0.00  0.00    +0.000 A 
BRANCH  30  32
ATOM     32  O   UNL     1      52.095  10.713   9.018  0.00  0.00    +0.000 OA
ATOM     33  H   UNL     1      52.617  11.535   9.062  0.00  0.00    +0.000 HD
ENDBRANCH  30  32
ENDBRANCH  20  23
ENDBRANCH  18  19
ENDBRANCH   4  18
TORSDOF 8
ENDMDL
