MODEL 1
REMARK VINA RESULT:    -8.140      0.000      0.000
REMARK INTER + INTRA:         -12.229
REMARK INTER:                 -10.995
REMARK INTRA:                  -1.233
REMARK UNBOUND:                -1.233
REMARK  Name = 
REMARK  6 active torsions:
REMARK  status: ('A' for Active; 'I' for Inactive)
REMARK    1  A    between atoms: C_2  and  C_25
REMARK    2  A    between atoms: N_3  and  C_4
REMARK    3  A    between atoms: C_4  and  C_5
REMARK    4  A    between atoms: C_8  and  C_9
REMARK    5  A    between atoms: C_9  and  N_10
REMARK    6  A    between atoms: C_11  and  C_13
REMARK                            x       y       z     vdW  Elec       q    Type
REMARK                         _______ _______ _______ _____ _____    ______ ____
ROOT
ATOM      1  C   UNL     1      44.890   5.597  10.721  0.00  0.00    +0.000 A 
ATOM      2  C   UNL     1      44.254   6.106  11.861  0.00  0.00    +0.000 A 
ATOM      3  C   UNL     1      44.939   6.946  12.747  0.00  0.00    +0.000 A 
ATOM      4  C   UNL     1      46.269   7.311  12.500  0.00  0.00    +0.000 A 
ATOM      5  C   UNL     1      46.902   6.807  11.356  0.00  0.00    +0.000 A 
ATOM      6  C   UNL     1      46.217   5.969  10.469  0.00  0.00    +0.000 A 
ENDROOT
BRANCH   1   7
ATOM      7  C   UNL     1      44.172   4.644   9.803  0.00  0.00    +0.000 C 
BRANCH   7  10
ATOM      8  O   UNL     1      45.198   2.080   9.668  0.00  0.00    +0.000 OA
ATOM      9  C   UNL     1      45.445   2.855   8.748  0.00  0.00    +0.000 C 
ATOM     10  N   UNL     1      45.005   4.164   8.724  0.00  0.00    +0.000 N 
ATOM     11  H   UNL     1      45.024   4.689   7.860  0.00  0.00    +0.000 HD
BRANCH   9  12
ATOM     12  C   UNL     1      46.215   2.377   7.573  0.00  0.00    +0.000 A 
ATOM     13  C   UNL     1      46.736   1.083   7.605  0.00  0.00    +0.000 A 
ATOM     14  C   UNL     1      47.479   0.656   6.521  0.00  0.00    +0.000 A 
ATOM     15  N   UNL     1      47.733   1.425   5.443  0.00  0.00    +0.000 NA
ATOM     16  C   UNL     1      47.238   2.681   5.451  0.00  0.00    +0.000 A 
ATOM     17  C   UNL     1      46.476   3.203   6.480  0.00  0.00    +0.000 A 
ENDBRANCH   9  12
ENDBRANCH   7  10
ENDBRANCH   1   7
BRANCH   4  18
ATOM     18  C   UNL     1      47.020   8.195  13.462  0.00  0.00    +0.000 C 
BRANCH  18  19
ATOM     19  N   UNL     1      47.453   7.466  14.629  0.00  0.00    +0.000 N 
ATOM     20  C   UNL     1      48.696   6.886  14.679  0.00  0.00    +0.000 C 
ATOM     21  O   UNL     1      49.500   6.998  13.756  0.00  0.00    +0.000 OA
ATOM     22  H   UNL     1      46.736   7.177  15.288  0.00  0.00    +0.000 HD
BRANCH  20  23
ATOM     23  C   UNL     1      49.045   6.169  15.912  0.00  0.00    +0.000 A 
ATOM     24  C   UNL     1      50.132   6.591  16.666  0.00  0.00    +0.000 A 
ATOM     25  S   UNL     1      50.368   5.693  18.094  0.00  0.00    +0.000 S 
ATOM     26  C   UNL     1      49.057   4.670  17.732  0.00  0.00    +0.000 A 
ATOM     27  N   UNL     1      48.723   3.643  18.558  0.00  0.00    +0.000 NA
ATOM     28  C   UNL     1      47.731   2.930  18.147  0.00  0.00    +0.000 A 
ATOM     29  N   UNL     1      47.039   3.152  16.983  0.00  0.00    +0.000 N 
ATOM     30  C   UNL     1      47.322   4.193  16.133  0.00  0.00    +0.000 A 
ATOM     31  O   UNL     1      46.655   4.390  15.121  0.00  0.00    +0.000 OA
ATOM     32  C   UNL     1      48.436   5.022  16.546  0.00  0.00    +0.000 A 
ATOM     33  H   UNL     1      46.265   2.557  16.721  0.00  0.00    +0.000 HD
ENDBRANCH  20  23
ENDBRANCH  18  19
ENDBRANCH   4  18
TORSDOF 6
ENDMDL
MODEL 2
REMARK VINA RESULT:    -7.890      1.283      1.602
REMARK INTER + INTRA:         -11.892
REMARK INTER:                 -10.995
REMARK INTRA:                  -0.897
REMARK UNBOUND:                -1.233
REMARK  Name = 
REMARK  6 active torsions:
REMARK  status: ('A' for Active; 'I' for Inactive)
REMARK    1  A    between atoms: C_2  and  C_25
REMARK    2  A    between atoms: N_3  and  C_4
REMARK    3  A    between atoms: C_4  and  C_5
REMARK    4  A    between atoms: C_8  and  C_9
REMARK    5  A    between atoms: C_9  and  N_10
REMARK    6  A    between atoms: C_11  and  C_13
REMARK                            x       y       z     vdW  Elec       q    Type
REMARK                         _______ _______ _______ _____ _____    ______ ____
ROOT
ATOM      1  C   UNL     1      45.095   4.701  11.474  0.00  0.00    +0.000 A 
ATOM      2  C   UNL     1      45.814   4.381  12.633  0.00  0.00    +0.000 A 
ATOM      3  C   UNL     1      46.593   5.347  13.280  0.00  0.00    +0.000 A 
ATOM      4  C   UNL     1      46.652   6.660  12.794  0.00  0.00    +0.000 A 
ATOM      5  C   UNL     1      45.928   6.981  11.639  0.00  0.00    +0.000 A 
ATOM      6  C   UNL     1      45.148   6.016  10.992  0.00  0.00    +0.000 A 
ENDROOT
BRANCH   1   7
ATOM      7  C   UNL     1      44.308   3.646  10.743  0.00  0.00    +0.000 C 
BRANCH   7  10
ATOM      8  O   UNL     1      44.645   4.300   8.078  0.00  0.00    +0.000 OA
ATOM      9  C   UNL     1      45.229   3.313   8.512  0.00  0.00    +0.000 C 
ATOM     10  N   UNL     1      45.113   2.880   9.820  0.00  0.00    +0.000 N 
ATOM     11  H   UNL     1      45.779   2.219  10.195  0.00  0.00    +0.000 HD
BRANCH   9  12
ATOM     12  C   UNL     1      46.143   2.551   7.626  0.00  0.00    +0.000 A 
ATOM     13  C   UNL     1      46.582   3.159   6.449  0.00  0.00    +0.000 A 
ATOM     14  C   UNL     1      47.407   2.432   5.612  0.00  0.00    +0.000 A 
ATOM     15  N   UNL     1      47.801   1.169   5.869  0.00  0.00    +0.000 NA
ATOM     16  C   UNL     1      47.340   0.597   7.001  0.00  0.00    +0.000 A 
ATOM     17  C   UNL     1      46.518   1.238   7.910  0.00  0.00    +0.000 A 
ENDBRANCH   9  12
ENDBRANCH   7  10
ENDBRANCH   1   7
BRANCH   4  18
ATOM     18  C   UNL     1      47.508   7.699  13.472  0.00  0.00    +0.000 C 
BRANCH  18  19
ATOM     19  N   UNL     1      47.738   7.376  14.859  0.00  0.00    +0.000 N 
ATOM     20  C   UNL     1      48.979   6.986  15.298  0.00  0.00    +0.000 C 
ATOM     21  O   UNL     1      49.946   6.935  14.540  0.00  0.00    +0.000 OA
ATOM     22  H   UNL     1      46.921   7.196  15.436  0.00  0.00    +0.000 HD
BRANCH  20  23
ATOM     23  C   UNL     1      49.113   6.683  16.728  0.00  0.00    +0.000 A 
ATOM     24  C   UNL     1      49.559   7.669  17.599  0.00  0.00    +0.000 A 
ATOM     25  S   UNL     1      49.603   7.177  19.229  0.00  0.00    +0.000 S 
ATOM     26  C   UNL     1      49.079   5.609  18.827  0.00  0.00    +0.000 A 
ATOM     27  N   UNL     1      48.927   4.656  19.785  0.00  0.00    +0.000 NA
ATOM     28  C   UNL     1      48.556   3.505  19.336  0.00  0.00    +0.000 A 
ATOM     29  N   UNL     1      48.319   3.221  18.016  0.00  0.00    +0.000 N 
ATOM     30  C   UNL     1      48.432   4.159  17.018  0.00  0.00    +0.000 A 
ATOM     31  O   UNL     1      48.170   3.882  15.850  0.00  0.00    +0.000 OA
ATOM     32  C   UNL     1      48.855   5.469  17.467  0.00  0.00    +0.000 A 
ATOM     33  H   UNL     1      48.024   2.297  17.731  0.00  0.00    +0.000 HD
ENDBRANCH  20  23
ENDBRANCH  18  19
ENDBRANCH   4  18
TORSDOF 6
ENDMDL
MODEL 3
REMARK VINA RESULT:    -7.854      2.222      3.713
REMARK INTER + INTRA:         -11.842
REMARK INTER:                 -10.773
REMARK INTRA:                  -1.069
REMARK UNBOUND:                -1.233
REMARK  Name = 
REMARK  6 active torsions:
REMARK  status: ('A' for Active; 'I' for Inactive)
REMARK    1  A    between atoms: C_2  and  C_25
REMARK    2  A    between atoms: N_3  and  C_4
REMARK    3  A    between atoms: C_4  and  C_5
REMARK    4  A    between atoms: C_8  and  C_9
REMARK    5  A    between atoms: C_9  and  N_10
REMARK    6  A    between atoms: C_11  and  C_13
REMARK                            x       y       z     vdW  Elec       q    Type
REMARK                         _______ _______ _______ _____ _____    ______ ____
ROOT
ATOM      1  C   UNL     1      44.779   4.394  10.963  0.00  0.00    +0.000 A 
ATOM      2  C   UNL     1      45.163   5.638  11.480  0.00  0.00    +0.000 A 
ATOM      3  C   UNL     1      45.828   5.726  12.709  0.00  0.00    +0.000 A 
ATOM      4  C   UNL     1      46.141   4.571  13.436  0.00  0.00    +0.000 A 
ATOM      5  C   UNL     1      45.762   3.327  12.916  0.00  0.00    +0.000 A 
ATOM      6  C   UNL     1      45.099   3.237  11.686  0.00  0.00    +0.000 A 
ENDROOT
BRANCH   1   7
ATOM      7  C   UNL     1      44.010   4.304   9.672  0.00  0.00    +0.000 C 
BRANCH   7  10
ATOM      8  O   UNL     1      46.239   4.962   8.175  0.00  0.00    +0.000 OA
ATOM      9  C   UNL     1      45.751   3.846   8.031  0.00  0.00    +0.000 C 
ATOM     10  N   UNL     1      44.624   3.419   8.708  0.00  0.00    +0.000 N 
ATOM     11  H   UNL     1      44.396   2.436   8.743  0.00  0.00    +0.000 HD
BRANCH   9  12
ATOM     12  C   UNL     1      46.405   2.870   7.125  0.00  0.00    +0.000 A 
ATOM     13  C   UNL     1      46.748   1.618   7.637  0.00  0.00    +0.000 A 
ATOM     14  C   UNL     1      47.385   0.725   6.797  0.00  0.00    +0.000 A 
ATOM     15  N   UNL     1      47.700   1.003   5.516  0.00  0.00    +0.000 NA
ATOM     16  C   UNL     1      47.380   2.231   5.055  0.00  0.00    +0.000 A 
ATOM     17  C   UNL     1      46.734   3.194   5.809  0.00  0.00    +0.000 A 
ENDBRANCH   9  12
ENDBRANCH   7  10
ENDBRANCH   1   7
BRANCH   4  18
ATOM     18  C   UNL     1      46.834   4.661  14.772  0.00  0.00    +0.000 C 
BRANCH  18  19
ATOM     19  N   UNL     1      47.530   5.915  14.927  0.00  0.00    +0.000 N 
ATOM     20  C   UNL     1      48.601   6.029  15.778  0.00  0.00    +0.000 C 
ATOM     21  O   UNL     1      49.032   5.066  16.408  0.00  0.00    +0.000 OA
ATOM     22  H   UNL     1      47.057   6.752  14.599  0.00  0.00    +0.000 HD
BRANCH  20  23
ATOM     23  C   UNL     1      49.244   7.346  15.863  0.00  0.00    +0.000 A 
ATOM     24  C   UNL     1      49.389   7.959  17.101  0.00  0.00    +0.000 A 
ATOM     25  S   UNL     1      50.206   9.452  17.038  0.00  0.00    +0.000 S 
ATOM     26  C   UNL     1      50.352   9.362  15.344  0.00  0.00    +0.000 A 
ATOM     27  N   UNL     1      50.948  10.361  14.640  0.00  0.00    +0.000 NA
ATOM     28  C   UNL     1      50.961  10.178  13.363  0.00  0.00    +0.000 A 
ATOM     29  N   UNL     1      50.433   9.084  12.726  0.00  0.00    +0.000 N 
ATOM     30  C   UNL     1      49.846   8.038  13.398  0.00  0.00    +0.000 A 
ATOM     31  O   UNL     1      49.423   7.053  12.800  0.00  0.00    +0.000 OA
ATOM     32  C   UNL     1      49.799   8.198  14.837  0.00  0.00    +0.000 A 
ATOM     33  H   UNL     1      50.481   9.000  11.720  0.00  0.00    +0.000 HD
ENDBRANCH  20  23
ENDBRANCH  18  19
ENDBRANCH   4  18
TORSDOF 6
ENDMDL
MODEL 4
REMARK VINA RESULT:    -7.790      3.336      5.990
REMARK INTER + INTRA:         -11.755
REMARK INTER:                 -10.770
REMARK INTRA:                  -0.985
REMARK UNBOUND:                -1.233
REMARK  Name = 
REMARK  6 active torsions:
REMARK  status: ('A' for Active; 'I' for Inactive)
REMARK    1  A    between atoms: C_2  and  C_25
REMARK    2  A    between atoms: N_3  and  C_4
REMARK    3  A    between atoms: C_4  and  C_5
REMARK    4  A    between atoms: C_8  and  C_9
REMARK    5  A    between atoms: C_9  and  N_10
REMARK    6  A    between atoms: C_11  and  C_13
REMARK                            x       y       z     vdW  Elec       q    Type
REMARK                         _______ _______ _______ _____ _____    ______ ____
ROOT
ATOM      1  C   UNL     1      46.900   2.145   6.617  0.00  0.00    +0.000 A 
ATOM      2  C   UNL     1      46.515   3.490   6.701  0.00  0.00    +0.000 A 
ATOM      3  C   UNL     1      45.753   3.948   7.782  0.00  0.00    +0.000 A 
ATOM      4  C   UNL     1      45.377   3.076   8.812  0.00  0.00    +0.000 A 
ATOM      5  C   UNL     1      45.767   1.734   8.730  0.00  0.00    +0.000 A 
ATOM      6  C   UNL     1      46.531   1.274   7.651  0.00  0.00    +0.000 A 
ENDROOT
BRANCH   1   7
ATOM      7  C   UNL     1      47.666   1.640   5.424  0.00  0.00    +0.000 C 
BRANCH   7  10
ATOM      8  O   UNL     1      46.561   0.805   3.031  0.00  0.00    +0.000 OA
ATOM      9  C   UNL     1      46.841  -0.045   3.870  0.00  0.00    +0.000 C 
ATOM     10  N   UNL     1      47.374   0.260   5.108  0.00  0.00    +0.000 N 
ATOM     11  H   UNL     1      47.803  -0.463   5.667  0.00  0.00    +0.000 HD
BRANCH   9  12
ATOM     12  C   UNL     1      46.648  -1.482   3.553  0.00  0.00    +0.000 A 
ATOM     13  C   UNL     1      46.629  -2.396   4.608  0.00  0.00    +0.000 A 
ATOM     14  C   UNL     1      46.481  -3.735   4.303  0.00  0.00    +0.000 A 
ATOM     15  N   UNL     1      46.364  -4.204   3.044  0.00  0.00    +0.000 NA
ATOM     16  C   UNL     1      46.411  -3.300   2.043  0.00  0.00    +0.000 A 
ATOM     17  C   UNL     1      46.548  -1.938   2.239  0.00  0.00    +0.000 A 
ENDBRANCH   9  12
ENDBRANCH   7  10
ENDBRANCH   1   7
BRANCH   4  18
ATOM     18  C   UNL     1      44.535   3.558   9.966  0.00  0.00    +0.000 C 
BRANCH  18  19
ATOM     19  N   UNL     1      45.092   4.743  10.572  0.00  0.00    +0.000 N 
ATOM     20  C   UNL     1      44.282   5.698  11.134  0.00  0.00    +0.000 C 
ATOM     21  O   UNL     1      43.060   5.564  11.178  0.00  0.00    +0.000 OA
ATOM     22  H   UNL     1      46.056   4.972  10.346  0.00  0.00    +0.000 HD
BRANCH  20  23
ATOM     23  C   UNL     1      44.944   6.865  11.729  0.00  0.00    +0.000 A 
ATOM     24  C   UNL     1      44.554   8.142  11.348  0.00  0.00    +0.000 A 
ATOM     25  S   UNL     1      45.375   9.386  12.172  0.00  0.00    +0.000 S 
ATOM     26  C   UNL     1      46.323   8.265  13.033  0.00  0.00    +0.000 A 
ATOM     27  N   UNL     1      47.269   8.682  13.915  0.00  0.00    +0.000 NA
ATOM     28  C   UNL     1      47.935   7.727  14.472  0.00  0.00    +0.000 A 
ATOM     29  N   UNL     1      47.737   6.392  14.229  0.00  0.00    +0.000 N 
ATOM     30  C   UNL     1      46.774   5.924  13.367  0.00  0.00    +0.000 A 
ATOM     31  O   UNL     1      46.594   4.720  13.206  0.00  0.00    +0.000 OA
ATOM     32  C   UNL     1      46.002   6.957  12.708  0.00  0.00    +0.000 A 
ATOM     33  H   UNL     1      48.290   5.693  14.704  0.00  0.00    +0.000 HD
ENDBRANCH  20  23
ENDBRANCH  18  19
ENDBRANCH   4  18
TORSDOF 6
ENDMDL
MODEL 5
REMARK VINA RESULT:    -7.723      2.459      2.856
REMARK INTER + INTRA:         -11.665
REMARK INTER:                 -10.630
REMARK INTRA:                  -1.035
REMARK UNBOUND:                -1.233
REMARK  Name = 
REMARK  6 active torsions:
REMARK  status: ('A' for Active; 'I' for Inactive)
REMARK    1  A    between atoms: C_2  and  C_25
REMARK    2  A    between atoms: N_3  and  C_4
REMARK    3  A    between atoms: C_4  and  C_5
REMARK    4  A    between atoms: C_8  and  C_9
REMARK    5  A    between atoms: C_9  and  N_10
REMARK    6  A    between atoms: C_11  and  C_13
REMARK                            x       y       z     vdW  Elec       q    Type
REMARK                         _______ _______ _______ _____ _____    ______ ____
ROOT
ATOM      1  C   UNL     1      45.541   4.667  11.783  0.00  0.00    +0.000 A 
ATOM      2  C   UNL     1      45.917   5.952  11.370  0.00  0.00    +0.000 A 
ATOM      3  C   UNL     1      46.782   6.729  12.151  0.00  0.00    +0.000 A 
ATOM      4  C   UNL     1      47.304   6.229  13.351  0.00  0.00    +0.000 A 
ATOM      5  C   UNL     1      46.932   4.942  13.760  0.00  0.00    +0.000 A 
ATOM      6  C   UNL     1      46.069   4.164  12.980  0.00  0.00    +0.000 A 
ENDROOT
BRANCH   1   7
ATOM      7  C   UNL     1      44.562   3.857  10.975  0.00  0.00    +0.000 C 
BRANCH   7  10
ATOM      8  O   UNL     1      44.938   4.611   8.342  0.00  0.00    +0.000 OA
ATOM      9  C   UNL     1      45.357   3.515   8.698  0.00  0.00    +0.000 C 
ATOM     10  N   UNL     1      45.203   3.026   9.982  0.00  0.00    +0.000 N 
ATOM     11  H   UNL     1      45.756   2.241  10.295  0.00  0.00    +0.000 HD
BRANCH   9  12
ATOM     12  C   UNL     1      46.106   2.667   7.738  0.00  0.00    +0.000 A 
ATOM     13  C   UNL     1      46.365   1.341   8.087  0.00  0.00    +0.000 A 
ATOM     14  C   UNL     1      47.090   0.566   7.203  0.00  0.00    +0.000 A 
ATOM     15  N   UNL     1      47.567   1.026   6.028  0.00  0.00    +0.000 NA
ATOM     16  C   UNL     1      47.324   2.319   5.728  0.00  0.00    +0.000 A 
ATOM     17  C   UNL     1      46.602   3.177   6.538  0.00  0.00    +0.000 A 
ENDBRANCH   9  12
ENDBRANCH   7  10
ENDBRANCH   1   7
BRANCH   4  18
ATOM     18  C   UNL     1      48.216   7.069  14.208  0.00  0.00    +0.000 C 
BRANCH  18  19
ATOM     19  N   UNL     1      48.042   6.781  15.611  0.00  0.00    +0.000 N 
ATOM     20  C   UNL     1      49.093   6.348  16.380  0.00  0.00    +0.000 C 
ATOM     21  O   UNL     1      50.226   6.228  15.917  0.00  0.00    +0.000 OA
ATOM     22  H   UNL     1      47.090   6.657  15.945  0.00  0.00    +0.000 HD
BRANCH  20  23
ATOM     23  C   UNL     1      48.816   6.085  17.798  0.00  0.00    +0.000 A 
ATOM     24  C   UNL     1      49.083   4.829  18.327  0.00  0.00    +0.000 A 
ATOM     25  S   UNL     1      48.763   4.704  19.995  0.00  0.00    +0.000 S 
ATOM     26  C   UNL     1      48.205   6.311  20.064  0.00  0.00    +0.000 A 
ATOM     27  N   UNL     1      47.748   6.842  21.228  0.00  0.00    +0.000 NA
ATOM     28  C   UNL     1      47.326   8.057  21.130  0.00  0.00    +0.000 A 
ATOM     29  N   UNL     1      47.322   8.791  19.972  0.00  0.00    +0.000 N 
ATOM     30  C   UNL     1      47.800   8.305  18.778  0.00  0.00    +0.000 A 
ATOM     31  O   UNL     1      47.823   9.004  17.768  0.00  0.00    +0.000 OA
ATOM     32  C   UNL     1      48.280   6.939  18.832  0.00  0.00    +0.000 A 
ATOM     33  H   UNL     1      46.982   9.742  19.964  0.00  0.00    +0.000 HD
ENDBRANCH  20  23
ENDBRANCH  18  19
ENDBRANCH   4  18
TORSDOF 6
ENDMDL
MODEL 6
REMARK VINA RESULT:    -7.306      3.666      5.074
REMARK INTER + INTRA:         -11.102
REMARK INTER:                  -9.971
REMARK INTRA:                  -1.132
REMARK UNBOUND:                -1.233
REMARK  Name = 
REMARK  6 active torsions:
REMARK  status: ('A' for Active; 'I' for Inactive)
REMARK    1  A    between atoms: C_2  and  C_25
REMARK    2  A    between atoms: N_3  and  C_4
REMARK    3  A    between atoms: C_4  and  C_5
REMARK    4  A    between atoms: C_8  and  C_9
REMARK    5  A    between atoms: C_9  and  N_10
REMARK    6  A    between atoms: C_11  and  C_13
REMARK                            x       y       z     vdW  Elec       q    Type
REMARK                         _______ _______ _______ _____ _____    ______ ____
ROOT
ATOM      1  C   UNL     1      44.773   4.847  11.718  0.00  0.00    +0.000 A 
ATOM      2  C   UNL     1      44.333   6.114  11.312  0.00  0.00    +0.000 A 
ATOM      3  C   UNL     1      44.866   7.274  11.887  0.00  0.00    +0.000 A 
ATOM      4  C   UNL     1      45.865   7.192  12.865  0.00  0.00    +0.000 A 
ATOM      5  C   UNL     1      46.309   5.925  13.266  0.00  0.00    +0.000 A 
ATOM      6  C   UNL     1      45.778   4.765  12.691  0.00  0.00    +0.000 A 
ENDROOT
BRANCH   1   7
ATOM      7  C   UNL     1      44.156   3.600  11.144  0.00  0.00    +0.000 C 
BRANCH   7  10
ATOM      8  O   UNL     1      44.326   4.063   8.424  0.00  0.00    +0.000 OA
ATOM      9  C   UNL     1      45.063   3.216   8.917  0.00  0.00    +0.000 C 
ATOM     10  N   UNL     1      45.046   2.885  10.259  0.00  0.00    +0.000 N 
ATOM     11  H   UNL     1      45.813   2.366  10.663  0.00  0.00    +0.000 HD
BRANCH   9  12
ATOM     12  C   UNL     1      46.061   2.525   8.063  0.00  0.00    +0.000 A 
ATOM     13  C   UNL     1      46.811   3.291   7.169  0.00  0.00    +0.000 A 
ATOM     14  C   UNL     1      47.715   2.637   6.355  0.00  0.00    +0.000 A 
ATOM     15  N   UNL     1      47.904   1.303   6.373  0.00  0.00    +0.000 NA
ATOM     16  C   UNL     1      47.148   0.584   7.229  0.00  0.00    +0.000 A 
ATOM     17  C   UNL     1      46.221   1.140   8.092  0.00  0.00    +0.000 A 
ENDBRANCH   9  12
ENDBRANCH   7  10
ENDBRANCH   1   7
BRANCH   4  18
ATOM     18  C   UNL     1      46.425   8.436  13.506  0.00  0.00    +0.000 C 
BRANCH  18  19
ATOM     19  N   UNL     1      47.705   8.794  12.944  0.00  0.00    +0.000 N 
ATOM     20  C   UNL     1      47.807   9.762  11.976  0.00  0.00    +0.000 C 
ATOM     21  O   UNL     1      46.824  10.386  11.581  0.00  0.00    +0.000 OA
ATOM     22  H   UNL     1      48.474   8.145  13.089  0.00  0.00    +0.000 HD
BRANCH  20  23
ATOM     23  C   UNL     1      49.153  10.057  11.470  0.00  0.00    +0.000 A 
ATOM     24  C   UNL     1      49.484  11.360  11.123  0.00  0.00    +0.000 A 
ATOM     25  S   UNL     1      51.098  11.546  10.611  0.00  0.00    +0.000 S 
ATOM     26  C   UNL     1      51.402   9.880  10.784  0.00  0.00    +0.000 A 
ATOM     27  N   UNL     1      52.619   9.357  10.479  0.00  0.00    +0.000 NA
ATOM     28  C   UNL     1      52.701   8.078  10.625  0.00  0.00    +0.000 A 
ATOM     29  N   UNL     1      51.675   7.274  11.052  0.00  0.00    +0.000 N 
ATOM     30  C   UNL     1      50.437   7.763  11.399  0.00  0.00    +0.000 A 
ATOM     31  O   UNL     1      49.554   7.020  11.819  0.00  0.00    +0.000 OA
ATOM     32  C   UNL     1      50.290   9.195  11.244  0.00  0.00    +0.000 A 
ATOM     33  H   UNL     1      51.807   6.277  11.151  0.00  0.00    +0.000 HD
ENDBRANCH  20  23
ENDBRANCH  18  19
ENDBRANCH   4  18
TORSDOF 6
ENDMDL
MODEL 7
REMARK VINA RESULT:    -7.100      2.750      4.721
REMARK INTER + INTRA:         -10.824
REMARK INTER:                 -10.134
REMARK INTRA:                  -0.690
REMARK UNBOUND:                -1.233
REMARK  Name = 
REMARK  6 active torsions:
REMARK  status: ('A' for Active; 'I' for Inactive)
REMARK    1  A    between atoms: C_2  and  C_25
REMARK    2  A    between atoms: N_3  and  C_4
REMARK    3  A    between atoms: C_4  and  C_5
REMARK    4  A    between atoms: C_8  and  C_9
REMARK    5  A    between atoms: C_9  and  N_10
REMARK    6  A    between atoms: C_11  and  C_13
REMARK                            x       y       z     vdW  Elec       q    Type
REMARK                         _______ _______ _______ _____ _____    ______ ____
ROOT
ATOM      1  C   UNL     1      46.393   3.386   7.282  0.00  0.00    +0.000 A 
ATOM      2  C   UNL     1      46.066   4.548   7.995  0.00  0.00    +0.000 A 
ATOM      3  C   UNL     1      45.438   4.467   9.243  0.00  0.00    +0.000 A 
ATOM      4  C   UNL     1      45.142   3.223   9.815  0.00  0.00    +0.000 A 
ATOM      5  C   UNL     1      45.475   2.062   9.105  0.00  0.00    +0.000 A 
ATOM      6  C   UNL     1      46.105   2.141   7.857  0.00  0.00    +0.000 A 
ENDROOT
BRANCH   1   7
ATOM      7  C   UNL     1      47.011   3.475   5.912  0.00  0.00    +0.000 C 
BRANCH   7  10
ATOM      8  O   UNL     1      48.405   1.230   5.101  0.00  0.00    +0.000 OA
ATOM      9  C   UNL     1      47.267   1.394   4.674  0.00  0.00    +0.000 C 
ATOM     10  N   UNL     1      46.489   2.490   4.993  0.00  0.00    +0.000 N 
ATOM     11  H   UNL     1      45.494   2.474   4.818  0.00  0.00    +0.000 HD
BRANCH   9  12
ATOM     12  C   UNL     1      46.653   0.360   3.803  0.00  0.00    +0.000 A 
ATOM     13  C   UNL     1      45.752   0.772   2.821  0.00  0.00    +0.000 A 
ATOM     14  C   UNL     1      45.160  -0.198   2.035  0.00  0.00    +0.000 A 
ATOM     15  N   UNL     1      45.401  -1.517   2.173  0.00  0.00    +0.000 NA
ATOM     16  C   UNL     1      46.257  -1.889   3.148  0.00  0.00    +0.000 A 
ATOM     17  C   UNL     1      46.908  -0.999   3.983  0.00  0.00    +0.000 A 
ENDBRANCH   9  12
ENDBRANCH   7  10
ENDBRANCH   1   7
BRANCH   4  18
ATOM     18  C   UNL     1      44.445   3.128  11.148  0.00  0.00    +0.000 C 
BRANCH  18  19
ATOM     19  N   UNL     1      45.344   3.410  12.240  0.00  0.00    +0.000 N 
ATOM     20  C   UNL     1      45.461   4.678  12.752  0.00  0.00    +0.000 C 
ATOM     21  O   UNL     1      44.781   5.610  12.329  0.00  0.00    +0.000 OA
ATOM     22  H   UNL     1      46.061   2.718  12.441  0.00  0.00    +0.000 HD
BRANCH  20  23
ATOM     23  C   UNL     1      46.400   4.861  13.866  0.00  0.00    +0.000 A 
ATOM     24  C   UNL     1      46.268   4.083  15.008  0.00  0.00    +0.000 A 
ATOM     25  S   UNL     1      47.467   4.376  16.181  0.00  0.00    +0.000 S 
ATOM     26  C   UNL     1      48.179   5.593  15.228  0.00  0.00    +0.000 A 
ATOM     27  N   UNL     1      49.264   6.282  15.672  0.00  0.00    +0.000 NA
ATOM     28  C   UNL     1      49.680   7.197  14.863  0.00  0.00    +0.000 A 
ATOM     29  N   UNL     1      49.111   7.484  13.649  0.00  0.00    +0.000 N 
ATOM     30  C   UNL     1      48.032   6.795  13.148  0.00  0.00    +0.000 A 
ATOM     31  O   UNL     1      47.573   7.049  12.038  0.00  0.00    +0.000 OA
ATOM     32  C   UNL     1      47.519   5.760  14.022  0.00  0.00    +0.000 A 
ATOM     33  H   UNL     1      49.490   8.212  13.060  0.00  0.00    +0.000 HD
ENDBRANCH  20  23
ENDBRANCH  18  19
ENDBRANCH   4  18
TORSDOF 6
ENDMDL
MODEL 8
REMARK VINA RESULT:    -6.928      4.336      7.233
REMARK INTER + INTRA:         -10.591
REMARK INTER:                  -9.556
REMARK INTRA:                  -1.035
REMARK UNBOUND:                -1.233
REMARK  Name = 
REMARK  6 active torsions:
REMARK  status: ('A' for Active; 'I' for Inactive)
REMARK    1  A    between atoms: C_2  and  C_25
REMARK    2  A    between atoms: N_3  and  C_4
REMARK    3  A    between atoms: C_4  and  C_5
REMARK    4  A    between atoms: C_8  and  C_9
REMARK    5  A    between atoms: C_9  and  N_10
REMARK    6  A    between atoms: C_11  and  C_13
REMARK                            x       y       z     vdW  Elec       q    Type
REMARK                         _______ _______ _______ _____ _____    ______ ____
ROOT
ATOM      1  C   UNL     1      44.818   9.159  11.788  0.00  0.00    +0.000 A 
ATOM      2  C   UNL     1      45.827   9.017  12.751  0.00  0.00    +0.000 A 
ATOM      3  C   UNL     1      46.233   7.747  13.178  0.00  0.00    +0.000 A 
ATOM      4  C   UNL     1      45.654   6.593  12.636  0.00  0.00    +0.000 A 
ATOM      5  C   UNL     1      44.651   6.735  11.669  0.00  0.00    +0.000 A 
ATOM      6  C   UNL     1      44.244   8.004  11.241  0.00  0.00    +0.000 A 
ENDROOT
BRANCH   1   7
ATOM      7  C   UNL     1      44.338  10.525  11.376  0.00  0.00    +0.000 C 
BRANCH   7  10
ATOM      8  O   UNL     1      41.969  10.439   9.953  0.00  0.00    +0.000 OA
ATOM      9  C   UNL     1      41.926  10.762  11.136  0.00  0.00    +0.000 C 
ATOM     10  N   UNL     1      43.049  10.863  11.935  0.00  0.00    +0.000 N 
ATOM     11  H   UNL     1      42.955  10.899  12.940  0.00  0.00    +0.000 HD
BRANCH   9  12
ATOM     12  C   UNL     1      40.614  11.025  11.778  0.00  0.00    +0.000 A 
ATOM     13  C   UNL     1      40.568  11.923  12.846  0.00  0.00    +0.000 A 
ATOM     14  C   UNL     1      39.349  12.138  13.459  0.00  0.00    +0.000 A 
ATOM     15  N   UNL     1      38.209  11.522  13.088  0.00  0.00    +0.000 NA
ATOM     16  C   UNL     1      38.289  10.639  12.070  0.00  0.00    +0.000 A 
ATOM     17  C   UNL     1      39.455  10.357  11.383  0.00  0.00    +0.000 A 
ENDBRANCH   9  12
ENDBRANCH   7  10
ENDBRANCH   1   7
BRANCH   4  18
ATOM     18  C   UNL     1      46.070   5.223  13.109  0.00  0.00    +0.000 C 
BRANCH  18  19
ATOM     19  N   UNL     1      46.680   5.273  14.415  0.00  0.00    +0.000 N 
ATOM     20  C   UNL     1      47.266   4.161  14.965  0.00  0.00    +0.000 C 
ATOM     21  O   UNL     1      47.330   3.095  14.356  0.00  0.00    +0.000 OA
ATOM     22  H   UNL     1      46.440   6.061  15.010  0.00  0.00    +0.000 HD
BRANCH  20  23
ATOM     23  C   UNL     1      47.863   4.314  16.298  0.00  0.00    +0.000 A 
ATOM     24  C   UNL     1      47.500   3.443  17.316  0.00  0.00    +0.000 A 
ATOM     25  S   UNL     1      48.324   3.716  18.782  0.00  0.00    +0.000 S 
ATOM     26  C   UNL     1      49.161   5.045  18.126  0.00  0.00    +0.000 A 
ATOM     27  N   UNL     1      50.033   5.763  18.882  0.00  0.00    +0.000 NA
ATOM     28  C   UNL     1      50.572   6.762  18.269  0.00  0.00    +0.000 A 
ATOM     29  N   UNL     1      50.319   7.107  16.966  0.00  0.00    +0.000 N 
ATOM     30  C   UNL     1      49.467   6.395  16.156  0.00  0.00    +0.000 A 
ATOM     31  O   UNL     1      49.296   6.705  14.980  0.00  0.00    +0.000 OA
ATOM     32  C   UNL     1      48.828   5.265  16.800  0.00  0.00    +0.000 A 
ATOM     33  H   UNL     1      50.780   7.901  16.543  0.00  0.00    +0.000 HD
ENDBRANCH  20  23
ENDBRANCH  18  19
ENDBRANCH   4  18
TORSDOF 6
ENDMDL
MODEL 9
REMARK VINA RESULT:    -6.919      2.552      2.807
REMARK INTER + INTRA:         -10.580
REMARK INTER:                  -9.837
REMARK INTRA:                  -0.743
REMARK UNBOUND:                -1.233
REMARK  Name = 
REMARK  6 active torsions:
REMARK  status: ('A' for Active; 'I' for Inactive)
REMARK    1  A    between atoms: C_2  and  C_25
REMARK    2  A    between atoms: N_3  and  C_4
REMARK    3  A    between atoms: C_4  and  C_5
REMARK    4  A    between atoms: C_8  and  C_9
REMARK    5  A    between atoms: C_9  and  N_10
REMARK    6  A    between atoms: C_11  and  C_13
REMARK                            x       y       z     vdW  Elec       q    Type
REMARK                         _______ _______ _______ _____ _____    ______ ____
ROOT
ATOM      1  C   UNL     1      45.499   6.549  11.734  0.00  0.00    +0.000 A 
ATOM      2  C   UNL     1      45.075   7.861  11.989  0.00  0.00    +0.000 A 
ATOM      3  C   UNL     1      45.841   8.716  12.790  0.00  0.00    +0.000 A 
ATOM      4  C   UNL     1      47.056   8.284  13.336  0.00  0.00    +0.000 A 
ATOM      5  C   UNL     1      47.483   6.975  13.076  0.00  0.00    +0.000 A 
ATOM      6  C   UNL     1      46.719   6.120  12.274  0.00  0.00    +0.000 A 
ENDROOT
BRANCH   1   7
ATOM      7  C   UNL     1      44.645   5.611  10.924  0.00  0.00    +0.000 C 
BRANCH   7  10
ATOM      8  O   UNL     1      43.815   3.210   9.832  0.00  0.00    +0.000 OA
ATOM      9  C   UNL     1      44.875   3.690   9.445  0.00  0.00    +0.000 C 
ATOM     10  N   UNL     1      45.398   4.870   9.939  0.00  0.00    +0.000 N 
ATOM     11  H   UNL     1      46.136   5.345   9.439  0.00  0.00    +0.000 HD
BRANCH   9  12
ATOM     12  C   UNL     1      45.636   3.013   8.365  0.00  0.00    +0.000 A 
ATOM     13  C   UNL     1      45.951   1.663   8.523  0.00  0.00    +0.000 A 
ATOM     14  C   UNL     1      46.687   1.048   7.529  0.00  0.00    +0.000 A 
ATOM     15  N   UNL     1      47.121   1.683   6.422  0.00  0.00    +0.000 NA
ATOM     16  C   UNL     1      46.824   2.995   6.308  0.00  0.00    +0.000 A 
ATOM     17  C   UNL     1      46.087   3.703   7.240  0.00  0.00    +0.000 A 
ENDBRANCH   9  12
ENDBRANCH   7  10
ENDBRANCH   1   7
BRANCH   4  18
ATOM     18  C   UNL     1      47.874   9.192  14.220  0.00  0.00    +0.000 C 
BRANCH  18  19
ATOM     19  N   UNL     1      47.557   9.004  15.615  0.00  0.00    +0.000 N 
ATOM     20  C   UNL     1      48.505   9.197  16.588  0.00  0.00    +0.000 C 
ATOM     21  O   UNL     1      49.643   9.572  16.316  0.00  0.00    +0.000 OA
ATOM     22  H   UNL     1      46.710   8.486  15.833  0.00  0.00    +0.000 HD
BRANCH  20  23
ATOM     23  C   UNL     1      48.083   8.985  17.978  0.00  0.00    +0.000 A 
ATOM     24  C   UNL     1      47.638  10.063  18.732  0.00  0.00    +0.000 A 
ATOM     25  S   UNL     1      47.130   9.643  20.302  0.00  0.00    +0.000 S 
ATOM     26  C   UNL     1      47.535   8.008  20.053  0.00  0.00    +0.000 A 
ATOM     27  N   UNL     1      47.366   7.089  21.041  0.00  0.00    +0.000 NA
ATOM     28  C   UNL     1      47.743   5.896  20.727  0.00  0.00    +0.000 A 
ATOM     29  N   UNL     1      48.273   5.538  19.514  0.00  0.00    +0.000 N 
ATOM     30  C   UNL     1      48.436   6.427  18.478  0.00  0.00    +0.000 A 
ATOM     31  O   UNL     1      48.873   6.064  17.390  0.00  0.00    +0.000 OA
ATOM     32  C   UNL     1      48.034   7.785  18.781  0.00  0.00    +0.000 A 
ATOM     33  H   UNL     1      48.544   4.582  19.331  0.00  0.00    +0.000 HD
ENDBRANCH  20  23
ENDBRANCH  18  19
ENDBRANCH   4  18
TORSDOF 6
ENDMDL
