MODEL 1
REMARK VINA RESULT:    -7.461      0.000      0.000
REMARK INTER + INTRA:          -9.919
REMARK INTER:                  -9.206
REMARK INTRA:                  -0.713
REMARK UNBOUND:                -0.713
REMARK  Name = 
REMARK  6 active torsions:
REMARK  status: ('A' for Active; 'I' for Inactive)
REMARK    1  A    between atoms: C_1  and  C_2
REMARK    2  A    between atoms: N_4  and  C_5
REMARK    3  A    between atoms: C_9  and  C_10
REMARK    4  A    between atoms: C_10  and  N_11
REMARK    5  A    between atoms: C_15  and  C_16
REMARK    6  A    between atoms: C_23  and  C_24
REMARK                            x       y       z     vdW  Elec       q    Type
REMARK                         _______ _______ _______ _____ _____    ______ ____
ROOT
ATOM      1  C   UNL     1      47.508   6.177  12.941  0.00  0.00    +0.000 A 
ATOM      2  C   UNL     1      47.300   5.365  14.063  0.00  0.00    +0.000 A 
ATOM      3  N   UNL     1      46.247   4.534  14.265  0.00  0.00    +0.000 NA
ATOM      4  C   UNL     1      45.322   4.494  13.288  0.00  0.00    +0.000 A 
ATOM      5  C   UNL     1      45.409   5.231  12.115  0.00  0.00    +0.000 A 
ATOM      6  C   UNL     1      46.510   6.087  11.963  0.00  0.00    +0.000 A 
ENDROOT
BRANCH   1  10
ATOM      7  C   UNL     1      47.444   9.915  11.887  0.00  0.00    +0.000 C 
ATOM      8  C   UNL     1      48.851   9.316  11.838  0.00  0.00    +0.000 C 
ATOM      9  C   UNL     1      48.830   7.789  11.570  0.00  0.00    +0.000 C 
ATOM     10  N   UNL     1      48.594   7.015  12.796  0.00  0.00    +0.000 N 
ATOM     11  C   UNL     1      49.460   7.358  13.933  0.00  0.00    +0.000 C 
ATOM     12  C   UNL     1      49.449   8.889  14.204  0.00  0.00    +0.000 C 
ATOM     13  C   UNL     1      48.201   9.326  14.977  0.00  0.00    +0.000 C 
ATOM     14  N   UNL     1      49.681   9.722  13.000  0.00  0.00    +0.000 NA
ATOM     15  H   UNL     1      50.654   9.569  12.727  0.00  0.00    +0.000 HD
ENDBRANCH   1  10
BRANCH   5  16
ATOM     16  C   UNL     1      44.371   5.078  11.044  0.00  0.00    +0.000 C 
BRANCH  16  17
ATOM     17  N   UNL     1      44.239   3.682  10.638  0.00  0.00    +0.000 N 
ATOM     18  C   UNL     1      44.976   3.397   9.475  0.00  0.00    +0.000 A 
ATOM     19  C   UNL     1      44.970   2.100   8.966  0.00  0.00    +0.000 A 
ATOM     20  C   UNL     1      45.707   1.812   7.814  0.00  0.00    +0.000 A 
ATOM     21  C   UNL     1      46.440   2.823   7.189  0.00  0.00    +0.000 A 
ATOM     22  C   UNL     1      46.400   4.076   7.770  0.00  0.00    +0.000 A 
ATOM     23  N   UNL     1      45.696   4.373   8.888  0.00  0.00    +0.000 NA
ATOM     24  H   UNL     1      43.269   3.416  10.490  0.00  0.00    +0.000 HD
BRANCH  21  25
ATOM     25  C   UNL     1      47.205   2.527   5.958  0.00  0.00    +0.000 C 
ATOM     26  N   UNL     1      48.569   2.498   6.010  0.00  0.00    +0.000 N 
ATOM     27  O   UNL     1      46.630   2.315   4.894  0.00  0.00    +0.000 OA
ATOM     28  H   UNL     1      49.140   2.640   6.827  0.00  0.00    +0.000 HD
ATOM     29  H   UNL     1      49.048   2.295   5.138  0.00  0.00    +0.000 HD
ENDBRANCH  21  25
ENDBRANCH  16  17
ENDBRANCH   5  16
TORSDOF 4
ENDMDL
MODEL 2
REMARK VINA RESULT:    -7.355      0.709      1.746
REMARK INTER + INTRA:          -9.788
REMARK INTER:                  -9.187
REMARK INTRA:                  -0.601
REMARK UNBOUND:                -0.713
REMARK  Name = 
REMARK  6 active torsions:
REMARK  status: ('A' for Active; 'I' for Inactive)
REMARK    1  A    between atoms: C_1  and  C_2
REMARK    2  A    between atoms: N_4  and  C_5
REMARK    3  A    between atoms: C_9  and  C_10
REMARK    4  A    between atoms: C_10  and  N_11
REMARK    5  A    between atoms: C_15  and  C_16
REMARK    6  A    between atoms: C_23  and  C_24
REMARK                            x       y       z     vdW  Elec       q    Type
REMARK                         _______ _______ _______ _____ _____    ______ ____
ROOT
ATOM      1  C   UNL     1      46.647   6.841  12.928  0.00  0.00    +0.000 A 
ATOM      2  C   UNL     1      46.889   5.794  13.825  0.00  0.00    +0.000 A 
ATOM      3  N   UNL     1      46.283   4.580  13.822  0.00  0.00    +0.000 NA
ATOM      4  C   UNL     1      45.363   4.376  12.860  0.00  0.00    +0.000 A 
ATOM      5  C   UNL     1      45.036   5.318  11.896  0.00  0.00    +0.000 A 
ATOM      6  C   UNL     1      45.681   6.563  11.953  0.00  0.00    +0.000 A 
ENDROOT
BRANCH   1  10
ATOM      7  C   UNL     1      50.027   7.617  14.678  0.00  0.00    +0.000 C 
ATOM      8  C   UNL     1      49.260   8.885  14.296  0.00  0.00    +0.000 C 
ATOM      9  C   UNL     1      47.727   8.655  14.259  0.00  0.00    +0.000 C 
ATOM     10  N   UNL     1      47.286   8.062  12.989  0.00  0.00    +0.000 N 
ATOM     11  C   UNL     1      47.766   8.742  11.778  0.00  0.00    +0.000 C 
ATOM     12  C   UNL     1      49.307   8.941  11.819  0.00  0.00    +0.000 C 
ATOM     13  C   UNL     1      50.061   7.663  11.443  0.00  0.00    +0.000 C 
ATOM     14  N   UNL     1      49.810   9.536  13.081  0.00  0.00    +0.000 NA
ATOM     15  H   UNL     1      49.478  10.503  13.096  0.00  0.00    +0.000 HD
ENDBRANCH   1  10
BRANCH   5  16
ATOM     16  C   UNL     1      44.050   4.987  10.815  0.00  0.00    +0.000 C 
BRANCH  16  17
ATOM     17  N   UNL     1      44.059   3.558  10.516  0.00  0.00    +0.000 N 
ATOM     18  C   UNL     1      44.893   3.250   9.427  0.00  0.00    +0.000 A 
ATOM     19  C   UNL     1      45.026   1.922   9.026  0.00  0.00    +0.000 A 
ATOM     20  C   UNL     1      45.860   1.613   7.947  0.00  0.00    +0.000 A 
ATOM     21  C   UNL     1      46.547   2.633   7.287  0.00  0.00    +0.000 A 
ATOM     22  C   UNL     1      46.367   3.919   7.761  0.00  0.00    +0.000 A 
ATOM     23  N   UNL     1      45.568   4.238   8.806  0.00  0.00    +0.000 NA
ATOM     24  H   UNL     1      43.127   3.199  10.334  0.00  0.00    +0.000 HD
BRANCH  21  25
ATOM     25  C   UNL     1      47.414   2.311   6.132  0.00  0.00    +0.000 C 
ATOM     26  N   UNL     1      48.764   2.486   6.241  0.00  0.00    +0.000 N 
ATOM     27  O   UNL     1      46.935   1.899   5.080  0.00  0.00    +0.000 OA
ATOM     28  H   UNL     1      49.263   2.801   7.057  0.00  0.00    +0.000 HD
ATOM     29  H   UNL     1      49.315   2.255   5.419  0.00  0.00    +0.000 HD
ENDBRANCH  21  25
ENDBRANCH  16  17
ENDBRANCH   5  16
TORSDOF 4
ENDMDL
MODEL 3
REMARK VINA RESULT:    -7.235      3.702      7.769
REMARK INTER + INTRA:          -9.640
REMARK INTER:                  -9.078
REMARK INTRA:                  -0.562
REMARK UNBOUND:                -0.713
REMARK  Name = 
REMARK  6 active torsions:
REMARK  status: ('A' for Active; 'I' for Inactive)
REMARK    1  A    between atoms: C_1  and  C_2
REMARK    2  A    between atoms: N_4  and  C_5
REMARK    3  A    between atoms: C_9  and  C_10
REMARK    4  A    between atoms: C_10  and  N_11
REMARK    5  A    between atoms: C_15  and  C_16
REMARK    6  A    between atoms: C_23  and  C_24
REMARK                            x       y       z     vdW  Elec       q    Type
REMARK                         _______ _______ _______ _____ _____    ______ ____
ROOT
ATOM      1  C   UNL     1      45.409   7.006  11.482  0.00  0.00    +0.000 A 
ATOM      2  C   UNL     1      45.025   8.334  11.703  0.00  0.00    +0.000 A 
ATOM      3  N   UNL     1      45.789   9.307  12.261  0.00  0.00    +0.000 NA
ATOM      4  C   UNL     1      47.031   8.948  12.634  0.00  0.00    +0.000 A 
ATOM      5  C   UNL     1      47.550   7.673  12.460  0.00  0.00    +0.000 A 
ATOM      6  C   UNL     1      46.713   6.701  11.891  0.00  0.00    +0.000 A 
ENDROOT
BRANCH   1  10
ATOM      7  C   UNL     1      45.418   3.189  12.205  0.00  0.00    +0.000 C 
ATOM      8  C   UNL     1      44.595   3.550  10.966  0.00  0.00    +0.000 C 
ATOM      9  C   UNL     1      45.105   4.842  10.277  0.00  0.00    +0.000 C 
ATOM     10  N   UNL     1      44.582   6.055  10.921  0.00  0.00    +0.000 N 
ATOM     11  C   UNL     1      43.127   6.083  11.124  0.00  0.00    +0.000 C 
ATOM     12  C   UNL     1      42.636   4.793  11.838  0.00  0.00    +0.000 C 
ATOM     13  C   UNL     1      42.883   4.844  13.349  0.00  0.00    +0.000 C 
ATOM     14  N   UNL     1      43.135   3.534  11.232  0.00  0.00    +0.000 NA
ATOM     15  H   UNL     1      42.676   3.452  10.322  0.00  0.00    +0.000 HD
ENDBRANCH   1  10
BRANCH   5  16
ATOM     16  C   UNL     1      48.970   7.373  12.839  0.00  0.00    +0.000 C 
BRANCH  16  17
ATOM     17  N   UNL     1      49.222   7.709  14.236  0.00  0.00    +0.000 N 
ATOM     18  C   UNL     1      48.776   6.704  15.113  0.00  0.00    +0.000 A 
ATOM     19  C   UNL     1      48.960   6.865  16.484  0.00  0.00    +0.000 A 
ATOM     20  C   UNL     1      48.524   5.864  17.357  0.00  0.00    +0.000 A 
ATOM     21  C   UNL     1      47.911   4.718  16.846  0.00  0.00    +0.000 A 
ATOM     22  C   UNL     1      47.782   4.635  15.473  0.00  0.00    +0.000 A 
ATOM     23  N   UNL     1      48.203   5.591  14.611  0.00  0.00    +0.000 NA
ATOM     24  H   UNL     1      48.796   8.593  14.501  0.00  0.00    +0.000 HD
BRANCH  21  25
ATOM     25  C   UNL     1      47.430   3.665  17.768  0.00  0.00    +0.000 C 
ATOM     26  N   UNL     1      48.027   3.520  18.987  0.00  0.00    +0.000 N 
ATOM     27  O   UNL     1      46.509   2.920  17.446  0.00  0.00    +0.000 OA
ATOM     28  H   UNL     1      48.774   4.083  19.358  0.00  0.00    +0.000 HD
ATOM     29  H   UNL     1      47.663   2.781  19.581  0.00  0.00    +0.000 HD
ENDBRANCH  21  25
ENDBRANCH  16  17
ENDBRANCH   5  16
TORSDOF 4
ENDMDL
MODEL 4
REMARK VINA RESULT:    -6.780      4.816      9.156
REMARK INTER + INTRA:          -9.079
REMARK INTER:                  -8.449
REMARK INTRA:                  -0.629
REMARK UNBOUND:                -0.713
REMARK  Name = 
REMARK  6 active torsions:
REMARK  status: ('A' for Active; 'I' for Inactive)
REMARK    1  A    between atoms: C_1  and  C_2
REMARK    2  A    between atoms: N_4  and  C_5
REMARK    3  A    between atoms: C_9  and  C_10
REMARK    4  A    between atoms: C_10  and  N_11
REMARK    5  A    between atoms: C_15  and  C_16
REMARK    6  A    between atoms: C_23  and  C_24
REMARK                            x       y       z     vdW  Elec       q    Type
REMARK                         _______ _______ _______ _____ _____    ______ ____
ROOT
ATOM      1  C   UNL     1      46.311   5.538  12.660  0.00  0.00    +0.000 A 
ATOM      2  C   UNL     1      46.607   6.349  11.558  0.00  0.00    +0.000 A 
ATOM      3  N   UNL     1      47.602   7.268  11.484  0.00  0.00    +0.000 NA
ATOM      4  C   UNL     1      48.372   7.403  12.580  0.00  0.00    +0.000 A 
ATOM      5  C   UNL     1      48.204   6.653  13.735  0.00  0.00    +0.000 A 
ATOM      6  C   UNL     1      47.150   5.727  13.765  0.00  0.00    +0.000 A 
ENDROOT
BRANCH   1  10
ATOM      7  C   UNL     1      42.713   6.070  11.296  0.00  0.00    +0.000 C 
ATOM      8  C   UNL     1      42.827   4.824  12.178  0.00  0.00    +0.000 C 
ATOM      9  C   UNL     1      43.954   4.956  13.236  0.00  0.00    +0.000 C 
ATOM     10  N   UNL     1      45.275   4.628  12.682  0.00  0.00    +0.000 N 
ATOM     11  C   UNL     1      45.353   3.353  11.956  0.00  0.00    +0.000 C 
ATOM     12  C   UNL     1      44.234   3.249  10.882  0.00  0.00    +0.000 C 
ATOM     13  C   UNL     1      44.581   4.032   9.613  0.00  0.00    +0.000 C 
ATOM     14  N   UNL     1      42.877   3.571  11.385  0.00  0.00    +0.000 NA
ATOM     15  H   UNL     1      42.619   2.815  12.023  0.00  0.00    +0.000 HD
ENDBRANCH   1  10
BRANCH   5  16
ATOM     16  C   UNL     1      49.149   6.814  14.889  0.00  0.00    +0.000 C 
BRANCH  16  17
ATOM     17  N   UNL     1      48.500   7.491  16.008  0.00  0.00    +0.000 N 
ATOM     18  C   UNL     1      48.702   6.816  17.225  0.00  0.00    +0.000 A 
ATOM     19  C   UNL     1      48.160   7.345  18.394  0.00  0.00    +0.000 A 
ATOM     20  C   UNL     1      48.366   6.680  19.606  0.00  0.00    +0.000 A 
ATOM     21  C   UNL     1      49.108   5.498  19.632  0.00  0.00    +0.000 A 
ATOM     22  C   UNL     1      49.619   5.053  18.427  0.00  0.00    +0.000 A 
ATOM     23  N   UNL     1      49.436   5.686  17.244  0.00  0.00    +0.000 NA
ATOM     24  H   UNL     1      47.502   7.612  15.856  0.00  0.00    +0.000 HD
BRANCH  21  25
ATOM     25  C   UNL     1      49.310   4.780  20.910  0.00  0.00    +0.000 C 
ATOM     26  N   UNL     1      50.576   4.622  21.394  0.00  0.00    +0.000 N 
ATOM     27  O   UNL     1      48.356   4.320  21.531  0.00  0.00    +0.000 OA
ATOM     28  H   UNL     1      51.424   4.971  20.978  0.00  0.00    +0.000 HD
ATOM     29  H   UNL     1      50.662   4.119  22.272  0.00  0.00    +0.000 HD
ENDBRANCH  21  25
ENDBRANCH  16  17
ENDBRANCH   5  16
TORSDOF 4
ENDMDL
MODEL 5
REMARK VINA RESULT:    -6.744      3.359      5.998
REMARK INTER + INTRA:          -9.034
REMARK INTER:                  -8.164
REMARK INTRA:                  -0.870
REMARK UNBOUND:                -0.713
REMARK  Name = 
REMARK  6 active torsions:
REMARK  status: ('A' for Active; 'I' for Inactive)
REMARK    1  A    between atoms: C_1  and  C_2
REMARK    2  A    between atoms: N_4  and  C_5
REMARK    3  A    between atoms: C_9  and  C_10
REMARK    4  A    between atoms: C_10  and  N_11
REMARK    5  A    between atoms: C_15  and  C_16
REMARK    6  A    between atoms: C_23  and  C_24
REMARK                            x       y       z     vdW  Elec       q    Type
REMARK                         _______ _______ _______ _____ _____    ______ ____
ROOT
ATOM      1  C   UNL     1      49.843   6.372  16.415  0.00  0.00    +0.000 A 
ATOM      2  C   UNL     1      50.979   6.910  15.798  0.00  0.00    +0.000 A 
ATOM      3  N   UNL     1      50.992   7.710  14.702  0.00  0.00    +0.000 NA
ATOM      4  C   UNL     1      49.793   8.008  14.167  0.00  0.00    +0.000 A 
ATOM      5  C   UNL     1      48.586   7.559  14.685  0.00  0.00    +0.000 A 
ATOM      6  C   UNL     1      48.629   6.722  15.810  0.00  0.00    +0.000 A 
ENDROOT
BRANCH   1  10
ATOM      7  C   UNL     1      46.986   5.727  18.967  0.00  0.00    +0.000 C 
ATOM      8  C   UNL     1      48.341   5.218  19.463  0.00  0.00    +0.000 C 
ATOM      9  C   UNL     1      49.525   6.022  18.865  0.00  0.00    +0.000 C 
ATOM     10  N   UNL     1      49.892   5.551  17.523  0.00  0.00    +0.000 N 
ATOM     11  C   UNL     1      50.099   4.102  17.399  0.00  0.00    +0.000 C 
ATOM     12  C   UNL     1      48.892   3.312  17.979  0.00  0.00    +0.000 C 
ATOM     13  C   UNL     1      47.715   3.262  17.001  0.00  0.00    +0.000 C 
ATOM     14  N   UNL     1      48.476   3.745  19.334  0.00  0.00    +0.000 NA
ATOM     15  H   UNL     1      49.226   3.468  19.969  0.00  0.00    +0.000 HD
ENDBRANCH   1  10
BRANCH   5  16
ATOM     16  C   UNL     1      47.289   7.994  14.071  0.00  0.00    +0.000 C 
BRANCH  16  17
ATOM     17  N   UNL     1      47.258   7.695  12.642  0.00  0.00    +0.000 N 
ATOM     18  C   UNL     1      46.454   6.579  12.351  0.00  0.00    +0.000 A 
ATOM     19  C   UNL     1      46.305   6.173  11.027  0.00  0.00    +0.000 A 
ATOM     20  C   UNL     1      45.500   5.068  10.735  0.00  0.00    +0.000 A 
ATOM     21  C   UNL     1      44.857   4.386  11.768  0.00  0.00    +0.000 A 
ATOM     22  C   UNL     1      45.049   4.866  13.051  0.00  0.00    +0.000 A 
ATOM     23  N   UNL     1      45.820   5.937  13.353  0.00  0.00    +0.000 NA
ATOM     24  H   UNL     1      48.188   7.542  12.263  0.00  0.00    +0.000 HD
BRANCH  21  25
ATOM     25  C   UNL     1      44.021   3.204  11.465  0.00  0.00    +0.000 C 
ATOM     26  N   UNL     1      43.664   2.361  12.478  0.00  0.00    +0.000 N 
ATOM     27  O   UNL     1      43.654   2.970  10.317  0.00  0.00    +0.000 OA
ATOM     28  H   UNL     1      43.893   2.465  13.453  0.00  0.00    +0.000 HD
ATOM     29  H   UNL     1      43.093   1.562  12.218  0.00  0.00    +0.000 HD
ENDBRANCH  21  25
ENDBRANCH  16  17
ENDBRANCH   5  16
TORSDOF 4
ENDMDL
MODEL 6
REMARK VINA RESULT:    -6.653      3.282      5.736
REMARK INTER + INTRA:          -8.922
REMARK INTER:                  -8.119
REMARK INTRA:                  -0.803
REMARK UNBOUND:                -0.713
REMARK  Name = 
REMARK  6 active torsions:
REMARK  status: ('A' for Active; 'I' for Inactive)
REMARK    1  A    between atoms: C_1  and  C_2
REMARK    2  A    between atoms: N_4  and  C_5
REMARK    3  A    between atoms: C_9  and  C_10
REMARK    4  A    between atoms: C_10  and  N_11
REMARK    5  A    between atoms: C_15  and  C_16
REMARK    6  A    between atoms: C_23  and  C_24
REMARK                            x       y       z     vdW  Elec       q    Type
REMARK                         _______ _______ _______ _____ _____    ______ ____
ROOT
ATOM      1  C   UNL     1      49.483   6.568  16.296  0.00  0.00    +0.000 A 
ATOM      2  C   UNL     1      50.774   7.025  16.004  0.00  0.00    +0.000 A 
ATOM      3  N   UNL     1      51.147   7.713  14.895  0.00  0.00    +0.000 NA
ATOM      4  C   UNL     1      50.176   7.973  14.000  0.00  0.00    +0.000 A 
ATOM      5  C   UNL     1      48.851   7.595  14.169  0.00  0.00    +0.000 A 
ATOM      6  C   UNL     1      48.522   6.873  15.326  0.00  0.00    +0.000 A 
ENDROOT
BRANCH   1  10
ATOM      7  C   UNL     1      48.058   2.958  16.479  0.00  0.00    +0.000 C 
ATOM      8  C   UNL     1      47.957   3.697  17.816  0.00  0.00    +0.000 C 
ATOM      9  C   UNL     1      47.850   5.233  17.631  0.00  0.00    +0.000 C 
ATOM     10  N   UNL     1      49.165   5.860  17.437  0.00  0.00    +0.000 N 
ATOM     11  C   UNL     1      50.186   5.498  18.430  0.00  0.00    +0.000 C 
ATOM     12  C   UNL     1      50.299   3.955  18.583  0.00  0.00    +0.000 C 
ATOM     13  C   UNL     1      51.121   3.325  17.456  0.00  0.00    +0.000 C 
ATOM     14  N   UNL     1      49.000   3.268  18.781  0.00  0.00    +0.000 NA
ATOM     15  H   UNL     1      48.666   3.542  19.707  0.00  0.00    +0.000 HD
ENDBRANCH   1  10
BRANCH   5  16
ATOM     16  C   UNL     1      47.815   7.985  13.157  0.00  0.00    +0.000 C 
BRANCH  16  17
ATOM     17  N   UNL     1      46.483   7.567  13.582  0.00  0.00    +0.000 N 
ATOM     18  C   UNL     1      45.890   6.679  12.668  0.00  0.00    +0.000 A 
ATOM     19  C   UNL     1      44.621   6.171  12.938  0.00  0.00    +0.000 A 
ATOM     20  C   UNL     1      44.032   5.282  12.034  0.00  0.00    +0.000 A 
ATOM     21  C   UNL     1      44.718   4.914  10.876  0.00  0.00    +0.000 A 
ATOM     22  C   UNL     1      45.978   5.455  10.695  0.00  0.00    +0.000 A 
ATOM     23  N   UNL     1      46.567   6.313  11.561  0.00  0.00    +0.000 NA
ATOM     24  H   UNL     1      45.862   8.358  13.728  0.00  0.00    +0.000 HD
BRANCH  21  25
ATOM     25  C   UNL     1      44.090   3.990   9.906  0.00  0.00    +0.000 C 
ATOM     26  N   UNL     1      44.019   4.348   8.591  0.00  0.00    +0.000 N 
ATOM     27  O   UNL     1      43.627   2.913  10.272  0.00  0.00    +0.000 OA
ATOM     28  H   UNL     1      44.379   5.194   8.181  0.00  0.00    +0.000 HD
ATOM     29  H   UNL     1      43.574   3.681   7.967  0.00  0.00    +0.000 HD
ENDBRANCH  21  25
ENDBRANCH  16  17
ENDBRANCH   5  16
TORSDOF 4
ENDMDL
MODEL 7
REMARK VINA RESULT:    -6.374      3.356      5.085
REMARK INTER + INTRA:          -8.578
REMARK INTER:                  -7.896
REMARK INTRA:                  -0.682
REMARK UNBOUND:                -0.713
REMARK  Name = 
REMARK  6 active torsions:
REMARK  status: ('A' for Active; 'I' for Inactive)
REMARK    1  A    between atoms: C_1  and  C_2
REMARK    2  A    between atoms: N_4  and  C_5
REMARK    3  A    between atoms: C_9  and  C_10
REMARK    4  A    between atoms: C_10  and  N_11
REMARK    5  A    between atoms: C_15  and  C_16
REMARK    6  A    between atoms: C_23  and  C_24
REMARK                            x       y       z     vdW  Elec       q    Type
REMARK                         _______ _______ _______ _____ _____    ______ ____
ROOT
ATOM      1  C   UNL     1      49.411   6.226  17.937  0.00  0.00    +0.000 A 
ATOM      2  C   UNL     1      49.458   5.290  18.976  0.00  0.00    +0.000 A 
ATOM      3  N   UNL     1      48.847   4.079  18.991  0.00  0.00    +0.000 NA
ATOM      4  C   UNL     1      48.132   3.759  17.896  0.00  0.00    +0.000 A 
ATOM      5  C   UNL     1      48.014   4.582  16.785  0.00  0.00    +0.000 A 
ATOM      6  C   UNL     1      48.653   5.830  16.828  0.00  0.00    +0.000 A 
ENDROOT
BRANCH   1  10
ATOM      7  C   UNL     1      48.636   9.337  15.742  0.00  0.00    +0.000 C 
ATOM      8  C   UNL     1      49.961   9.468  16.498  0.00  0.00    +0.000 C 
ATOM      9  C   UNL     1      50.610   8.090  16.788  0.00  0.00    +0.000 C 
ATOM     10  N   UNL     1      50.044   7.452  17.984  0.00  0.00    +0.000 N 
ATOM     11  C   UNL     1      49.998   8.297  19.185  0.00  0.00    +0.000 C 
ATOM     12  C   UNL     1      49.321   9.663  18.884  0.00  0.00    +0.000 C 
ATOM     13  C   UNL     1      47.793   9.554  18.859  0.00  0.00    +0.000 C 
ATOM     14  N   UNL     1      49.852  10.354  17.684  0.00  0.00    +0.000 NA
ATOM     15  H   UNL     1      50.804  10.644  17.916  0.00  0.00    +0.000 HD
ENDBRANCH   1  10
BRANCH   5  16
ATOM     16  C   UNL     1      47.256   4.122  15.576  0.00  0.00    +0.000 C 
BRANCH  16  17
ATOM     17  N   UNL     1      46.983   5.235  14.672  0.00  0.00    +0.000 N 
ATOM     18  C   UNL     1      46.303   4.823  13.513  0.00  0.00    +0.000 A 
ATOM     19  C   UNL     1      45.952   5.772  12.555  0.00  0.00    +0.000 A 
ATOM     20  C   UNL     1      45.270   5.365  11.405  0.00  0.00    +0.000 A 
ATOM     21  C   UNL     1      44.950   4.018  11.229  0.00  0.00    +0.000 A 
ATOM     22  C   UNL     1      45.324   3.148  12.235  0.00  0.00    +0.000 A 
ATOM     23  N   UNL     1      45.980   3.523  13.359  0.00  0.00    +0.000 NA
ATOM     24  H   UNL     1      47.831   5.727  14.403  0.00  0.00    +0.000 HD
BRANCH  21  25
ATOM     25  C   UNL     1      44.246   3.580  10.003  0.00  0.00    +0.000 C 
ATOM     26  N   UNL     1      43.954   4.498   9.036  0.00  0.00    +0.000 N 
ATOM     27  O   UNL     1      43.917   2.407   9.850  0.00  0.00    +0.000 OA
ATOM     28  H   UNL     1      44.191   5.477   9.049  0.00  0.00    +0.000 HD
ATOM     29  H   UNL     1      43.467   4.149   8.216  0.00  0.00    +0.000 HD
ENDBRANCH  21  25
ENDBRANCH  16  17
ENDBRANCH   5  16
TORSDOF 4
ENDMDL
MODEL 8
REMARK VINA RESULT:    -6.123      4.568      8.693
REMARK INTER + INTRA:          -8.268
REMARK INTER:                  -7.512
REMARK INTRA:                  -0.756
REMARK UNBOUND:                -0.713
REMARK  Name = 
REMARK  6 active torsions:
REMARK  status: ('A' for Active; 'I' for Inactive)
REMARK    1  A    between atoms: C_1  and  C_2
REMARK    2  A    between atoms: N_4  and  C_5
REMARK    3  A    between atoms: C_9  and  C_10
REMARK    4  A    between atoms: C_10  and  N_11
REMARK    5  A    between atoms: C_15  and  C_16
REMARK    6  A    between atoms: C_23  and  C_24
REMARK                            x       y       z     vdW  Elec       q    Type
REMARK                         _______ _______ _______ _____ _____    ______ ____
ROOT
ATOM      1  C   UNL     1      45.066   6.791  12.435  0.00  0.00    +0.000 A 
ATOM      2  C   UNL     1      45.104   8.107  11.959  0.00  0.00    +0.000 A 
ATOM      3  N   UNL     1      46.056   9.032  12.239  0.00  0.00    +0.000 NA
ATOM      4  C   UNL     1      47.052   8.635  13.052  0.00  0.00    +0.000 A 
ATOM      5  C   UNL     1      47.150   7.356  13.582  0.00  0.00    +0.000 A 
ATOM      6  C   UNL     1      46.132   6.443  13.274  0.00  0.00    +0.000 A 
ENDROOT
BRANCH   1  10
ATOM      7  C   UNL     1      45.001   4.298   9.456  0.00  0.00    +0.000 C 
ATOM      8  C   UNL     1      43.634   4.443  10.129  0.00  0.00    +0.000 C 
ATOM      9  C   UNL     1      43.450   5.833  10.792  0.00  0.00    +0.000 C 
ATOM     10  N   UNL     1      44.062   5.896  12.126  0.00  0.00    +0.000 N 
ATOM     11  C   UNL     1      43.696   4.803  13.038  0.00  0.00    +0.000 C 
ATOM     12  C   UNL     1      43.912   3.417  12.368  0.00  0.00    +0.000 C 
ATOM     13  C   UNL     1      45.382   2.990  12.391  0.00  0.00    +0.000 C 
ATOM     14  N   UNL     1      43.315   3.296  11.016  0.00  0.00    +0.000 NA
ATOM     15  H   UNL     1      42.301   3.305  11.146  0.00  0.00    +0.000 HD
ENDBRANCH   1  10
BRANCH   5  16
ATOM     16  C   UNL     1      48.331   6.973  14.424  0.00  0.00    +0.000 C 
BRANCH  16  17
ATOM     17  N   UNL     1      48.236   5.582  14.858  0.00  0.00    +0.000 N 
ATOM     18  C   UNL     1      48.291   5.459  16.257  0.00  0.00    +0.000 A 
ATOM     19  C   UNL     1      48.195   4.194  16.834  0.00  0.00    +0.000 A 
ATOM     20  C   UNL     1      48.243   4.069  18.225  0.00  0.00    +0.000 A 
ATOM     21  C   UNL     1      48.387   5.208  19.019  0.00  0.00    +0.000 A 
ATOM     22  C   UNL     1      48.461   6.423  18.364  0.00  0.00    +0.000 A 
ATOM     23  N   UNL     1      48.411   6.565  17.018  0.00  0.00    +0.000 NA
ATOM     24  H   UNL     1      48.959   5.001  14.444  0.00  0.00    +0.000 HD
BRANCH  21  25
ATOM     25  C   UNL     1      48.459   5.078  20.491  0.00  0.00    +0.000 C 
ATOM     26  N   UNL     1      47.366   5.396  21.244  0.00  0.00    +0.000 N 
ATOM     27  O   UNL     1      49.489   4.698  21.040  0.00  0.00    +0.000 OA
ATOM     28  H   UNL     1      46.470   5.700  20.900  0.00  0.00    +0.000 HD
ATOM     29  H   UNL     1      47.467   5.294  22.250  0.00  0.00    +0.000 HD
ENDBRANCH  21  25
ENDBRANCH  16  17
ENDBRANCH   5  16
TORSDOF 4
ENDMDL
MODEL 9
REMARK VINA RESULT:    -5.732      3.091      5.153
REMARK INTER + INTRA:          -7.786
REMARK INTER:                  -6.942
REMARK INTRA:                  -0.844
REMARK UNBOUND:                -0.713
REMARK  Name = 
REMARK  6 active torsions:
REMARK  status: ('A' for Active; 'I' for Inactive)
REMARK    1  A    between atoms: C_1  and  C_2
REMARK    2  A    between atoms: N_4  and  C_5
REMARK    3  A    between atoms: C_9  and  C_10
REMARK    4  A    between atoms: C_10  and  N_11
REMARK    5  A    between atoms: C_15  and  C_16
REMARK    6  A    between atoms: C_23  and  C_24
REMARK                            x       y       z     vdW  Elec       q    Type
REMARK                         _______ _______ _______ _____ _____    ______ ____
ROOT
ATOM      1  C   UNL     1      48.395  10.979  11.637  0.00  0.00    +0.000 A 
ATOM      2  C   UNL     1      47.797  12.043  10.951  0.00  0.00    +0.000 A 
ATOM      3  N   UNL     1      46.467  12.218  10.750  0.00  0.00    +0.000 NA
ATOM      4  C   UNL     1      45.656  11.273  11.262  0.00  0.00    +0.000 A 
ATOM      5  C   UNL     1      46.111  10.175  11.979  0.00  0.00    +0.000 A 
ATOM      6  C   UNL     1      47.497  10.033  12.146  0.00  0.00    +0.000 A 
ENDROOT
BRANCH   1  10
ATOM      7  C   UNL     1      50.240   9.439  14.689  0.00  0.00    +0.000 C 
ATOM      8  C   UNL     1      51.184  10.204  13.759  0.00  0.00    +0.000 C 
ATOM      9  C   UNL     1      50.459  11.342  12.993  0.00  0.00    +0.000 C 
ATOM     10  N   UNL     1      49.759  10.847  11.799  0.00  0.00    +0.000 N 
ATOM     11  C   UNL     1      50.565  10.009  10.900  0.00  0.00    +0.000 C 
ATOM     12  C   UNL     1      51.263   8.860  11.679  0.00  0.00    +0.000 C 
ATOM     13  C   UNL     1      50.309   7.696  11.963  0.00  0.00    +0.000 C 
ATOM     14  N   UNL     1      51.986   9.301  12.896  0.00  0.00    +0.000 NA
ATOM     15  H   UNL     1      52.788   9.846  12.573  0.00  0.00    +0.000 HD
ENDBRANCH   1  10
BRANCH   5  16
ATOM     16  C   UNL     1      45.138   9.203  12.578  0.00  0.00    +0.000 C 
BRANCH  16  17
ATOM     17  N   UNL     1      45.832   8.072  13.184  0.00  0.00    +0.000 N 
ATOM     18  C   UNL     1      45.409   6.842  12.649  0.00  0.00    +0.000 A 
ATOM     19  C   UNL     1      45.991   5.663  13.111  0.00  0.00    +0.000 A 
ATOM     20  C   UNL     1      45.577   4.440  12.575  0.00  0.00    +0.000 A 
ATOM     21  C   UNL     1      44.590   4.413  11.589  0.00  0.00    +0.000 A 
ATOM     22  C   UNL     1      44.078   5.631  11.181  0.00  0.00    +0.000 A 
ATOM     23  N   UNL     1      44.469   6.825  11.683  0.00  0.00    +0.000 NA
ATOM     24  H   UNL     1      45.722   8.051  14.194  0.00  0.00    +0.000 HD
BRANCH  21  25
ATOM     25  C   UNL     1      44.134   3.119  11.035  0.00  0.00    +0.000 C 
ATOM     26  N   UNL     1      44.941   2.443  10.166  0.00  0.00    +0.000 N 
ATOM     27  O   UNL     1      43.040   2.652  11.341  0.00  0.00    +0.000 OA
ATOM     28  H   UNL     1      45.859   2.723   9.861  0.00  0.00    +0.000 HD
ATOM     29  H   UNL     1      44.581   1.562   9.810  0.00  0.00    +0.000 HD
ENDBRANCH  21  25
ENDBRANCH  16  17
ENDBRANCH   5  16
TORSDOF 4
ENDMDL
