MODEL 1
REMARK VINA RESULT:    -8.072      0.000      0.000
REMARK INTER + INTRA:         -11.813
REMARK INTER:                 -10.903
REMARK INTRA:                  -0.910
REMARK UNBOUND:                -0.910
REMARK  Name = 
REMARK  7 active torsions:
REMARK  status: ('A' for Active; 'I' for Inactive)
REMARK    1  A    between atoms: C_1  and  C_2
REMARK    2  A    between atoms: C_5  and  N_6
REMARK    3  A    between atoms: C_13  and  C_14
REMARK    4  A    between atoms: C_14  and  C_15
REMARK    5  A    between atoms: C_15  and  N_16
REMARK    6  A    between atoms: N_16  and  C_17
REMARK    7  A    between atoms: C_20  and  C_21
REMARK                            x       y       z     vdW  Elec       q    Type
REMARK                         _______ _______ _______ _____ _____    ______ ____
ROOT
ATOM      1  C   UNL     1      44.075   4.515  12.770  0.00  0.00    +0.000 C 
ENDROOT
BRANCH   1   8
ATOM      2  C   UNL     1      45.148   6.991  11.327  0.00  0.00    +0.000 C 
ATOM      3  C   UNL     1      45.890   6.318  12.448  0.00  0.00    +0.000 A 
ATOM      4  C   UNL     1      47.110   6.872  12.863  0.00  0.00    +0.000 A 
ATOM      5  C   UNL     1      47.828   6.327  13.933  0.00  0.00    +0.000 A 
ATOM      6  C   UNL     1      47.364   5.210  14.626  0.00  0.00    +0.000 A 
ATOM      7  C   UNL     1      46.156   4.643  14.182  0.00  0.00    +0.000 A 
ATOM      8  C   UNL     1      45.406   5.172  13.107  0.00  0.00    +0.000 A 
BRANCH   6   9
ATOM      9  N   UNL     1      48.022   4.689  15.728  0.00  0.00    +0.000 N 
ATOM     10  C   UNL     1      47.870   3.282  16.129  0.00  0.00    +0.000 C 
ATOM     11  C   UNL     1      47.137   3.149  17.481  0.00  0.00    +0.000 C 
ATOM     12  N   UNL     1      47.744   3.963  18.555  0.00  0.00    +0.000 NA
ATOM     13  C   UNL     1      47.764   5.374  18.110  0.00  0.00    +0.000 C 
ATOM     14  C   UNL     1      48.511   5.604  16.773  0.00  0.00    +0.000 C 
ATOM     15  H   UNL     1      48.712   3.659  18.667  0.00  0.00    +0.000 HD
ENDBRANCH   6   9
ENDBRANCH   1   8
BRANCH   1  16
ATOM     16  C   UNL     1      44.270   3.317  11.832  0.00  0.00    +0.000 C 
BRANCH  16  17
ATOM     17  N   UNL     1      43.852   3.605  10.447  0.00  0.00    +0.000 N 
ATOM     18  H   UNL     1      43.529   4.563  10.332  0.00  0.00    +0.000 HD
BRANCH  17  19
ATOM     19  C   UNL     1      44.776   3.261   9.437  0.00  0.00    +0.000 A 
ATOM     20  C   UNL     1      45.154   1.936   9.180  0.00  0.00    +0.000 A 
ATOM     21  C   UNL     1      46.055   1.613   8.163  0.00  0.00    +0.000 A 
ATOM     22  C   UNL     1      46.569   2.607   7.333  0.00  0.00    +0.000 A 
ATOM     23  C   UNL     1      46.161   3.931   7.526  0.00  0.00    +0.000 A 
ATOM     24  C   UNL     1      45.258   4.246   8.560  0.00  0.00    +0.000 A 
BRANCH  22  25
ATOM     25  C   UNL     1      47.541   2.189   6.286  0.00  0.00    +0.000 C 
ATOM     26  N   UNL     1      48.824   2.636   6.397  0.00  0.00    +0.000 N 
ATOM     27  O   UNL     1      47.203   1.501   5.330  0.00  0.00    +0.000 OA
ATOM     28  H   UNL     1      49.077   3.404   7.001  0.00  0.00    +0.000 HD
ATOM     29  H   UNL     1      49.419   2.455   5.596  0.00  0.00    +0.000 HD
ENDBRANCH  22  25
ENDBRANCH  17  19
ENDBRANCH  16  17
ENDBRANCH   1  16
TORSDOF 6
ENDMDL
MODEL 2
REMARK VINA RESULT:    -7.583      2.840      4.610
REMARK INTER + INTRA:         -11.153
REMARK INTER:                  -9.971
REMARK INTRA:                  -1.182
REMARK UNBOUND:                -0.910
REMARK  Name = 
REMARK  7 active torsions:
REMARK  status: ('A' for Active; 'I' for Inactive)
REMARK    1  A    between atoms: C_1  and  C_2
REMARK    2  A    between atoms: C_5  and  N_6
REMARK    3  A    between atoms: C_13  and  C_14
REMARK    4  A    between atoms: C_14  and  C_15
REMARK    5  A    between atoms: C_15  and  N_16
REMARK    6  A    between atoms: N_16  and  C_17
REMARK    7  A    between atoms: C_20  and  C_21
REMARK                            x       y       z     vdW  Elec       q    Type
REMARK                         _______ _______ _______ _____ _____    ______ ____
ROOT
ATOM      1  C   UNL     1      43.624   5.315  12.525  0.00  0.00    +0.000 C 
ENDROOT
BRANCH   1   8
ATOM      2  C   UNL     1      46.199   3.722  12.966  0.00  0.00    +0.000 C 
ATOM      3  C   UNL     1      46.168   5.224  12.934  0.00  0.00    +0.000 A 
ATOM      4  C   UNL     1      47.379   5.917  13.083  0.00  0.00    +0.000 A 
ATOM      5  C   UNL     1      47.431   7.313  13.013  0.00  0.00    +0.000 A 
ATOM      6  C   UNL     1      46.282   8.073  12.797  0.00  0.00    +0.000 A 
ATOM      7  C   UNL     1      45.069   7.372  12.680  0.00  0.00    +0.000 A 
ATOM      8  C   UNL     1      44.984   5.962  12.743  0.00  0.00    +0.000 A 
BRANCH   6   9
ATOM      9  N   UNL     1      46.314   9.451  12.659  0.00  0.00    +0.000 N 
ATOM     10  C   UNL     1      45.161  10.206  12.147  0.00  0.00    +0.000 C 
ATOM     11  C   UNL     1      45.461  10.844  10.773  0.00  0.00    +0.000 C 
ATOM     12  N   UNL     1      46.696  11.655  10.765  0.00  0.00    +0.000 NA
ATOM     13  C   UNL     1      47.818  10.793  11.195  0.00  0.00    +0.000 C 
ATOM     14  C   UNL     1      47.615  10.136  12.583  0.00  0.00    +0.000 C 
ATOM     15  H   UNL     1      46.588  12.395  11.461  0.00  0.00    +0.000 HD
ENDBRANCH   6   9
ENDBRANCH   1   8
BRANCH   1  16
ATOM     16  C   UNL     1      43.354   5.081  11.033  0.00  0.00    +0.000 C 
BRANCH  16  17
ATOM     17  N   UNL     1      43.509   3.667  10.643  0.00  0.00    +0.000 N 
ATOM     18  H   UNL     1      42.619   3.228  10.420  0.00  0.00    +0.000 HD
BRANCH  17  19
ATOM     19  C   UNL     1      44.466   3.402   9.639  0.00  0.00    +0.000 A 
ATOM     20  C   UNL     1      45.163   4.420   8.975  0.00  0.00    +0.000 A 
ATOM     21  C   UNL     1      46.121   4.139   7.999  0.00  0.00    +0.000 A 
ATOM     22  C   UNL     1      46.450   2.820   7.691  0.00  0.00    +0.000 A 
ATOM     23  C   UNL     1      45.815   1.783   8.383  0.00  0.00    +0.000 A 
ATOM     24  C   UNL     1      44.845   2.079   9.360  0.00  0.00    +0.000 A 
BRANCH  22  25
ATOM     25  C   UNL     1      47.463   2.599   6.624  0.00  0.00    +0.000 C 
ATOM     26  N   UNL     1      47.245   3.184   5.412  0.00  0.00    +0.000 N 
ATOM     27  O   UNL     1      48.442   1.885   6.802  0.00  0.00    +0.000 OA
ATOM     28  H   UNL     1      46.342   3.546   5.143  0.00  0.00    +0.000 HD
ATOM     29  H   UNL     1      47.873   2.895   4.670  0.00  0.00    +0.000 HD
ENDBRANCH  22  25
ENDBRANCH  17  19
ENDBRANCH  16  17
ENDBRANCH   1  16
TORSDOF 6
ENDMDL
MODEL 3
REMARK VINA RESULT:    -7.563      3.045      5.555
REMARK INTER + INTRA:         -11.126
REMARK INTER:                 -10.441
REMARK INTRA:                  -0.686
REMARK UNBOUND:                -0.910
REMARK  Name = 
REMARK  7 active torsions:
REMARK  status: ('A' for Active; 'I' for Inactive)
REMARK    1  A    between atoms: C_1  and  C_2
REMARK    2  A    between atoms: C_5  and  N_6
REMARK    3  A    between atoms: C_13  and  C_14
REMARK    4  A    between atoms: C_14  and  C_15
REMARK    5  A    between atoms: C_15  and  N_16
REMARK    6  A    between atoms: N_16  and  C_17
REMARK    7  A    between atoms: C_20  and  C_21
REMARK                            x       y       z     vdW  Elec       q    Type
REMARK                         _______ _______ _______ _____ _____    ______ ____
ROOT
ATOM      1  C   UNL     1      45.360   5.069  11.718  0.00  0.00    +0.000 C 
ENDROOT
BRANCH   1   8
ATOM      2  C   UNL     1      47.391   6.134  13.744  0.00  0.00    +0.000 C 
ATOM      3  C   UNL     1      46.457   7.031  12.981  0.00  0.00    +0.000 A 
ATOM      4  C   UNL     1      46.548   8.415  13.189  0.00  0.00    +0.000 A 
ATOM      5  C   UNL     1      45.746   9.311  12.475  0.00  0.00    +0.000 A 
ATOM      6  C   UNL     1      44.821   8.866  11.531  0.00  0.00    +0.000 A 
ATOM      7  C   UNL     1      44.715   7.475  11.352  0.00  0.00    +0.000 A 
ATOM      8  C   UNL     1      45.513   6.545  12.056  0.00  0.00    +0.000 A 
BRANCH   6   9
ATOM      9  N   UNL     1      44.060   9.733  10.765  0.00  0.00    +0.000 N 
ATOM     10  C   UNL     1      44.559  11.058  10.367  0.00  0.00    +0.000 C 
ATOM     11  C   UNL     1      43.760  12.195  11.041  0.00  0.00    +0.000 C 
ATOM     12  N   UNL     1      42.299  12.076  10.843  0.00  0.00    +0.000 NA
ATOM     13  C   UNL     1      41.870  10.759  11.361  0.00  0.00    +0.000 C 
ATOM     14  C   UNL     1      42.600   9.556  10.714  0.00  0.00    +0.000 C 
ATOM     15  H   UNL     1      42.119  12.089   9.838  0.00  0.00    +0.000 HD
ENDBRANCH   6   9
ENDBRANCH   1   8
BRANCH   1  16
ATOM     16  C   UNL     1      43.904   4.727  11.375  0.00  0.00    +0.000 C 
BRANCH  16  17
ATOM     17  N   UNL     1      43.654   4.701   9.922  0.00  0.00    +0.000 N 
ATOM     18  H   UNL     1      43.525   5.633   9.535  0.00  0.00    +0.000 HD
BRANCH  17  19
ATOM     19  C   UNL     1      44.573   3.957   9.149  0.00  0.00    +0.000 A 
ATOM     20  C   UNL     1      45.487   4.562   8.276  0.00  0.00    +0.000 A 
ATOM     21  C   UNL     1      46.401   3.811   7.534  0.00  0.00    +0.000 A 
ATOM     22  C   UNL     1      46.465   2.427   7.683  0.00  0.00    +0.000 A 
ATOM     23  C   UNL     1      45.608   1.803   8.595  0.00  0.00    +0.000 A 
ATOM     24  C   UNL     1      44.684   2.569   9.331  0.00  0.00    +0.000 A 
BRANCH  22  25
ATOM     25  C   UNL     1      47.450   1.694   6.843  0.00  0.00    +0.000 C 
ATOM     26  N   UNL     1      48.560   2.369   6.431  0.00  0.00    +0.000 N 
ATOM     27  O   UNL     1      47.262   0.536   6.491  0.00  0.00    +0.000 OA
ATOM     28  H   UNL     1      48.623   3.377   6.467  0.00  0.00    +0.000 HD
ATOM     29  H   UNL     1      49.132   1.891   5.744  0.00  0.00    +0.000 HD
ENDBRANCH  22  25
ENDBRANCH  17  19
ENDBRANCH  16  17
ENDBRANCH   1  16
TORSDOF 6
ENDMDL
MODEL 4
REMARK VINA RESULT:    -7.418      1.999      2.757
REMARK INTER + INTRA:         -10.930
REMARK INTER:                 -10.055
REMARK INTRA:                  -0.875
REMARK UNBOUND:                -0.910
REMARK  Name = 
REMARK  7 active torsions:
REMARK  status: ('A' for Active; 'I' for Inactive)
REMARK    1  A    between atoms: C_1  and  C_2
REMARK    2  A    between atoms: C_5  and  N_6
REMARK    3  A    between atoms: C_13  and  C_14
REMARK    4  A    between atoms: C_14  and  C_15
REMARK    5  A    between atoms: C_15  and  N_16
REMARK    6  A    between atoms: N_16  and  C_17
REMARK    7  A    between atoms: C_20  and  C_21
REMARK                            x       y       z     vdW  Elec       q    Type
REMARK                         _______ _______ _______ _____ _____    ______ ____
ROOT
ATOM      1  C   UNL     1      43.670   6.460  11.222  0.00  0.00    +0.000 C 
ENDROOT
BRANCH   1   8
ATOM      2  C   UNL     1      43.623   9.511  10.998  0.00  0.00    +0.000 C 
ATOM      3  C   UNL     1      44.822   8.751  11.492  0.00  0.00    +0.000 A 
ATOM      4  C   UNL     1      45.951   9.479  11.893  0.00  0.00    +0.000 A 
ATOM      5  C   UNL     1      47.083   8.840  12.410  0.00  0.00    +0.000 A 
ATOM      6  C   UNL     1      47.137   7.452  12.544  0.00  0.00    +0.000 A 
ATOM      7  C   UNL     1      46.011   6.729  12.110  0.00  0.00    +0.000 A 
ATOM      8  C   UNL     1      44.853   7.346  11.586  0.00  0.00    +0.000 A 
BRANCH   6   9
ATOM      9  N   UNL     1      48.217   6.798  13.111  0.00  0.00    +0.000 N 
ATOM     10  C   UNL     1      48.082   5.995  14.335  0.00  0.00    +0.000 C 
ATOM     11  C   UNL     1      48.840   6.630  15.521  0.00  0.00    +0.000 C 
ATOM     12  N   UNL     1      50.255   6.929  15.214  0.00  0.00    +0.000 NA
ATOM     13  C   UNL     1      50.292   7.821  14.035  0.00  0.00    +0.000 C 
ATOM     14  C   UNL     1      49.581   7.246  12.785  0.00  0.00    +0.000 C 
ATOM     15  H   UNL     1      50.710   6.053  14.956  0.00  0.00    +0.000 HD
ENDBRANCH   6   9
ENDBRANCH   1   8
BRANCH   1  16
ATOM     16  C   UNL     1      44.042   4.974  11.313  0.00  0.00    +0.000 C 
BRANCH  16  17
ATOM     17  N   UNL     1      43.602   4.205  10.134  0.00  0.00    +0.000 N 
ATOM     18  H   UNL     1      42.941   4.723   9.560  0.00  0.00    +0.000 HD
BRANCH  17  19
ATOM     19  C   UNL     1      44.628   3.646   9.341  0.00  0.00    +0.000 A 
ATOM     20  C   UNL     1      44.821   2.264   9.222  0.00  0.00    +0.000 A 
ATOM     21  C   UNL     1      45.829   1.729   8.417  0.00  0.00    +0.000 A 
ATOM     22  C   UNL     1      46.647   2.565   7.660  0.00  0.00    +0.000 A 
ATOM     23  C   UNL     1      46.436   3.947   7.710  0.00  0.00    +0.000 A 
ATOM     24  C   UNL     1      45.422   4.476   8.533  0.00  0.00    +0.000 A 
BRANCH  22  25
ATOM     25  C   UNL     1      47.713   1.923   6.844  0.00  0.00    +0.000 C 
ATOM     26  N   UNL     1      48.666   2.730   6.298  0.00  0.00    +0.000 N 
ATOM     27  O   UNL     1      47.722   0.718   6.629  0.00  0.00    +0.000 OA
ATOM     28  H   UNL     1      48.548   3.730   6.224  0.00  0.00    +0.000 HD
ATOM     29  H   UNL     1      49.287   2.283   5.633  0.00  0.00    +0.000 HD
ENDBRANCH  22  25
ENDBRANCH  17  19
ENDBRANCH  16  17
ENDBRANCH   1  16
TORSDOF 6
ENDMDL
MODEL 5
REMARK VINA RESULT:    -7.137      3.481      7.934
REMARK INTER + INTRA:         -10.551
REMARK INTER:                  -9.848
REMARK INTRA:                  -0.702
REMARK UNBOUND:                -0.910
REMARK  Name = 
REMARK  7 active torsions:
REMARK  status: ('A' for Active; 'I' for Inactive)
REMARK    1  A    between atoms: C_1  and  C_2
REMARK    2  A    between atoms: C_5  and  N_6
REMARK    3  A    between atoms: C_13  and  C_14
REMARK    4  A    between atoms: C_14  and  C_15
REMARK    5  A    between atoms: C_15  and  N_16
REMARK    6  A    between atoms: N_16  and  C_17
REMARK    7  A    between atoms: C_20  and  C_21
REMARK                            x       y       z     vdW  Elec       q    Type
REMARK                         _______ _______ _______ _____ _____    ______ ____
ROOT
ATOM      1  C   UNL     1      47.680   5.772  14.321  0.00  0.00    +0.000 C 
ENDROOT
BRANCH   1   8
ATOM      2  C   UNL     1      47.590   8.749  13.621  0.00  0.00    +0.000 C 
ATOM      3  C   UNL     1      46.681   7.736  12.983  0.00  0.00    +0.000 A 
ATOM      4  C   UNL     1      45.777   8.178  12.005  0.00  0.00    +0.000 A 
ATOM      5  C   UNL     1      44.937   7.282  11.335  0.00  0.00    +0.000 A 
ATOM      6  C   UNL     1      44.960   5.916  11.613  0.00  0.00    +0.000 A 
ATOM      7  C   UNL     1      45.847   5.487  12.617  0.00  0.00    +0.000 A 
ATOM      8  C   UNL     1      46.710   6.367  13.310  0.00  0.00    +0.000 A 
BRANCH   6   9
ATOM      9  N   UNL     1      44.187   5.000  10.921  0.00  0.00    +0.000 N 
ATOM     10  C   UNL     1      43.069   4.289  11.559  0.00  0.00    +0.000 C 
ATOM     11  C   UNL     1      43.353   2.776  11.687  0.00  0.00    +0.000 C 
ATOM     12  N   UNL     1      43.745   2.148  10.408  0.00  0.00    +0.000 NA
ATOM     13  C   UNL     1      44.934   2.859   9.889  0.00  0.00    +0.000 C 
ATOM     14  C   UNL     1      44.726   4.381   9.699  0.00  0.00    +0.000 C 
ATOM     15  H   UNL     1      42.983   2.290   9.744  0.00  0.00    +0.000 HD
ENDBRANCH   6   9
ENDBRANCH   1   8
BRANCH   1  16
ATOM     16  C   UNL     1      46.991   4.712  15.192  0.00  0.00    +0.000 C 
BRANCH  16  17
ATOM     17  N   UNL     1      47.457   4.737  16.591  0.00  0.00    +0.000 N 
ATOM     18  H   UNL     1      46.704   4.561  17.252  0.00  0.00    +0.000 HD
BRANCH  17  19
ATOM     19  C   UNL     1      48.581   3.935  16.884  0.00  0.00    +0.000 A 
ATOM     20  C   UNL     1      48.629   2.566  16.587  0.00  0.00    +0.000 A 
ATOM     21  C   UNL     1      49.757   1.793  16.866  0.00  0.00    +0.000 A 
ATOM     22  C   UNL     1      50.900   2.379  17.406  0.00  0.00    +0.000 A 
ATOM     23  C   UNL     1      50.904   3.756  17.654  0.00  0.00    +0.000 A 
ATOM     24  C   UNL     1      49.757   4.524  17.377  0.00  0.00    +0.000 A 
BRANCH  22  25
ATOM     25  C   UNL     1      52.055   1.486  17.696  0.00  0.00    +0.000 C 
ATOM     26  N   UNL     1      51.786   0.209  18.087  0.00  0.00    +0.000 N 
ATOM     27  O   UNL     1      53.211   1.886  17.631  0.00  0.00    +0.000 OA
ATOM     28  H   UNL     1      50.872  -0.076  18.409  0.00  0.00    +0.000 HD
ATOM     29  H   UNL     1      52.583  -0.324  18.417  0.00  0.00    +0.000 HD
ENDBRANCH  22  25
ENDBRANCH  17  19
ENDBRANCH  16  17
ENDBRANCH   1  16
TORSDOF 6
ENDMDL
MODEL 6
REMARK VINA RESULT:    -6.858      2.554      3.891
REMARK INTER + INTRA:         -10.173
REMARK INTER:                  -9.918
REMARK INTRA:                  -0.255
REMARK UNBOUND:                -0.910
REMARK  Name = 
REMARK  7 active torsions:
REMARK  status: ('A' for Active; 'I' for Inactive)
REMARK    1  A    between atoms: C_1  and  C_2
REMARK    2  A    between atoms: C_5  and  N_6
REMARK    3  A    between atoms: C_13  and  C_14
REMARK    4  A    between atoms: C_14  and  C_15
REMARK    5  A    between atoms: C_15  and  N_16
REMARK    6  A    between atoms: N_16  and  C_17
REMARK    7  A    between atoms: C_20  and  C_21
REMARK                            x       y       z     vdW  Elec       q    Type
REMARK                         _______ _______ _______ _____ _____    ______ ____
ROOT
ATOM      1  C   UNL     1      45.951   5.896  10.683  0.00  0.00    +0.000 C 
ENDROOT
BRANCH   1   8
ATOM      2  C   UNL     1      45.868   3.868  12.973  0.00  0.00    +0.000 C 
ATOM      3  C   UNL     1      46.632   5.160  13.059  0.00  0.00    +0.000 A 
ATOM      4  C   UNL     1      47.358   5.426  14.229  0.00  0.00    +0.000 A 
ATOM      5  C   UNL     1      48.132   6.584  14.357  0.00  0.00    +0.000 A 
ATOM      6  C   UNL     1      48.209   7.524  13.329  0.00  0.00    +0.000 A 
ATOM      7  C   UNL     1      47.453   7.264  12.172  0.00  0.00    +0.000 A 
ATOM      8  C   UNL     1      46.664   6.102  12.012  0.00  0.00    +0.000 A 
BRANCH   6   9
ATOM      9  N   UNL     1      49.017   8.646  13.403  0.00  0.00    +0.000 N 
ATOM     10  C   UNL     1      49.656   9.060  14.661  0.00  0.00    +0.000 C 
ATOM     11  C   UNL     1      49.084  10.398  15.179  0.00  0.00    +0.000 C 
ATOM     12  N   UNL     1      49.115  11.475  14.166  0.00  0.00    +0.000 NA
ATOM     13  C   UNL     1      48.366  11.013  12.978  0.00  0.00    +0.000 C 
ATOM     14  C   UNL     1      48.895   9.689  12.372  0.00  0.00    +0.000 C 
ATOM     15  H   UNL     1      50.087  11.612  13.887  0.00  0.00    +0.000 HD
ENDBRANCH   6   9
ENDBRANCH   1   8
BRANCH   1  16
ATOM     16  C   UNL     1      44.429   5.860  10.871  0.00  0.00    +0.000 C 
BRANCH  16  17
ATOM     17  N   UNL     1      43.754   5.007   9.875  0.00  0.00    +0.000 N 
ATOM     18  H   UNL     1      43.272   5.551   9.163  0.00  0.00    +0.000 HD
BRANCH  17  19
ATOM     19  C   UNL     1      44.546   3.997   9.287  0.00  0.00    +0.000 A 
ATOM     20  C   UNL     1      44.426   2.645   9.635  0.00  0.00    +0.000 A 
ATOM     21  C   UNL     1      45.204   1.658   9.028  0.00  0.00    +0.000 A 
ATOM     22  C   UNL     1      46.096   1.988   8.009  0.00  0.00    +0.000 A 
ATOM     23  C   UNL     1      46.191   3.321   7.597  0.00  0.00    +0.000 A 
ATOM     24  C   UNL     1      45.407   4.310   8.222  0.00  0.00    +0.000 A 
BRANCH  22  25
ATOM     25  C   UNL     1      46.907   0.885   7.426  0.00  0.00    +0.000 C 
ATOM     26  N   UNL     1      47.790   1.201   6.437  0.00  0.00    +0.000 N 
ATOM     27  O   UNL     1      46.766  -0.278   7.784  0.00  0.00    +0.000 OA
ATOM     28  H   UNL     1      47.746   2.076   5.935  0.00  0.00    +0.000 HD
ATOM     29  H   UNL     1      48.215   0.412   5.964  0.00  0.00    +0.000 HD
ENDBRANCH  22  25
ENDBRANCH  17  19
ENDBRANCH  16  17
ENDBRANCH   1  16
TORSDOF 6
ENDMDL
MODEL 7
REMARK VINA RESULT:    -6.664      3.742      7.908
REMARK INTER + INTRA:          -9.911
REMARK INTER:                  -9.000
REMARK INTRA:                  -0.911
REMARK UNBOUND:                -0.910
REMARK  Name = 
REMARK  7 active torsions:
REMARK  status: ('A' for Active; 'I' for Inactive)
REMARK    1  A    between atoms: C_1  and  C_2
REMARK    2  A    between atoms: C_5  and  N_6
REMARK    3  A    between atoms: C_13  and  C_14
REMARK    4  A    between atoms: C_14  and  C_15
REMARK    5  A    between atoms: C_15  and  N_16
REMARK    6  A    between atoms: N_16  and  C_17
REMARK    7  A    between atoms: C_20  and  C_21
REMARK                            x       y       z     vdW  Elec       q    Type
REMARK                         _______ _______ _______ _____ _____    ______ ____
ROOT
ATOM      1  C   UNL     1      49.029   7.049  14.313  0.00  0.00    +0.000 C 
ENDROOT
BRANCH   1   8
ATOM      2  C   UNL     1      48.277   9.544  12.710  0.00  0.00    +0.000 C 
ATOM      3  C   UNL     1      47.365   8.356  12.841  0.00  0.00    +0.000 A 
ATOM      4  C   UNL     1      46.132   8.389  12.173  0.00  0.00    +0.000 A 
ATOM      5  C   UNL     1      45.256   7.298  12.210  0.00  0.00    +0.000 A 
ATOM      6  C   UNL     1      45.571   6.137  12.915  0.00  0.00    +0.000 A 
ATOM      7  C   UNL     1      46.795   6.126  13.607  0.00  0.00    +0.000 A 
ATOM      8  C   UNL     1      47.702   7.210  13.587  0.00  0.00    +0.000 A 
BRANCH   6   9
ATOM      9  N   UNL     1      44.753   5.019  12.916  0.00  0.00    +0.000 N 
ATOM     10  C   UNL     1      45.250   3.695  12.515  0.00  0.00    +0.000 C 
ATOM     11  C   UNL     1      44.592   3.211  11.204  0.00  0.00    +0.000 C 
ATOM     12  N   UNL     1      43.115   3.255  11.243  0.00  0.00    +0.000 NA
ATOM     13  C   UNL     1      42.703   4.641  11.552  0.00  0.00    +0.000 C 
ATOM     14  C   UNL     1      43.292   5.197  12.871  0.00  0.00    +0.000 C 
ATOM     15  H   UNL     1      42.806   2.660  12.013  0.00  0.00    +0.000 HD
ENDBRANCH   6   9
ENDBRANCH   1   8
BRANCH   1  16
ATOM     16  C   UNL     1      48.982   7.694  15.704  0.00  0.00    +0.000 C 
BRANCH  16  17
ATOM     17  N   UNL     1      48.466   6.777  16.738  0.00  0.00    +0.000 N 
ATOM     18  H   UNL     1      47.477   6.572  16.615  0.00  0.00    +0.000 HD
BRANCH  17  19
ATOM     19  C   UNL     1      49.205   5.591  16.938  0.00  0.00    +0.000 A 
ATOM     20  C   UNL     1      50.576   5.595  17.226  0.00  0.00    +0.000 A 
ATOM     21  C   UNL     1      51.286   4.411  17.440  0.00  0.00    +0.000 A 
ATOM     22  C   UNL     1      50.630   3.182  17.422  0.00  0.00    +0.000 A 
ATOM     23  C   UNL     1      49.250   3.151  17.199  0.00  0.00    +0.000 A 
ATOM     24  C   UNL     1      48.546   4.351  16.977  0.00  0.00    +0.000 A 
BRANCH  22  25
ATOM     25  C   UNL     1      51.458   1.963  17.636  0.00  0.00    +0.000 C 
ATOM     26  N   UNL     1      52.497   2.048  18.514  0.00  0.00    +0.000 N 
ATOM     27  O   UNL     1      51.248   0.925  17.020  0.00  0.00    +0.000 OA
ATOM     28  H   UNL     1      52.864   2.934  18.831  0.00  0.00    +0.000 HD
ATOM     29  H   UNL     1      53.124   1.252  18.525  0.00  0.00    +0.000 HD
ENDBRANCH  22  25
ENDBRANCH  17  19
ENDBRANCH  16  17
ENDBRANCH   1  16
TORSDOF 6
ENDMDL
MODEL 8
REMARK VINA RESULT:    -6.441      3.128      5.227
REMARK INTER + INTRA:          -9.610
REMARK INTER:                  -8.507
REMARK INTRA:                  -1.103
REMARK UNBOUND:                -0.910
REMARK  Name = 
REMARK  7 active torsions:
REMARK  status: ('A' for Active; 'I' for Inactive)
REMARK    1  A    between atoms: C_1  and  C_2
REMARK    2  A    between atoms: C_5  and  N_6
REMARK    3  A    between atoms: C_13  and  C_14
REMARK    4  A    between atoms: C_14  and  C_15
REMARK    5  A    between atoms: C_15  and  N_16
REMARK    6  A    between atoms: N_16  and  C_17
REMARK    7  A    between atoms: C_20  and  C_21
REMARK                            x       y       z     vdW  Elec       q    Type
REMARK                         _______ _______ _______ _____ _____    ______ ____
ROOT
ATOM      1  C   UNL     1      49.189   8.264  14.876  0.00  0.00    +0.000 C 
ENDROOT
BRANCH   1   8
ATOM      2  C   UNL     1      48.274  10.009  17.218  0.00  0.00    +0.000 C 
ATOM      3  C   UNL     1      48.398   8.514  17.318  0.00  0.00    +0.000 A 
ATOM      4  C   UNL     1      48.050   7.899  18.529  0.00  0.00    +0.000 A 
ATOM      5  C   UNL     1      48.093   6.508  18.676  0.00  0.00    +0.000 A 
ATOM      6  C   UNL     1      48.488   5.678  17.627  0.00  0.00    +0.000 A 
ATOM      7  C   UNL     1      48.865   6.307  16.427  0.00  0.00    +0.000 A 
ATOM      8  C   UNL     1      48.830   7.708  16.247  0.00  0.00    +0.000 A 
BRANCH   6   9
ATOM      9  N   UNL     1      48.478   4.297  17.725  0.00  0.00    +0.000 N 
ATOM     10  C   UNL     1      49.657   3.543  18.177  0.00  0.00    +0.000 C 
ATOM     11  C   UNL     1      50.251   2.679  17.044  0.00  0.00    +0.000 C 
ATOM     12  N   UNL     1      49.253   1.801  16.396  0.00  0.00    +0.000 NA
ATOM     13  C   UNL     1      48.156   2.650  15.883  0.00  0.00    +0.000 C 
ATOM     14  C   UNL     1      47.479   3.529  16.964  0.00  0.00    +0.000 C 
ATOM     15  H   UNL     1      48.864   1.189  17.115  0.00  0.00    +0.000 HD
ENDBRANCH   6   9
ENDBRANCH   1   8
BRANCH   1  16
ATOM     16  C   UNL     1      48.883   7.247  13.768  0.00  0.00    +0.000 C 
BRANCH  16  17
ATOM     17  N   UNL     1      47.724   7.636  12.944  0.00  0.00    +0.000 N 
ATOM     18  H   UNL     1      47.998   8.153  12.111  0.00  0.00    +0.000 HD
BRANCH  17  19
ATOM     19  C   UNL     1      46.820   6.602  12.619  0.00  0.00    +0.000 A 
ATOM     20  C   UNL     1      46.274   6.451  11.338  0.00  0.00    +0.000 A 
ATOM     21  C   UNL     1      45.397   5.409  11.030  0.00  0.00    +0.000 A 
ATOM     22  C   UNL     1      45.077   4.449  11.988  0.00  0.00    +0.000 A 
ATOM     23  C   UNL     1      45.656   4.538  13.258  0.00  0.00    +0.000 A 
ATOM     24  C   UNL     1      46.533   5.598  13.559  0.00  0.00    +0.000 A 
BRANCH  22  25
ATOM     25  C   UNL     1      44.117   3.382  11.593  0.00  0.00    +0.000 C 
ATOM     26  N   UNL     1      43.845   2.405  12.503  0.00  0.00    +0.000 N 
ATOM     27  O   UNL     1      43.615   3.348  10.476  0.00  0.00    +0.000 OA
ATOM     28  H   UNL     1      44.426   2.246  13.313  0.00  0.00    +0.000 HD
ATOM     29  H   UNL     1      43.307   1.621  12.153  0.00  0.00    +0.000 HD
ENDBRANCH  22  25
ENDBRANCH  17  19
ENDBRANCH  16  17
ENDBRANCH   1  16
TORSDOF 6
ENDMDL
MODEL 9
REMARK VINA RESULT:    -6.440      2.877      4.581
REMARK INTER + INTRA:          -9.608
REMARK INTER:                  -8.685
REMARK INTRA:                  -0.924
REMARK UNBOUND:                -0.910
REMARK  Name = 
REMARK  7 active torsions:
REMARK  status: ('A' for Active; 'I' for Inactive)
REMARK    1  A    between atoms: C_1  and  C_2
REMARK    2  A    between atoms: C_5  and  N_6
REMARK    3  A    between atoms: C_13  and  C_14
REMARK    4  A    between atoms: C_14  and  C_15
REMARK    5  A    between atoms: C_15  and  N_16
REMARK    6  A    between atoms: N_16  and  C_17
REMARK    7  A    between atoms: C_20  and  C_21
REMARK                            x       y       z     vdW  Elec       q    Type
REMARK                         _______ _______ _______ _____ _____    ______ ____
ROOT
ATOM      1  C   UNL     1      48.561   6.993  12.646  0.00  0.00    +0.000 C 
ENDROOT
BRANCH   1   8
ATOM      2  C   UNL     1      50.994   8.666  13.444  0.00  0.00    +0.000 C 
ATOM      3  C   UNL     1      50.264   7.780  14.414  0.00  0.00    +0.000 A 
ATOM      4  C   UNL     1      50.705   7.747  15.744  0.00  0.00    +0.000 A 
ATOM      5  C   UNL     1      50.042   6.983  16.711  0.00  0.00    +0.000 A 
ATOM      6  C   UNL     1      48.919   6.221  16.390  0.00  0.00    +0.000 A 
ATOM      7  C   UNL     1      48.504   6.236  15.047  0.00  0.00    +0.000 A 
ATOM      8  C   UNL     1      49.151   6.999  14.048  0.00  0.00    +0.000 A 
BRANCH   6   9
ATOM      9  N   UNL     1      48.205   5.508  17.339  0.00  0.00    +0.000 N 
ATOM     10  C   UNL     1      48.486   5.634  18.777  0.00  0.00    +0.000 C 
ATOM     11  C   UNL     1      49.062   4.327  19.363  0.00  0.00    +0.000 C 
ATOM     12  N   UNL     1      48.231   3.140  19.068  0.00  0.00    +0.000 NA
ATOM     13  C   UNL     1      48.086   3.033  17.600  0.00  0.00    +0.000 C 
ATOM     14  C   UNL     1      47.482   4.292  16.931  0.00  0.00    +0.000 C 
ATOM     15  H   UNL     1      47.303   3.304  19.461  0.00  0.00    +0.000 HD
ENDBRANCH   6   9
ENDBRANCH   1   8
BRANCH   1  16
ATOM     16  C   UNL     1      47.429   8.021  12.516  0.00  0.00    +0.000 C 
BRANCH  16  17
ATOM     17  N   UNL     1      46.178   7.572  13.156  0.00  0.00    +0.000 N 
ATOM     18  H   UNL     1      45.488   8.317  13.221  0.00  0.00    +0.000 HD
BRANCH  17  19
ATOM     19  C   UNL     1      45.600   6.397  12.628  0.00  0.00    +0.000 A 
ATOM     20  C   UNL     1      45.276   6.259  11.272  0.00  0.00    +0.000 A 
ATOM     21  C   UNL     1      44.723   5.081  10.764  0.00  0.00    +0.000 A 
ATOM     22  C   UNL     1      44.525   3.979  11.593  0.00  0.00    +0.000 A 
ATOM     23  C   UNL     1      44.898   4.066  12.938  0.00  0.00    +0.000 A 
ATOM     24  C   UNL     1      45.446   5.262  13.441  0.00  0.00    +0.000 A 
BRANCH  22  25
ATOM     25  C   UNL     1      43.911   2.767  10.985  0.00  0.00    +0.000 C 
ATOM     26  N   UNL     1      44.503   2.246   9.873  0.00  0.00    +0.000 N 
ATOM     27  O   UNL     1      42.886   2.270  11.434  0.00  0.00    +0.000 OA
ATOM     28  H   UNL     1      45.172   2.767   9.325  0.00  0.00    +0.000 HD
ATOM     29  H   UNL     1      43.980   1.517   9.402  0.00  0.00    +0.000 HD
ENDBRANCH  22  25
ENDBRANCH  17  19
ENDBRANCH  16  17
ENDBRANCH   1  16
TORSDOF 6
ENDMDL
