MODEL 1
REMARK VINA RESULT:    -8.311      0.000      0.000
REMARK INTER + INTRA:         -11.429
REMARK INTER:                 -10.740
REMARK INTRA:                  -0.689
REMARK UNBOUND:                -0.689
REMARK  Name = 
REMARK  5 active torsions:
REMARK  status: ('A' for Active; 'I' for Inactive)
REMARK    1  A    between atoms: C_2  and  C_18
REMARK    2  A    between atoms: N_3  and  C_4
REMARK    3  A    between atoms: C_4  and  C_5
REMARK    4  A    between atoms: C_8  and  C_9
REMARK    5  A    between atoms: C_9  and  C_10
REMARK                            x       y       z     vdW  Elec       q    Type
REMARK                         _______ _______ _______ _____ _____    ______ ____
ROOT
ATOM      1  O   UNL     1      48.639   7.090  12.766  0.00  0.00    +0.000 OA
ATOM      2  C   UNL     1      47.926   6.862  13.737  0.00  0.00    +0.000 C 
ATOM      3  N   UNL     1      46.557   6.947  13.695  0.00  0.00    +0.000 N 
ATOM      4  H   UNL     1      46.030   6.963  14.561  0.00  0.00    +0.000 HD
ENDROOT
BRANCH   2   5
ATOM      5  C   UNL     1      48.492   6.425  15.014  0.00  0.00    +0.000 A 
ATOM      6  C   UNL     1      49.516   7.148  15.616  0.00  0.00    +0.000 A 
ATOM      7  S   UNL     1      50.014   6.482  17.108  0.00  0.00    +0.000 S 
ATOM      8  C   UNL     1      48.868   5.232  17.003  0.00  0.00    +0.000 A 
ATOM      9  N   UNL     1      48.734   4.302  17.991  0.00  0.00    +0.000 NA
ATOM     10  C   UNL     1      47.803   3.437  17.783  0.00  0.00    +0.000 A 
ATOM     11  N   UNL     1      46.998   3.398  16.677  0.00  0.00    +0.000 N 
ATOM     12  C   UNL     1      47.145   4.261  15.625  0.00  0.00    +0.000 A 
ATOM     13  O   UNL     1      46.508   4.100  14.589  0.00  0.00    +0.000 OA
ATOM     14  C   UNL     1      48.136   5.296  15.827  0.00  0.00    +0.000 A 
ATOM     15  H   UNL     1      46.313   2.665  16.548  0.00  0.00    +0.000 HD
ENDBRANCH   2   5
BRANCH   3  16
ATOM     16  C   UNL     1      45.843   7.356  12.515  0.00  0.00    +0.000 C 
BRANCH  16  17
ATOM     17  C   UNL     1      45.478   6.195  11.629  0.00  0.00    +0.000 A 
ATOM     18  C   UNL     1      45.958   6.156  10.316  0.00  0.00    +0.000 A 
ATOM     19  C   UNL     1      45.694   5.062   9.487  0.00  0.00    +0.000 A 
ATOM     20  C   UNL     1      44.933   3.983   9.954  0.00  0.00    +0.000 A 
ATOM     21  C   UNL     1      44.425   4.035  11.260  0.00  0.00    +0.000 A 
ATOM     22  C   UNL     1      44.684   5.135  12.088  0.00  0.00    +0.000 A 
BRANCH  20  23
ATOM     23  C   UNL     1      44.646   2.795   9.069  0.00  0.00    +0.000 C 
BRANCH  23  24
ATOM     24  C   UNL     1      45.701   2.471   8.043  0.00  0.00    +0.000 A 
ATOM     25  C   UNL     1      45.952   3.319   6.959  0.00  0.00    +0.000 A 
ATOM     26  C   UNL     1      46.844   2.925   5.963  0.00  0.00    +0.000 A 
ATOM     27  C   UNL     1      47.479   1.701   6.097  0.00  0.00    +0.000 A 
ATOM     28  N   UNL     1      47.297   0.875   7.147  0.00  0.00    +0.000 NA
ATOM     29  C   UNL     1      46.418   1.279   8.093  0.00  0.00    +0.000 A 
ENDBRANCH  23  24
ENDBRANCH  20  23
ENDBRANCH  16  17
ENDBRANCH   3  16
TORSDOF 5
ENDMDL
MODEL 2
REMARK VINA RESULT:    -7.851      1.485      2.273
REMARK INTER + INTRA:         -10.834
REMARK INTER:                 -10.022
REMARK INTRA:                  -0.813
REMARK UNBOUND:                -0.689
REMARK  Name = 
REMARK  5 active torsions:
REMARK  status: ('A' for Active; 'I' for Inactive)
REMARK    1  A    between atoms: C_2  and  C_18
REMARK    2  A    between atoms: N_3  and  C_4
REMARK    3  A    between atoms: C_4  and  C_5
REMARK    4  A    between atoms: C_8  and  C_9
REMARK    5  A    between atoms: C_9  and  C_10
REMARK                            x       y       z     vdW  Elec       q    Type
REMARK                         _______ _______ _______ _____ _____    ______ ____
ROOT
ATOM      1  O   UNL     1      48.681   6.251  13.795  0.00  0.00    +0.000 OA
ATOM      2  C   UNL     1      47.720   5.833  14.430  0.00  0.00    +0.000 C 
ATOM      3  N   UNL     1      46.421   6.014  14.025  0.00  0.00    +0.000 N 
ATOM      4  H   UNL     1      45.665   5.846  14.680  0.00  0.00    +0.000 HD
ENDROOT
BRANCH   2   5
ATOM      5  C   UNL     1      47.896   5.056  15.658  0.00  0.00    +0.000 A 
ATOM      6  C   UNL     1      47.433   3.747  15.738  0.00  0.00    +0.000 A 
ATOM      7  S   UNL     1      47.760   3.016  17.246  0.00  0.00    +0.000 S 
ATOM      8  C   UNL     1      48.543   4.408  17.822  0.00  0.00    +0.000 A 
ATOM      9  N   UNL     1      49.101   4.451  19.065  0.00  0.00    +0.000 NA
ATOM     10  C   UNL     1      49.685   5.563  19.347  0.00  0.00    +0.000 A 
ATOM     11  N   UNL     1      49.757   6.648  18.515  0.00  0.00    +0.000 N 
ATOM     12  C   UNL     1      49.147   6.681  17.290  0.00  0.00    +0.000 A 
ATOM     13  O   UNL     1      49.104   7.720  16.640  0.00  0.00    +0.000 OA
ATOM     14  C   UNL     1      48.526   5.437  16.891  0.00  0.00    +0.000 A 
ATOM     15  H   UNL     1      50.190   7.512  18.811  0.00  0.00    +0.000 HD
ENDBRANCH   2   5
BRANCH   3  16
ATOM     16  C   UNL     1      46.076   6.750  12.839  0.00  0.00    +0.000 C 
BRANCH  16  17
ATOM     17  C   UNL     1      45.768   5.851  11.671  0.00  0.00    +0.000 A 
ATOM     18  C   UNL     1      45.024   4.685  11.880  0.00  0.00    +0.000 A 
ATOM     19  C   UNL     1      44.662   3.863  10.809  0.00  0.00    +0.000 A 
ATOM     20  C   UNL     1      45.047   4.186   9.502  0.00  0.00    +0.000 A 
ATOM     21  C   UNL     1      45.819   5.339   9.296  0.00  0.00    +0.000 A 
ATOM     22  C   UNL     1      46.187   6.158  10.370  0.00  0.00    +0.000 A 
BRANCH  20  23
ATOM     23  C   UNL     1      44.657   3.309   8.338  0.00  0.00    +0.000 C 
BRANCH  23  24
ATOM     24  C   UNL     1      45.798   2.674   7.584  0.00  0.00    +0.000 A 
ATOM     25  C   UNL     1      46.322   3.254   6.425  0.00  0.00    +0.000 A 
ATOM     26  C   UNL     1      47.288   2.575   5.686  0.00  0.00    +0.000 A 
ATOM     27  C   UNL     1      47.720   1.342   6.146  0.00  0.00    +0.000 A 
ATOM     28  N   UNL     1      47.271   0.768   7.281  0.00  0.00    +0.000 NA
ATOM     29  C   UNL     1      46.326   1.446   7.972  0.00  0.00    +0.000 A 
ENDBRANCH  23  24
ENDBRANCH  20  23
ENDBRANCH  16  17
ENDBRANCH   3  16
TORSDOF 5
ENDMDL
MODEL 3
REMARK VINA RESULT:    -7.800      1.803      3.327
REMARK INTER + INTRA:         -10.769
REMARK INTER:                 -10.023
REMARK INTRA:                  -0.746
REMARK UNBOUND:                -0.689
REMARK  Name = 
REMARK  5 active torsions:
REMARK  status: ('A' for Active; 'I' for Inactive)
REMARK    1  A    between atoms: C_2  and  C_18
REMARK    2  A    between atoms: N_3  and  C_4
REMARK    3  A    between atoms: C_4  and  C_5
REMARK    4  A    between atoms: C_8  and  C_9
REMARK    5  A    between atoms: C_9  and  C_10
REMARK                            x       y       z     vdW  Elec       q    Type
REMARK                         _______ _______ _______ _____ _____    ______ ____
ROOT
ATOM      1  O   UNL     1      47.375   4.360  14.713  0.00  0.00    +0.000 OA
ATOM      2  C   UNL     1      47.353   5.528  14.340  0.00  0.00    +0.000 C 
ATOM      3  N   UNL     1      46.274   6.089  13.706  0.00  0.00    +0.000 N 
ATOM      4  H   UNL     1      46.380   6.977  13.228  0.00  0.00    +0.000 HD
ENDROOT
BRANCH   2   5
ATOM      5  C   UNL     1      48.475   6.432  14.595  0.00  0.00    +0.000 A 
ATOM      6  C   UNL     1      48.974   6.592  15.883  0.00  0.00    +0.000 A 
ATOM      7  S   UNL     1      50.296   7.672  15.956  0.00  0.00    +0.000 S 
ATOM      8  C   UNL     1      50.253   7.936  14.279  0.00  0.00    +0.000 A 
ATOM      9  N   UNL     1      51.154   8.751  13.661  0.00  0.00    +0.000 NA
ATOM     10  C   UNL     1      51.013   8.827  12.384  0.00  0.00    +0.000 A 
ATOM     11  N   UNL     1      50.051   8.178  11.658  0.00  0.00    +0.000 N 
ATOM     12  C   UNL     1      49.079   7.411  12.240  0.00  0.00    +0.000 A 
ATOM     13  O   UNL     1      48.146   6.971  11.575  0.00  0.00    +0.000 OA
ATOM     14  C   UNL     1      49.220   7.238  13.669  0.00  0.00    +0.000 A 
ATOM     15  H   UNL     1      49.962   8.313  10.660  0.00  0.00    +0.000 HD
ENDBRANCH   2   5
BRANCH   3  16
ATOM     16  C   UNL     1      45.090   5.339  13.384  0.00  0.00    +0.000 C 
BRANCH  16  17
ATOM     17  C   UNL     1      45.059   4.895  11.946  0.00  0.00    +0.000 A 
ATOM     18  C   UNL     1      44.446   3.681  11.615  0.00  0.00    +0.000 A 
ATOM     19  C   UNL     1      44.341   3.270  10.284  0.00  0.00    +0.000 A 
ATOM     20  C   UNL     1      44.856   4.063   9.251  0.00  0.00    +0.000 A 
ATOM     21  C   UNL     1      45.498   5.265   9.584  0.00  0.00    +0.000 A 
ATOM     22  C   UNL     1      45.609   5.673  10.919  0.00  0.00    +0.000 A 
BRANCH  20  23
ATOM     23  C   UNL     1      44.743   3.631   7.810  0.00  0.00    +0.000 C 
BRANCH  23  24
ATOM     24  C   UNL     1      45.917   2.864   7.260  0.00  0.00    +0.000 A 
ATOM     25  C   UNL     1      46.552   3.247   6.074  0.00  0.00    +0.000 A 
ATOM     26  C   UNL     1      47.551   2.441   5.531  0.00  0.00    +0.000 A 
ATOM     27  C   UNL     1      47.903   1.285   6.209  0.00  0.00    +0.000 A 
ATOM     28  N   UNL     1      47.346   0.904   7.376  0.00  0.00    +0.000 NA
ATOM     29  C   UNL     1      46.372   1.700   7.874  0.00  0.00    +0.000 A 
ENDBRANCH  23  24
ENDBRANCH  20  23
ENDBRANCH  16  17
ENDBRANCH   3  16
TORSDOF 5
ENDMDL
MODEL 4
REMARK VINA RESULT:    -7.682      3.982      9.532
REMARK INTER + INTRA:         -10.616
REMARK INTER:                  -9.727
REMARK INTRA:                  -0.889
REMARK UNBOUND:                -0.689
REMARK  Name = 
REMARK  5 active torsions:
REMARK  status: ('A' for Active; 'I' for Inactive)
REMARK    1  A    between atoms: C_2  and  C_18
REMARK    2  A    between atoms: N_3  and  C_4
REMARK    3  A    between atoms: C_4  and  C_5
REMARK    4  A    between atoms: C_8  and  C_9
REMARK    5  A    between atoms: C_9  and  C_10
REMARK                            x       y       z     vdW  Elec       q    Type
REMARK                         _______ _______ _______ _____ _____    ______ ____
ROOT
ATOM      1  O   UNL     1      47.264   3.139  14.013  0.00  0.00    +0.000 OA
ATOM      2  C   UNL     1      46.850   4.190  14.488  0.00  0.00    +0.000 C 
ATOM      3  N   UNL     1      46.832   4.443  15.837  0.00  0.00    +0.000 N 
ATOM      4  H   UNL     1      46.289   5.223  16.193  0.00  0.00    +0.000 HD
ENDROOT
BRANCH   2   5
ATOM      5  C   UNL     1      46.386   5.285  13.635  0.00  0.00    +0.000 A 
ATOM      6  C   UNL     1      47.195   6.392  13.404  0.00  0.00    +0.000 A 
ATOM      7  S   UNL     1      46.475   7.538  12.363  0.00  0.00    +0.000 S 
ATOM      8  C   UNL     1      45.082   6.585  12.174  0.00  0.00    +0.000 A 
ATOM      9  N   UNL     1      44.055   6.973  11.367  0.00  0.00    +0.000 NA
ATOM     10  C   UNL     1      43.083   6.132  11.302  0.00  0.00    +0.000 A 
ATOM     11  N   UNL     1      43.027   4.940  11.974  0.00  0.00    +0.000 N 
ATOM     12  C   UNL     1      43.997   4.542  12.853  0.00  0.00    +0.000 A 
ATOM     13  O   UNL     1      43.839   3.544  13.550  0.00  0.00    +0.000 OA
ATOM     14  C   UNL     1      45.145   5.419  12.924  0.00  0.00    +0.000 A 
ATOM     15  H   UNL     1      42.215   4.340  11.918  0.00  0.00    +0.000 HD
ENDBRANCH   2   5
BRANCH   3  16
ATOM     16  C   UNL     1      47.258   3.476  16.811  0.00  0.00    +0.000 C 
BRANCH  16  17
ATOM     17  C   UNL     1      48.741   3.528  17.068  0.00  0.00    +0.000 A 
ATOM     18  C   UNL     1      49.345   4.758  17.353  0.00  0.00    +0.000 A 
ATOM     19  C   UNL     1      50.706   4.835  17.661  0.00  0.00    +0.000 A 
ATOM     20  C   UNL     1      51.497   3.679  17.682  0.00  0.00    +0.000 A 
ATOM     21  C   UNL     1      50.898   2.451  17.367  0.00  0.00    +0.000 A 
ATOM     22  C   UNL     1      49.537   2.375  17.051  0.00  0.00    +0.000 A 
BRANCH  20  23
ATOM     23  C   UNL     1      52.966   3.750  18.020  0.00  0.00    +0.000 C 
BRANCH  23  24
ATOM     24  C   UNL     1      53.324   3.470  19.456  0.00  0.00    +0.000 A 
ATOM     25  C   UNL     1      52.823   4.252  20.502  0.00  0.00    +0.000 A 
ATOM     26  C   UNL     1      53.276   4.042  21.803  0.00  0.00    +0.000 A 
ATOM     27  C   UNL     1      54.200   3.035  22.022  0.00  0.00    +0.000 A 
ATOM     28  N   UNL     1      54.675   2.231  21.049  0.00  0.00    +0.000 NA
ATOM     29  C   UNL     1      54.225   2.465  19.794  0.00  0.00    +0.000 A 
ENDBRANCH  23  24
ENDBRANCH  20  23
ENDBRANCH  16  17
ENDBRANCH   3  16
TORSDOF 5
ENDMDL
MODEL 5
REMARK VINA RESULT:    -7.420      1.281      1.899
REMARK INTER + INTRA:         -10.278
REMARK INTER:                  -9.230
REMARK INTRA:                  -1.048
REMARK UNBOUND:                -0.689
REMARK  Name = 
REMARK  5 active torsions:
REMARK  status: ('A' for Active; 'I' for Inactive)
REMARK    1  A    between atoms: C_2  and  C_18
REMARK    2  A    between atoms: N_3  and  C_4
REMARK    3  A    between atoms: C_4  and  C_5
REMARK    4  A    between atoms: C_8  and  C_9
REMARK    5  A    between atoms: C_9  and  C_10
REMARK                            x       y       z     vdW  Elec       q    Type
REMARK                         _______ _______ _______ _____ _____    ______ ____
ROOT
ATOM      1  O   UNL     1      49.902   7.624  14.036  0.00  0.00    +0.000 OA
ATOM      2  C   UNL     1      49.079   7.442  14.926  0.00  0.00    +0.000 C 
ATOM      3  N   UNL     1      47.748   7.744  14.785  0.00  0.00    +0.000 N 
ATOM      4  H   UNL     1      47.153   7.782  15.606  0.00  0.00    +0.000 HD
ENDROOT
BRANCH   2   5
ATOM      5  C   UNL     1      49.456   6.834  16.202  0.00  0.00    +0.000 A 
ATOM      6  C   UNL     1      50.392   7.446  17.028  0.00  0.00    +0.000 A 
ATOM      7  S   UNL     1      50.669   6.584  18.476  0.00  0.00    +0.000 S 
ATOM      8  C   UNL     1      49.538   5.389  18.055  0.00  0.00    +0.000 A 
ATOM      9  N   UNL     1      49.257   4.347  18.887  0.00  0.00    +0.000 NA
ATOM     10  C   UNL     1      48.357   3.541  18.443  0.00  0.00    +0.000 A 
ATOM     11  N   UNL     1      47.714   3.663  17.241  0.00  0.00    +0.000 N 
ATOM     12  C   UNL     1      48.016   4.648  16.338  0.00  0.00    +0.000 A 
ATOM     13  O   UNL     1      47.530   4.635  15.212  0.00  0.00    +0.000 OA
ATOM     14  C   UNL     1      48.978   5.621  16.807  0.00  0.00    +0.000 A 
ATOM     15  H   UNL     1      47.048   2.971  16.925  0.00  0.00    +0.000 HD
ENDBRANCH   2   5
BRANCH   3  16
ATOM     16  C   UNL     1      47.213   8.343  13.592  0.00  0.00    +0.000 C 
BRANCH  16  17
ATOM     17  C   UNL     1      46.416   7.369  12.765  0.00  0.00    +0.000 A 
ATOM     18  C   UNL     1      45.093   7.677  12.428  0.00  0.00    +0.000 A 
ATOM     19  C   UNL     1      44.346   6.828  11.607  0.00  0.00    +0.000 A 
ATOM     20  C   UNL     1      44.906   5.645  11.109  0.00  0.00    +0.000 A 
ATOM     21  C   UNL     1      46.221   5.321  11.471  0.00  0.00    +0.000 A 
ATOM     22  C   UNL     1      46.967   6.168  12.300  0.00  0.00    +0.000 A 
BRANCH  20  23
ATOM     23  C   UNL     1      44.109   4.725  10.217  0.00  0.00    +0.000 C 
BRANCH  23  24
ATOM     24  C   UNL     1      44.915   3.793   9.349  0.00  0.00    +0.000 A 
ATOM     25  C   UNL     1      45.621   4.257   8.235  0.00  0.00    +0.000 A 
ATOM     26  C   UNL     1      46.250   3.348   7.385  0.00  0.00    +0.000 A 
ATOM     27  C   UNL     1      46.173   2.000   7.692  0.00  0.00    +0.000 A 
ATOM     28  N   UNL     1      45.539   1.516   8.780  0.00  0.00    +0.000 NA
ATOM     29  C   UNL     1      44.930   2.420   9.581  0.00  0.00    +0.000 A 
ENDBRANCH  23  24
ENDBRANCH  20  23
ENDBRANCH  16  17
ENDBRANCH   3  16
TORSDOF 5
ENDMDL
MODEL 6
REMARK VINA RESULT:    -7.159      3.016      3.711
REMARK INTER + INTRA:          -9.941
REMARK INTER:                  -9.898
REMARK INTRA:                  -0.043
REMARK UNBOUND:                -0.689
REMARK  Name = 
REMARK  5 active torsions:
REMARK  status: ('A' for Active; 'I' for Inactive)
REMARK    1  A    between atoms: C_2  and  C_18
REMARK    2  A    between atoms: N_3  and  C_4
REMARK    3  A    between atoms: C_4  and  C_5
REMARK    4  A    between atoms: C_8  and  C_9
REMARK    5  A    between atoms: C_9  and  C_10
REMARK                            x       y       z     vdW  Elec       q    Type
REMARK                         _______ _______ _______ _____ _____    ______ ____
ROOT
ATOM      1  O   UNL     1      44.428   8.557  11.017  0.00  0.00    +0.000 OA
ATOM      2  C   UNL     1      45.193   8.214  11.910  0.00  0.00    +0.000 C 
ATOM      3  N   UNL     1      44.989   7.098  12.681  0.00  0.00    +0.000 N 
ATOM      4  H   UNL     1      45.520   6.975  13.537  0.00  0.00    +0.000 HD
ENDROOT
BRANCH   2   5
ATOM      5  C   UNL     1      46.424   8.955  12.188  0.00  0.00    +0.000 A 
ATOM      6  C   UNL     1      46.433  10.346  12.164  0.00  0.00    +0.000 A 
ATOM      7  S   UNL     1      47.961  11.010  12.538  0.00  0.00    +0.000 S 
ATOM      8  C   UNL     1      48.644   9.471  12.763  0.00  0.00    +0.000 A 
ATOM      9  N   UNL     1      49.946   9.315  13.136  0.00  0.00    +0.000 NA
ATOM     10  C   UNL     1      50.309   8.091  13.297  0.00  0.00    +0.000 A 
ATOM     11  N   UNL     1      49.505   7.000  13.110  0.00  0.00    +0.000 N 
ATOM     12  C   UNL     1      48.215   7.101  12.662  0.00  0.00    +0.000 A 
ATOM     13  O   UNL     1      47.577   6.098  12.361  0.00  0.00    +0.000 OA
ATOM     14  C   UNL     1      47.729   8.456  12.521  0.00  0.00    +0.000 A 
ATOM     15  H   UNL     1      49.860   6.058  13.207  0.00  0.00    +0.000 HD
ENDBRANCH   2   5
BRANCH   3  16
ATOM     16  C   UNL     1      43.832   6.257  12.533  0.00  0.00    +0.000 C 
BRANCH  16  17
ATOM     17  C   UNL     1      44.074   5.098  11.604  0.00  0.00    +0.000 A 
ATOM     18  C   UNL     1      44.869   5.285  10.467  0.00  0.00    +0.000 A 
ATOM     19  C   UNL     1      45.170   4.215   9.619  0.00  0.00    +0.000 A 
ATOM     20  C   UNL     1      44.673   2.934   9.885  0.00  0.00    +0.000 A 
ATOM     21  C   UNL     1      43.851   2.752  11.007  0.00  0.00    +0.000 A 
ATOM     22  C   UNL     1      43.544   3.825  11.853  0.00  0.00    +0.000 A 
BRANCH  20  23
ATOM     23  C   UNL     1      44.997   1.771   8.979  0.00  0.00    +0.000 C 
BRANCH  23  24
ATOM     24  C   UNL     1      46.014   2.043   7.901  0.00  0.00    +0.000 A 
ATOM     25  C   UNL     1      45.967   3.206   7.126  0.00  0.00    +0.000 A 
ATOM     26  C   UNL     1      46.847   3.362   6.056  0.00  0.00    +0.000 A 
ATOM     27  C   UNL     1      47.767   2.357   5.811  0.00  0.00    +0.000 A 
ATOM     28  N   UNL     1      47.873   1.241   6.560  0.00  0.00    +0.000 NA
ATOM     29  C   UNL     1      47.000   1.112   7.586  0.00  0.00    +0.000 A 
ENDBRANCH  23  24
ENDBRANCH  20  23
ENDBRANCH  16  17
ENDBRANCH   3  16
TORSDOF 5
ENDMDL
MODEL 7
REMARK VINA RESULT:    -7.030      3.750      7.960
REMARK INTER + INTRA:          -9.774
REMARK INTER:                  -8.893
REMARK INTRA:                  -0.880
REMARK UNBOUND:                -0.689
REMARK  Name = 
REMARK  5 active torsions:
REMARK  status: ('A' for Active; 'I' for Inactive)
REMARK    1  A    between atoms: C_2  and  C_18
REMARK    2  A    between atoms: N_3  and  C_4
REMARK    3  A    between atoms: C_4  and  C_5
REMARK    4  A    between atoms: C_8  and  C_9
REMARK    5  A    between atoms: C_9  and  C_10
REMARK                            x       y       z     vdW  Elec       q    Type
REMARK                         _______ _______ _______ _____ _____    ______ ____
ROOT
ATOM      1  O   UNL     1      48.059   6.775  11.669  0.00  0.00    +0.000 OA
ATOM      2  C   UNL     1      47.152   6.833  12.491  0.00  0.00    +0.000 C 
ATOM      3  N   UNL     1      47.313   7.365  13.745  0.00  0.00    +0.000 N 
ATOM      4  H   UNL     1      46.608   7.197  14.455  0.00  0.00    +0.000 HD
ENDROOT
BRANCH   2   5
ATOM      5  C   UNL     1      45.799   6.378  12.168  0.00  0.00    +0.000 A 
ATOM      6  C   UNL     1      44.857   7.265  11.659  0.00  0.00    +0.000 A 
ATOM      7  S   UNL     1      43.354   6.526  11.329  0.00  0.00    +0.000 S 
ATOM      8  C   UNL     1      43.920   5.006  11.831  0.00  0.00    +0.000 A 
ATOM      9  N   UNL     1      43.131   3.896  11.777  0.00  0.00    +0.000 NA
ATOM     10  C   UNL     1      43.710   2.813  12.163  0.00  0.00    +0.000 A 
ATOM     11  N   UNL     1      45.001   2.727  12.611  0.00  0.00    +0.000 N 
ATOM     12  C   UNL     1      45.807   3.823  12.756  0.00  0.00    +0.000 A 
ATOM     13  O   UNL     1      46.901   3.728  13.304  0.00  0.00    +0.000 OA
ATOM     14  C   UNL     1      45.231   5.063  12.282  0.00  0.00    +0.000 A 
ATOM     15  H   UNL     1      45.387   1.854  12.945  0.00  0.00    +0.000 HD
ENDBRANCH   2   5
BRANCH   3  16
ATOM     16  C   UNL     1      48.577   7.862  14.218  0.00  0.00    +0.000 C 
BRANCH  16  17
ATOM     17  C   UNL     1      49.166   7.000  15.303  0.00  0.00    +0.000 A 
ATOM     18  C   UNL     1      50.525   7.123  15.614  0.00  0.00    +0.000 A 
ATOM     19  C   UNL     1      51.091   6.388  16.660  0.00  0.00    +0.000 A 
ATOM     20  C   UNL     1      50.308   5.505  17.414  0.00  0.00    +0.000 A 
ATOM     21  C   UNL     1      48.953   5.360  17.083  0.00  0.00    +0.000 A 
ATOM     22  C   UNL     1      48.388   6.091  16.031  0.00  0.00    +0.000 A 
BRANCH  20  23
ATOM     23  C   UNL     1      50.907   4.711  18.549  0.00  0.00    +0.000 C 
BRANCH  23  24
ATOM     24  C   UNL     1      51.462   3.359  18.183  0.00  0.00    +0.000 A 
ATOM     25  C   UNL     1      52.783   3.006  18.475  0.00  0.00    +0.000 A 
ATOM     26  C   UNL     1      53.297   1.797  18.008  0.00  0.00    +0.000 A 
ATOM     27  C   UNL     1      52.462   0.965  17.282  0.00  0.00    +0.000 A 
ATOM     28  N   UNL     1      51.170   1.250  17.016  0.00  0.00    +0.000 NA
ATOM     29  C   UNL     1      50.702   2.434  17.473  0.00  0.00    +0.000 A 
ENDBRANCH  23  24
ENDBRANCH  20  23
ENDBRANCH  16  17
ENDBRANCH   3  16
TORSDOF 5
ENDMDL
MODEL 8
REMARK VINA RESULT:    -6.937      4.207      9.793
REMARK INTER + INTRA:          -9.654
REMARK INTER:                  -8.609
REMARK INTRA:                  -1.045
REMARK UNBOUND:                -0.689
REMARK  Name = 
REMARK  5 active torsions:
REMARK  status: ('A' for Active; 'I' for Inactive)
REMARK    1  A    between atoms: C_2  and  C_18
REMARK    2  A    between atoms: N_3  and  C_4
REMARK    3  A    between atoms: C_4  and  C_5
REMARK    4  A    between atoms: C_8  and  C_9
REMARK    5  A    between atoms: C_9  and  C_10
REMARK                            x       y       z     vdW  Elec       q    Type
REMARK                         _______ _______ _______ _____ _____    ______ ____
ROOT
ATOM      1  O   UNL     1      48.547   6.012  13.754  0.00  0.00    +0.000 OA
ATOM      2  C   UNL     1      47.406   5.653  14.022  0.00  0.00    +0.000 C 
ATOM      3  N   UNL     1      47.068   5.070  15.217  0.00  0.00    +0.000 N 
ATOM      4  H   UNL     1      46.174   4.598  15.309  0.00  0.00    +0.000 HD
ENDROOT
BRANCH   2   5
ATOM      5  C   UNL     1      46.298   5.873  13.092  0.00  0.00    +0.000 A 
ATOM      6  C   UNL     1      45.916   7.163  12.740  0.00  0.00    +0.000 A 
ATOM      7  S   UNL     1      44.621   7.195  11.627  0.00  0.00    +0.000 S 
ATOM      8  C   UNL     1      44.550   5.499  11.565  0.00  0.00    +0.000 A 
ATOM      9  N   UNL     1      43.662   4.850  10.761  0.00  0.00    +0.000 NA
ATOM     10  C   UNL     1      43.749   3.566  10.799  0.00  0.00    +0.000 A 
ATOM     11  N   UNL     1      44.630   2.860  11.574  0.00  0.00    +0.000 N 
ATOM     12  C   UNL     1      45.488   3.463  12.454  0.00  0.00    +0.000 A 
ATOM     13  O   UNL     1      46.152   2.794  13.239  0.00  0.00    +0.000 OA
ATOM     14  C   UNL     1      45.478   4.909  12.411  0.00  0.00    +0.000 A 
ATOM     15  H   UNL     1      44.621   1.849  11.596  0.00  0.00    +0.000 HD
ENDBRANCH   2   5
BRANCH   3  16
ATOM     16  C   UNL     1      48.036   4.788  16.242  0.00  0.00    +0.000 C 
BRANCH  16  17
ATOM     17  C   UNL     1      47.933   5.733  17.410  0.00  0.00    +0.000 A 
ATOM     18  C   UNL     1      47.302   5.307  18.584  0.00  0.00    +0.000 A 
ATOM     19  C   UNL     1      47.247   6.134  19.709  0.00  0.00    +0.000 A 
ATOM     20  C   UNL     1      47.816   7.413  19.682  0.00  0.00    +0.000 A 
ATOM     21  C   UNL     1      48.422   7.852  18.495  0.00  0.00    +0.000 A 
ATOM     22  C   UNL     1      48.471   7.026  17.366  0.00  0.00    +0.000 A 
BRANCH  20  23
ATOM     23  C   UNL     1      47.767   8.311  20.893  0.00  0.00    +0.000 C 
BRANCH  23  24
ATOM     24  C   UNL     1      47.494   9.767  20.620  0.00  0.00    +0.000 A 
ATOM     25  C   UNL     1      46.208  10.228  20.320  0.00  0.00    +0.000 A 
ATOM     26  C   UNL     1      46.017  11.557  19.948  0.00  0.00    +0.000 A 
ATOM     27  C   UNL     1      47.120  12.394  19.913  0.00  0.00    +0.000 A 
ATOM     28  N   UNL     1      48.369  12.000  20.236  0.00  0.00    +0.000 NA
ATOM     29  C   UNL     1      48.525  10.702  20.583  0.00  0.00    +0.000 A 
ENDBRANCH  23  24
ENDBRANCH  20  23
ENDBRANCH  16  17
ENDBRANCH   3  16
TORSDOF 5
ENDMDL
MODEL 9
REMARK VINA RESULT:    -6.933      2.258      3.028
REMARK INTER + INTRA:          -9.648
REMARK INTER:                  -8.865
REMARK INTRA:                  -0.783
REMARK UNBOUND:                -0.689
REMARK  Name = 
REMARK  5 active torsions:
REMARK  status: ('A' for Active; 'I' for Inactive)
REMARK    1  A    between atoms: C_2  and  C_18
REMARK    2  A    between atoms: N_3  and  C_4
REMARK    3  A    between atoms: C_4  and  C_5
REMARK    4  A    between atoms: C_8  and  C_9
REMARK    5  A    between atoms: C_9  and  C_10
REMARK                            x       y       z     vdW  Elec       q    Type
REMARK                         _______ _______ _______ _____ _____    ______ ____
ROOT
ATOM      1  O   UNL     1      49.953   6.698  14.945  0.00  0.00    +0.000 OA
ATOM      2  C   UNL     1      48.902   6.500  15.543  0.00  0.00    +0.000 C 
ATOM      3  N   UNL     1      47.670   6.732  14.985  0.00  0.00    +0.000 N 
ATOM      4  H   UNL     1      46.849   6.762  15.579  0.00  0.00    +0.000 HD
ENDROOT
BRANCH   2   5
ATOM      5  C   UNL     1      48.887   5.945  16.897  0.00  0.00    +0.000 A 
ATOM      6  C   UNL     1      48.739   4.577  17.098  0.00  0.00    +0.000 A 
ATOM      7  S   UNL     1      48.771   4.138  18.749  0.00  0.00    +0.000 S 
ATOM      8  C   UNL     1      49.005   5.748  19.236  0.00  0.00    +0.000 A 
ATOM      9  N   UNL     1      49.150   6.083  20.550  0.00  0.00    +0.000 NA
ATOM     10  C   UNL     1      49.350   7.337  20.760  0.00  0.00    +0.000 A 
ATOM     11  N   UNL     1      49.408   8.298  19.787  0.00  0.00    +0.000 N 
ATOM     12  C   UNL     1      49.193   8.024  18.463  0.00  0.00    +0.000 A 
ATOM     13  O   UNL     1      49.101   8.932  17.643  0.00  0.00    +0.000 OA
ATOM     14  C   UNL     1      49.022   6.620  18.158  0.00  0.00    +0.000 A 
ATOM     15  H   UNL     1      49.522   9.276  20.017  0.00  0.00    +0.000 HD
ENDBRANCH   2   5
BRANCH   3  16
ATOM     16  C   UNL     1      47.510   7.271  13.662  0.00  0.00    +0.000 C 
BRANCH  16  17
ATOM     17  C   UNL     1      46.652   6.400  12.783  0.00  0.00    +0.000 A 
ATOM     18  C   UNL     1      46.120   6.929  11.602  0.00  0.00    +0.000 A 
ATOM     19  C   UNL     1      45.375   6.131  10.729  0.00  0.00    +0.000 A 
ATOM     20  C   UNL     1      45.138   4.783  11.025  0.00  0.00    +0.000 A 
ATOM     21  C   UNL     1      45.645   4.260  12.224  0.00  0.00    +0.000 A 
ATOM     22  C   UNL     1      46.385   5.062  13.101  0.00  0.00    +0.000 A 
BRANCH  20  23
ATOM     23  C   UNL     1      44.340   3.910  10.087  0.00  0.00    +0.000 C 
BRANCH  23  24
ATOM     24  C   UNL     1      45.110   3.300   8.945  0.00  0.00    +0.000 A 
ATOM     25  C   UNL     1      45.494   1.955   8.956  0.00  0.00    +0.000 A 
ATOM     26  C   UNL     1      46.313   1.460   7.942  0.00  0.00    +0.000 A 
ATOM     27  C   UNL     1      46.702   2.323   6.932  0.00  0.00    +0.000 A 
ATOM     28  N   UNL     1      46.319   3.614   6.862  0.00  0.00    +0.000 NA
ATOM     29  C   UNL     1      45.532   4.070   7.865  0.00  0.00    +0.000 A 
ENDBRANCH  23  24
ENDBRANCH  20  23
ENDBRANCH  16  17
ENDBRANCH   3  16
TORSDOF 5
ENDMDL
