MODEL 1
REMARK VINA RESULT:    -8.374      0.000      0.000
REMARK INTER + INTRA:         -13.135
REMARK INTER:                 -11.800
REMARK INTRA:                  -1.334
REMARK UNBOUND:                -1.334
REMARK  Name = 
REMARK  7 active torsions:
REMARK  status: ('A' for Active; 'I' for Inactive)
REMARK    1  A    between atoms: C_2  and  C_3
REMARK    2  A    between atoms: C_3  and  N_4
REMARK    3  A    between atoms: C_3  and  C_17
REMARK    4  A    between atoms: C_5  and  C_7
REMARK    5  A    between atoms: C_20  and  C_21
REMARK    6  A    between atoms: C_21  and  N_22
REMARK    7  A    between atoms: C_23  and  C_25
REMARK                            x       y       z     vdW  Elec       q    Type
REMARK                         _______ _______ _______ _____ _____    ______ ____
ROOT
ATOM      1  C   UNL     1      47.682   4.795  15.167  0.00  0.00    +0.000 C 
ENDROOT
BRANCH   1   2
ATOM      2  C   UNL     1      46.794   4.698  13.926  0.00  0.00    +0.000 A 
ATOM      3  C   UNL     1      46.489   5.855  13.186  0.00  0.00    +0.000 A 
ATOM      4  C   UNL     1      45.695   5.785  12.032  0.00  0.00    +0.000 A 
ATOM      5  C   UNL     1      45.167   4.561  11.601  0.00  0.00    +0.000 A 
ATOM      6  C   UNL     1      45.442   3.413  12.353  0.00  0.00    +0.000 A 
ATOM      7  C   UNL     1      46.224   3.483  13.511  0.00  0.00    +0.000 A 
BRANCH   5   8
ATOM      8  C   UNL     1      44.324   4.464  10.355  0.00  0.00    +0.000 C 
BRANCH   8   9
ATOM      9  N   UNL     1      44.882   3.544   9.392  0.00  0.00    +0.000 N 
ATOM     10  C   UNL     1      45.756   3.995   8.424  0.00  0.00    +0.000 C 
ATOM     11  O   UNL     1      46.117   5.165   8.341  0.00  0.00    +0.000 OA
ATOM     12  H   UNL     1      44.774   2.552   9.552  0.00  0.00    +0.000 HD
BRANCH  10  13
ATOM     13  C   UNL     1      46.272   2.983   7.458  0.00  0.00    +0.000 A 
ATOM     14  C   UNL     1      46.538   3.311   6.123  0.00  0.00    +0.000 A 
ATOM     15  C   UNL     1      47.087   2.356   5.264  0.00  0.00    +0.000 A 
ATOM     16  C   UNL     1      47.376   1.074   5.733  0.00  0.00    +0.000 A 
ATOM     17  C   UNL     1      47.109   0.740   7.060  0.00  0.00    +0.000 A 
ATOM     18  C   UNL     1      46.561   1.692   7.923  0.00  0.00    +0.000 A 
ENDBRANCH  10  13
ENDBRANCH   8   9
ENDBRANCH   5   8
ENDBRANCH   1   2
BRANCH   1  19
ATOM     19  N   UNL     1      47.749   6.183  15.587  0.00  0.00    +0.000 N 
ATOM     20  C   UNL     1      48.931   6.762  15.966  0.00  0.00    +0.000 C 
ATOM     21  O   UNL     1      50.007   6.185  15.840  0.00  0.00    +0.000 OA
ATOM     22  H   UNL     1      46.874   6.610  15.874  0.00  0.00    +0.000 HD
BRANCH  20  23
ATOM     23  C   UNL     1      48.844   8.134  16.472  0.00  0.00    +0.000 A 
ATOM     24  C   UNL     1      49.356   9.189  15.732  0.00  0.00    +0.000 A 
ATOM     25  S   UNL     1      49.175  10.705  16.495  0.00  0.00    +0.000 S 
ATOM     26  C   UNL     1      48.448   9.995  17.859  0.00  0.00    +0.000 A 
ATOM     27  N   UNL     1      48.082  10.745  18.933  0.00  0.00    +0.000 NA
ATOM     28  C   UNL     1      47.578  10.067  19.910  0.00  0.00    +0.000 A 
ATOM     29  N   UNL     1      47.385   8.710  19.905  0.00  0.00    +0.000 N 
ATOM     30  C   UNL     1      47.668   7.923  18.810  0.00  0.00    +0.000 A 
ATOM     31  O   UNL     1      47.358   6.737  18.773  0.00  0.00    +0.000 OA
ATOM     32  C   UNL     1      48.300   8.629  17.713  0.00  0.00    +0.000 A 
ATOM     33  H   UNL     1      46.948   8.245  20.686  0.00  0.00    +0.000 HD
ENDBRANCH  20  23
ENDBRANCH   1  19
BRANCH   1  35
ATOM     34  N   UNL     1      46.913   3.225  17.165  0.00  0.00    +0.000 NA
ATOM     35  C   UNL     1      47.246   3.905  16.280  0.00  0.00    +0.000 C 
ENDBRANCH   1  35
TORSDOF 7
ENDMDL
MODEL 2
REMARK VINA RESULT:    -8.284      1.513      2.346
REMARK INTER + INTRA:         -13.008
REMARK INTER:                 -11.729
REMARK INTRA:                  -1.279
REMARK UNBOUND:                -1.334
REMARK  Name = 
REMARK  7 active torsions:
REMARK  status: ('A' for Active; 'I' for Inactive)
REMARK    1  A    between atoms: C_2  and  C_3
REMARK    2  A    between atoms: C_3  and  N_4
REMARK    3  A    between atoms: C_3  and  C_17
REMARK    4  A    between atoms: C_5  and  C_7
REMARK    5  A    between atoms: C_20  and  C_21
REMARK    6  A    between atoms: C_21  and  N_22
REMARK    7  A    between atoms: C_23  and  C_25
REMARK                            x       y       z     vdW  Elec       q    Type
REMARK                         _______ _______ _______ _____ _____    ______ ____
ROOT
ATOM      1  C   UNL     1      47.595   4.746  15.107  0.00  0.00    +0.000 C 
ENDROOT
BRANCH   1   2
ATOM      2  C   UNL     1      46.700   4.624  13.874  0.00  0.00    +0.000 A 
ATOM      3  C   UNL     1      46.218   5.780  13.235  0.00  0.00    +0.000 A 
ATOM      4  C   UNL     1      45.415   5.690  12.089  0.00  0.00    +0.000 A 
ATOM      5  C   UNL     1      45.053   4.442  11.566  0.00  0.00    +0.000 A 
ATOM      6  C   UNL     1      45.505   3.288  12.218  0.00  0.00    +0.000 A 
ATOM      7  C   UNL     1      46.297   3.377  13.368  0.00  0.00    +0.000 A 
BRANCH   5   8
ATOM      8  C   UNL     1      44.204   4.325  10.326  0.00  0.00    +0.000 C 
BRANCH   8   9
ATOM      9  N   UNL     1      44.795   3.450   9.342  0.00  0.00    +0.000 N 
ATOM     10  C   UNL     1      45.697   3.947   8.422  0.00  0.00    +0.000 C 
ATOM     11  O   UNL     1      46.054   5.120   8.403  0.00  0.00    +0.000 OA
ATOM     12  H   UNL     1      44.687   2.452   9.454  0.00  0.00    +0.000 HD
BRANCH  10  13
ATOM     13  C   UNL     1      46.247   2.980   7.430  0.00  0.00    +0.000 A 
ATOM     14  C   UNL     1      46.541   3.365   6.116  0.00  0.00    +0.000 A 
ATOM     15  C   UNL     1      47.122   2.451   5.232  0.00  0.00    +0.000 A 
ATOM     16  C   UNL     1      47.414   1.155   5.656  0.00  0.00    +0.000 A 
ATOM     17  C   UNL     1      47.120   0.764   6.962  0.00  0.00    +0.000 A 
ATOM     18  C   UNL     1      46.541   1.675   7.849  0.00  0.00    +0.000 A 
ENDBRANCH  10  13
ENDBRANCH   8   9
ENDBRANCH   5   8
ENDBRANCH   1   2
BRANCH   1  19
ATOM     19  N   UNL     1      47.822   6.154  15.382  0.00  0.00    +0.000 N 
ATOM     20  C   UNL     1      48.955   6.588  16.016  0.00  0.00    +0.000 C 
ATOM     21  O   UNL     1      49.892   5.835  16.260  0.00  0.00    +0.000 OA
ATOM     22  H   UNL     1      47.003   6.754  15.365  0.00  0.00    +0.000 HD
BRANCH  20  23
ATOM     23  C   UNL     1      49.010   8.018  16.332  0.00  0.00    +0.000 A 
ATOM     24  C   UNL     1      48.985   8.448  17.650  0.00  0.00    +0.000 A 
ATOM     25  S   UNL     1      49.041  10.146  17.813  0.00  0.00    +0.000 S 
ATOM     26  C   UNL     1      49.055  10.364  16.125  0.00  0.00    +0.000 A 
ATOM     27  N   UNL     1      49.052  11.607  15.575  0.00  0.00    +0.000 NA
ATOM     28  C   UNL     1      49.024  11.618  14.284  0.00  0.00    +0.000 A 
ATOM     29  N   UNL     1      49.022  10.501  13.490  0.00  0.00    +0.000 N 
ATOM     30  C   UNL     1      49.104   9.225  14.001  0.00  0.00    +0.000 A 
ATOM     31  O   UNL     1      49.243   8.248  13.274  0.00  0.00    +0.000 OA
ATOM     32  C   UNL     1      49.067   9.158  15.449  0.00  0.00    +0.000 A 
ATOM     33  H   UNL     1      49.041  10.580  12.484  0.00  0.00    +0.000 HD
ENDBRANCH  20  23
ENDBRANCH   1  19
BRANCH   1  35
ATOM     34  N   UNL     1      46.644   3.495  17.248  0.00  0.00    +0.000 NA
ATOM     35  C   UNL     1      47.061   4.033  16.302  0.00  0.00    +0.000 C 
ENDBRANCH   1  35
TORSDOF 7
ENDMDL
MODEL 3
REMARK VINA RESULT:    -8.072      2.616      3.844
REMARK INTER + INTRA:         -12.709
REMARK INTER:                 -12.076
REMARK INTRA:                  -0.634
REMARK UNBOUND:                -1.334
REMARK  Name = 
REMARK  7 active torsions:
REMARK  status: ('A' for Active; 'I' for Inactive)
REMARK    1  A    between atoms: C_2  and  C_3
REMARK    2  A    between atoms: C_3  and  N_4
REMARK    3  A    between atoms: C_3  and  C_17
REMARK    4  A    between atoms: C_5  and  C_7
REMARK    5  A    between atoms: C_20  and  C_21
REMARK    6  A    between atoms: C_21  and  N_22
REMARK    7  A    between atoms: C_23  and  C_25
REMARK                            x       y       z     vdW  Elec       q    Type
REMARK                         _______ _______ _______ _____ _____    ______ ____
ROOT
ATOM      1  C   UNL     1      47.148   8.568  13.269  0.00  0.00    +0.000 C 
ENDROOT
BRANCH   1   2
ATOM      2  C   UNL     1      46.359   7.539  12.458  0.00  0.00    +0.000 A 
ATOM      3  C   UNL     1      45.102   7.098  12.910  0.00  0.00    +0.000 A 
ATOM      4  C   UNL     1      44.353   6.173  12.170  0.00  0.00    +0.000 A 
ATOM      5  C   UNL     1      44.850   5.647  10.970  0.00  0.00    +0.000 A 
ATOM      6  C   UNL     1      46.116   6.059  10.534  0.00  0.00    +0.000 A 
ATOM      7  C   UNL     1      46.869   6.973  11.278  0.00  0.00    +0.000 A 
BRANCH   5   8
ATOM      8  C   UNL     1      44.053   4.663  10.152  0.00  0.00    +0.000 C 
BRANCH   8   9
ATOM      9  N   UNL     1      44.790   4.183   9.008  0.00  0.00    +0.000 N 
ATOM     10  C   UNL     1      45.235   2.877   8.965  0.00  0.00    +0.000 C 
ATOM     11  O   UNL     1      45.017   2.067   9.860  0.00  0.00    +0.000 OA
ATOM     12  H   UNL     1      44.810   4.751   8.172  0.00  0.00    +0.000 HD
BRANCH  10  13
ATOM     13  C   UNL     1      46.004   2.468   7.755  0.00  0.00    +0.000 A 
ATOM     14  C   UNL     1      46.179   3.335   6.669  0.00  0.00    +0.000 A 
ATOM     15  C   UNL     1      46.965   2.944   5.581  0.00  0.00    +0.000 A 
ATOM     16  C   UNL     1      47.580   1.692   5.574  0.00  0.00    +0.000 A 
ATOM     17  C   UNL     1      47.405   0.823   6.651  0.00  0.00    +0.000 A 
ATOM     18  C   UNL     1      46.622   1.210   7.740  0.00  0.00    +0.000 A 
ENDBRANCH  10  13
ENDBRANCH   8   9
ENDBRANCH   5   8
ENDBRANCH   1   2
BRANCH   1  19
ATOM     19  N   UNL     1      47.581   7.952  14.510  0.00  0.00    +0.000 N 
ATOM     20  C   UNL     1      48.553   6.988  14.532  0.00  0.00    +0.000 C 
ATOM     21  O   UNL     1      49.201   6.695  13.531  0.00  0.00    +0.000 OA
ATOM     22  H   UNL     1      46.948   8.034  15.300  0.00  0.00    +0.000 HD
BRANCH  20  23
ATOM     23  C   UNL     1      48.820   6.369  15.833  0.00  0.00    +0.000 A 
ATOM     24  C   UNL     1      49.756   6.922  16.695  0.00  0.00    +0.000 A 
ATOM     25  S   UNL     1      49.937   6.051  18.151  0.00  0.00    +0.000 S 
ATOM     26  C   UNL     1      48.804   4.880  17.658  0.00  0.00    +0.000 A 
ATOM     27  N   UNL     1      48.519   3.804  18.437  0.00  0.00    +0.000 NA
ATOM     28  C   UNL     1      47.669   2.980  17.918  0.00  0.00    +0.000 A 
ATOM     29  N   UNL     1      47.062   3.144  16.700  0.00  0.00    +0.000 N 
ATOM     30  C   UNL     1      47.262   4.257  15.914  0.00  0.00    +0.000 A 
ATOM     31  O   UNL     1      46.605   4.453  14.898  0.00  0.00    +0.000 OA
ATOM     32  C   UNL     1      48.259   5.178  16.422  0.00  0.00    +0.000 A 
ATOM     33  H   UNL     1      46.376   2.483  16.370  0.00  0.00    +0.000 HD
ENDBRANCH  20  23
ENDBRANCH   1  19
BRANCH   1  35
ATOM     34  N   UNL     1      49.177   9.648  11.941  0.00  0.00    +0.000 NA
ATOM     35  C   UNL     1      48.292   9.162  12.522  0.00  0.00    +0.000 C 
ENDBRANCH   1  35
TORSDOF 7
ENDMDL
MODEL 4
REMARK VINA RESULT:    -7.349      5.078      7.534
REMARK INTER + INTRA:         -11.691
REMARK INTER:                 -10.574
REMARK INTRA:                  -1.117
REMARK UNBOUND:                -1.334
REMARK  Name = 
REMARK  7 active torsions:
REMARK  status: ('A' for Active; 'I' for Inactive)
REMARK    1  A    between atoms: C_2  and  C_3
REMARK    2  A    between atoms: C_3  and  N_4
REMARK    3  A    between atoms: C_3  and  C_17
REMARK    4  A    between atoms: C_5  and  C_7
REMARK    5  A    between atoms: C_20  and  C_21
REMARK    6  A    between atoms: C_21  and  N_22
REMARK    7  A    between atoms: C_23  and  C_25
REMARK                            x       y       z     vdW  Elec       q    Type
REMARK                         _______ _______ _______ _____ _____    ______ ____
ROOT
ATOM      1  C   UNL     1      45.725   5.130  12.909  0.00  0.00    +0.000 C 
ENDROOT
BRANCH   1   2
ATOM      2  C   UNL     1      45.297   6.532  12.476  0.00  0.00    +0.000 A 
ATOM      3  C   UNL     1      44.294   6.694  11.504  0.00  0.00    +0.000 A 
ATOM      4  C   UNL     1      43.871   7.972  11.109  0.00  0.00    +0.000 A 
ATOM      5  C   UNL     1      44.456   9.120  11.659  0.00  0.00    +0.000 A 
ATOM      6  C   UNL     1      45.478   8.962  12.604  0.00  0.00    +0.000 A 
ATOM      7  C   UNL     1      45.909   7.688  12.989  0.00  0.00    +0.000 A 
BRANCH   5   8
ATOM      8  C   UNL     1      44.004  10.501  11.259  0.00  0.00    +0.000 C 
BRANCH   8   9
ATOM      9  N   UNL     1      42.800  10.900  11.949  0.00  0.00    +0.000 N 
ATOM     10  C   UNL     1      41.584  10.877  11.296  0.00  0.00    +0.000 C 
ATOM     11  O   UNL     1      41.456  10.505  10.134  0.00  0.00    +0.000 OA
ATOM     12  H   UNL     1      42.832  11.013  12.953  0.00  0.00    +0.000 HD
BRANCH  10  13
ATOM     13  C   UNL     1      40.393  11.321  12.076  0.00  0.00    +0.000 A 
ATOM     14  C   UNL     1      39.100  10.895  11.747  0.00  0.00    +0.000 A 
ATOM     15  C   UNL     1      38.016  11.275  12.542  0.00  0.00    +0.000 A 
ATOM     16  C   UNL     1      38.216  12.075  13.667  0.00  0.00    +0.000 A 
ATOM     17  C   UNL     1      39.501  12.506  13.997  0.00  0.00    +0.000 A 
ATOM     18  C   UNL     1      40.588  12.128  13.206  0.00  0.00    +0.000 A 
ENDBRANCH  10  13
ENDBRANCH   8   9
ENDBRANCH   5   8
ENDBRANCH   1   2
BRANCH   1  19
ATOM     19  N   UNL     1      46.404   5.222  14.189  0.00  0.00    +0.000 N 
ATOM     20  C   UNL     1      47.109   4.169  14.706  0.00  0.00    +0.000 C 
ATOM     21  O   UNL     1      47.318   3.147  14.059  0.00  0.00    +0.000 OA
ATOM     22  H   UNL     1      46.096   5.964  14.810  0.00  0.00    +0.000 HD
BRANCH  20  23
ATOM     23  C   UNL     1      47.654   4.355  16.053  0.00  0.00    +0.000 A 
ATOM     24  C   UNL     1      47.334   3.466  17.069  0.00  0.00    +0.000 A 
ATOM     25  S   UNL     1      48.050   3.860  18.567  0.00  0.00    +0.000 S 
ATOM     26  C   UNL     1      48.774   5.257  17.918  0.00  0.00    +0.000 A 
ATOM     27  N   UNL     1      49.507   6.097  18.697  0.00  0.00    +0.000 NA
ATOM     28  C   UNL     1      49.962   7.135  18.078  0.00  0.00    +0.000 A 
ATOM     29  N   UNL     1      49.771   7.401  16.747  0.00  0.00    +0.000 N 
ATOM     30  C   UNL     1      49.103   6.540  15.905  0.00  0.00    +0.000 A 
ATOM     31  O   UNL     1      49.064   6.725  14.694  0.00  0.00    +0.000 OA
ATOM     32  C   UNL     1      48.514   5.393  16.567  0.00  0.00    +0.000 A 
ATOM     33  H   UNL     1      50.188   8.211  16.315  0.00  0.00    +0.000 HD
ENDBRANCH  20  23
ENDBRANCH   1  19
BRANCH   1  35
ATOM     34  N   UNL     1      43.732   3.376  12.974  0.00  0.00    +0.000 NA
ATOM     35  C   UNL     1      44.600   4.153  12.954  0.00  0.00    +0.000 C 
ENDBRANCH   1  35
TORSDOF 7
ENDMDL
MODEL 5
REMARK VINA RESULT:    -7.260      1.639      2.277
REMARK INTER + INTRA:         -11.565
REMARK INTER:                 -10.504
REMARK INTRA:                  -1.062
REMARK UNBOUND:                -1.334
REMARK  Name = 
REMARK  7 active torsions:
REMARK  status: ('A' for Active; 'I' for Inactive)
REMARK    1  A    between atoms: C_2  and  C_3
REMARK    2  A    between atoms: C_3  and  N_4
REMARK    3  A    between atoms: C_3  and  C_17
REMARK    4  A    between atoms: C_5  and  C_7
REMARK    5  A    between atoms: C_20  and  C_21
REMARK    6  A    between atoms: C_21  and  N_22
REMARK    7  A    between atoms: C_23  and  C_25
REMARK                            x       y       z     vdW  Elec       q    Type
REMARK                         _______ _______ _______ _____ _____    ______ ____
ROOT
ATOM      1  C   UNL     1      48.202   5.228  15.819  0.00  0.00    +0.000 C 
ENDROOT
BRANCH   1   2
ATOM      2  C   UNL     1      47.408   5.384  14.521  0.00  0.00    +0.000 A 
ATOM      3  C   UNL     1      46.374   4.481  14.215  0.00  0.00    +0.000 A 
ATOM      4  C   UNL     1      45.618   4.621  13.042  0.00  0.00    +0.000 A 
ATOM      5  C   UNL     1      45.892   5.652  12.133  0.00  0.00    +0.000 A 
ATOM      6  C   UNL     1      46.942   6.533  12.420  0.00  0.00    +0.000 A 
ATOM      7  C   UNL     1      47.704   6.388  13.585  0.00  0.00    +0.000 A 
BRANCH   5   8
ATOM      8  C   UNL     1      45.081   5.828  10.875  0.00  0.00    +0.000 C 
BRANCH   8   9
ATOM      9  N   UNL     1      45.630   5.084   9.766  0.00  0.00    +0.000 N 
ATOM     10  C   UNL     1      45.140   3.831   9.459  0.00  0.00    +0.000 C 
ATOM     11  O   UNL     1      44.222   3.301  10.077  0.00  0.00    +0.000 OA
ATOM     12  H   UNL     1      46.235   5.564   9.114  0.00  0.00    +0.000 HD
BRANCH  10  13
ATOM     13  C   UNL     1      45.774   3.124   8.309  0.00  0.00    +0.000 A 
ATOM     14  C   UNL     1      46.133   3.803   7.138  0.00  0.00    +0.000 A 
ATOM     15  C   UNL     1      46.790   3.123   6.109  0.00  0.00    +0.000 A 
ATOM     16  C   UNL     1      47.095   1.769   6.245  0.00  0.00    +0.000 A 
ATOM     17  C   UNL     1      46.736   1.086   7.408  0.00  0.00    +0.000 A 
ATOM     18  C   UNL     1      46.081   1.762   8.439  0.00  0.00    +0.000 A 
ENDBRANCH  10  13
ENDBRANCH   8   9
ENDBRANCH   5   8
ENDBRANCH   1   2
BRANCH   1  19
ATOM     19  N   UNL     1      47.926   6.366  16.675  0.00  0.00    +0.000 N 
ATOM     20  C   UNL     1      48.730   6.675  17.741  0.00  0.00    +0.000 C 
ATOM     21  O   UNL     1      49.792   6.094  17.943  0.00  0.00    +0.000 OA
ATOM     22  H   UNL     1      46.980   6.735  16.646  0.00  0.00    +0.000 HD
BRANCH  20  23
ATOM     23  C   UNL     1      48.280   7.781  18.589  0.00  0.00    +0.000 A 
ATOM     24  C   UNL     1      47.943   7.556  19.915  0.00  0.00    +0.000 A 
ATOM     25  S   UNL     1      47.428   8.963  20.734  0.00  0.00    +0.000 S 
ATOM     26  C   UNL     1      47.596   9.910  19.330  0.00  0.00    +0.000 A 
ATOM     27  N   UNL     1      47.266  11.229  19.326  0.00  0.00    +0.000 NA
ATOM     28  C   UNL     1      47.409  11.810  18.182  0.00  0.00    +0.000 A 
ATOM     29  N   UNL     1      47.871  11.200  17.044  0.00  0.00    +0.000 N 
ATOM     30  C   UNL     1      48.290   9.888  17.022  0.00  0.00    +0.000 A 
ATOM     31  O   UNL     1      48.831   9.403  16.035  0.00  0.00    +0.000 OA
ATOM     32  C   UNL     1      48.085   9.174  18.267  0.00  0.00    +0.000 A 
ATOM     33  H   UNL     1      47.998  11.722  16.191  0.00  0.00    +0.000 HD
ENDBRANCH  20  23
ENDBRANCH   1  19
BRANCH   1  35
ATOM     34  N   UNL     1      47.766   2.923  17.064  0.00  0.00    +0.000 NA
ATOM     35  C   UNL     1      47.945   3.938  16.520  0.00  0.00    +0.000 C 
ENDBRANCH   1  35
TORSDOF 7
ENDMDL
MODEL 6
REMARK VINA RESULT:    -6.957      4.758      6.983
REMARK INTER + INTRA:         -11.138
REMARK INTER:                 -10.043
REMARK INTRA:                  -1.095
REMARK UNBOUND:                -1.334
REMARK  Name = 
REMARK  7 active torsions:
REMARK  status: ('A' for Active; 'I' for Inactive)
REMARK    1  A    between atoms: C_2  and  C_3
REMARK    2  A    between atoms: C_3  and  N_4
REMARK    3  A    between atoms: C_3  and  C_17
REMARK    4  A    between atoms: C_5  and  C_7
REMARK    5  A    between atoms: C_20  and  C_21
REMARK    6  A    between atoms: C_21  and  N_22
REMARK    7  A    between atoms: C_23  and  C_25
REMARK                            x       y       z     vdW  Elec       q    Type
REMARK                         _______ _______ _______ _____ _____    ______ ____
ROOT
ATOM      1  C   UNL     1      47.276   5.727  13.572  0.00  0.00    +0.000 C 
ENDROOT
BRANCH   1   2
ATOM      2  C   UNL     1      46.485   6.876  12.945  0.00  0.00    +0.000 A 
ATOM      3  C   UNL     1      46.773   8.206  13.300  0.00  0.00    +0.000 A 
ATOM      4  C   UNL     1      46.075   9.275  12.719  0.00  0.00    +0.000 A 
ATOM      5  C   UNL     1      45.056   9.041  11.787  0.00  0.00    +0.000 A 
ATOM      6  C   UNL     1      44.745   7.716  11.455  0.00  0.00    +0.000 A 
ATOM      7  C   UNL     1      45.433   6.649  12.043  0.00  0.00    +0.000 A 
BRANCH   5   8
ATOM      8  C   UNL     1      44.305  10.177  11.141  0.00  0.00    +0.000 C 
BRANCH   8   9
ATOM      9  N   UNL     1      43.042  10.435  11.792  0.00  0.00    +0.000 N 
ATOM     10  C   UNL     1      41.907  10.665  11.041  0.00  0.00    +0.000 C 
ATOM     11  O   UNL     1      41.901  10.643   9.814  0.00  0.00    +0.000 OA
ATOM     12  H   UNL     1      42.965  10.259  12.784  0.00  0.00    +0.000 HD
BRANCH  10  13
ATOM     13  C   UNL     1      40.649  10.940  11.792  0.00  0.00    +0.000 A 
ATOM     14  C   UNL     1      40.609  11.864  12.844  0.00  0.00    +0.000 A 
ATOM     15  C   UNL     1      39.397  12.149  13.478  0.00  0.00    +0.000 A 
ATOM     16  C   UNL     1      38.223  11.519  13.066  0.00  0.00    +0.000 A 
ATOM     17  C   UNL     1      38.258  10.595  12.021  0.00  0.00    +0.000 A 
ATOM     18  C   UNL     1      39.466  10.308  11.383  0.00  0.00    +0.000 A 
ENDBRANCH  10  13
ENDBRANCH   8   9
ENDBRANCH   5   8
ENDBRANCH   1   2
BRANCH   1  19
ATOM     19  N   UNL     1      47.501   6.026  14.974  0.00  0.00    +0.000 N 
ATOM     20  C   UNL     1      48.731   6.411  15.438  0.00  0.00    +0.000 C 
ATOM     21  O   UNL     1      49.664   6.655  14.679  0.00  0.00    +0.000 OA
ATOM     22  H   UNL     1      46.819   5.658  15.630  0.00  0.00    +0.000 HD
BRANCH  20  23
ATOM     23  C   UNL     1      48.852   6.576  16.889  0.00  0.00    +0.000 A 
ATOM     24  C   UNL     1      49.179   7.809  17.431  0.00  0.00    +0.000 A 
ATOM     25  S   UNL     1      49.289   7.796  19.134  0.00  0.00    +0.000 S 
ATOM     26  C   UNL     1      48.947   6.130  19.200  0.00  0.00    +0.000 A 
ATOM     27  N   UNL     1      48.933   5.460  20.382  0.00  0.00    +0.000 NA
ATOM     28  C   UNL     1      48.696   4.195  20.275  0.00  0.00    +0.000 A 
ATOM     29  N   UNL     1      48.451   3.541  19.096  0.00  0.00    +0.000 N 
ATOM     30  C   UNL     1      48.377   4.193  17.885  0.00  0.00    +0.000 A 
ATOM     31  O   UNL     1      48.018   3.616  16.865  0.00  0.00    +0.000 OA
ATOM     32  C   UNL     1      48.703   5.604  17.945  0.00  0.00    +0.000 A 
ATOM     33  H   UNL     1      48.233   2.556  19.085  0.00  0.00    +0.000 HD
ENDBRANCH  20  23
ENDBRANCH   1  19
BRANCH   1  35
ATOM     34  N   UNL     1      46.122   3.355  13.272  0.00  0.00    +0.000 NA
ATOM     35  C   UNL     1      46.632   4.395  13.391  0.00  0.00    +0.000 C 
ENDBRANCH   1  35
TORSDOF 7
ENDMDL
MODEL 7
REMARK VINA RESULT:    -6.395      3.809      5.168
REMARK INTER + INTRA:         -10.346
REMARK INTER:                  -9.435
REMARK INTRA:                  -0.911
REMARK UNBOUND:                -1.334
REMARK  Name = 
REMARK  7 active torsions:
REMARK  status: ('A' for Active; 'I' for Inactive)
REMARK    1  A    between atoms: C_2  and  C_3
REMARK    2  A    between atoms: C_3  and  N_4
REMARK    3  A    between atoms: C_3  and  C_17
REMARK    4  A    between atoms: C_5  and  C_7
REMARK    5  A    between atoms: C_20  and  C_21
REMARK    6  A    between atoms: C_21  and  N_22
REMARK    7  A    between atoms: C_23  and  C_25
REMARK                            x       y       z     vdW  Elec       q    Type
REMARK                         _______ _______ _______ _____ _____    ______ ____
ROOT
ATOM      1  C   UNL     1      48.836   7.233  14.080  0.00  0.00    +0.000 C 
ENDROOT
BRANCH   1   2
ATOM      2  C   UNL     1      47.768   6.529  13.244  0.00  0.00    +0.000 A 
ATOM      3  C   UNL     1      47.247   5.291  13.662  0.00  0.00    +0.000 A 
ATOM      4  C   UNL     1      46.250   4.640  12.921  0.00  0.00    +0.000 A 
ATOM      5  C   UNL     1      45.763   5.199  11.731  0.00  0.00    +0.000 A 
ATOM      6  C   UNL     1      46.303   6.415  11.295  0.00  0.00    +0.000 A 
ATOM      7  C   UNL     1      47.306   7.059  12.027  0.00  0.00    +0.000 A 
BRANCH   5   8
ATOM      8  C   UNL     1      44.681   4.522  10.930  0.00  0.00    +0.000 C 
BRANCH   8   9
ATOM      9  N   UNL     1      45.217   3.557   9.999  0.00  0.00    +0.000 N 
ATOM     10  C   UNL     1      45.588   3.949   8.729  0.00  0.00    +0.000 C 
ATOM     11  O   UNL     1      45.509   5.108   8.336  0.00  0.00    +0.000 OA
ATOM     12  H   UNL     1      45.488   2.648  10.347  0.00  0.00    +0.000 HD
BRANCH  10  13
ATOM     13  C   UNL     1      46.115   2.887   7.824  0.00  0.00    +0.000 A 
ATOM     14  C   UNL     1      46.605   3.187   6.547  0.00  0.00    +0.000 A 
ATOM     15  C   UNL     1      47.156   2.177   5.754  0.00  0.00    +0.000 A 
ATOM     16  C   UNL     1      47.225   0.869   6.232  0.00  0.00    +0.000 A 
ATOM     17  C   UNL     1      46.735   0.563   7.502  0.00  0.00    +0.000 A 
ATOM     18  C   UNL     1      46.184   1.569   8.298  0.00  0.00    +0.000 A 
ENDBRANCH  10  13
ENDBRANCH   8   9
ENDBRANCH   5   8
ENDBRANCH   1   2
BRANCH   1  19
ATOM     19  N   UNL     1      49.905   7.671  13.201  0.00  0.00    +0.000 N 
ATOM     20  C   UNL     1      51.101   8.122  13.693  0.00  0.00    +0.000 C 
ATOM     21  O   UNL     1      51.381   8.050  14.886  0.00  0.00    +0.000 OA
ATOM     22  H   UNL     1      49.638   7.913  12.252  0.00  0.00    +0.000 HD
BRANCH  20  23
ATOM     23  C   UNL     1      52.052   8.637  12.706  0.00  0.00    +0.000 A 
ATOM     24  C   UNL     1      53.390   8.278  12.766  0.00  0.00    +0.000 A 
ATOM     25  S   UNL     1      54.342   8.992  11.541  0.00  0.00    +0.000 S 
ATOM     26  C   UNL     1      53.004   9.840  10.919  0.00  0.00    +0.000 A 
ATOM     27  N   UNL     1      53.139  10.695   9.870  0.00  0.00    +0.000 NA
ATOM     28  C   UNL     1      52.047  11.297   9.530  0.00  0.00    +0.000 A 
ATOM     29  N   UNL     1      50.828  11.108  10.128  0.00  0.00    +0.000 N 
ATOM     30  C   UNL     1      50.631  10.195  11.141  0.00  0.00    +0.000 A 
ATOM     31  O   UNL     1      49.510   9.939  11.566  0.00  0.00    +0.000 OA
ATOM     32  C   UNL     1      51.840   9.544  11.604  0.00  0.00    +0.000 A 
ATOM     33  H   UNL     1      50.005  11.580   9.788  0.00  0.00    +0.000 HD
ENDBRANCH  20  23
ENDBRANCH   1  19
BRANCH   1  35
ATOM     34  N   UNL     1      47.900   9.231  15.558  0.00  0.00    +0.000 NA
ATOM     35  C   UNL     1      48.303   8.358  14.899  0.00  0.00    +0.000 C 
ENDBRANCH   1  35
TORSDOF 7
ENDMDL
MODEL 8
REMARK VINA RESULT:    -6.107      2.084      2.815
REMARK INTER + INTRA:          -9.940
REMARK INTER:                  -8.684
REMARK INTRA:                  -1.256
REMARK UNBOUND:                -1.334
REMARK  Name = 
REMARK  7 active torsions:
REMARK  status: ('A' for Active; 'I' for Inactive)
REMARK    1  A    between atoms: C_2  and  C_3
REMARK    2  A    between atoms: C_3  and  N_4
REMARK    3  A    between atoms: C_3  and  C_17
REMARK    4  A    between atoms: C_5  and  C_7
REMARK    5  A    between atoms: C_20  and  C_21
REMARK    6  A    between atoms: C_21  and  N_22
REMARK    7  A    between atoms: C_23  and  C_25
REMARK                            x       y       z     vdW  Elec       q    Type
REMARK                         _______ _______ _______ _____ _____    ______ ____
ROOT
ATOM      1  C   UNL     1      49.220   7.247  15.898  0.00  0.00    +0.000 C 
ENDROOT
BRANCH   1   2
ATOM      2  C   UNL     1      48.201   7.206  14.758  0.00  0.00    +0.000 A 
ATOM      3  C   UNL     1      47.689   8.404  14.227  0.00  0.00    +0.000 A 
ATOM      4  C   UNL     1      46.772   8.389  13.166  0.00  0.00    +0.000 A 
ATOM      5  C   UNL     1      46.326   7.176  12.623  0.00  0.00    +0.000 A 
ATOM      6  C   UNL     1      46.810   5.982  13.171  0.00  0.00    +0.000 A 
ATOM      7  C   UNL     1      47.716   5.995  14.237  0.00  0.00    +0.000 A 
BRANCH   5   8
ATOM      8  C   UNL     1      45.353   7.141  11.473  0.00  0.00    +0.000 C 
BRANCH   8   9
ATOM      9  N   UNL     1      45.675   6.104  10.520  0.00  0.00    +0.000 N 
ATOM     10  C   UNL     1      44.804   5.053  10.316  0.00  0.00    +0.000 C 
ATOM     11  O   UNL     1      43.728   4.953  10.898  0.00  0.00    +0.000 OA
ATOM     12  H   UNL     1      46.442   6.257   9.880  0.00  0.00    +0.000 HD
BRANCH  10  13
ATOM     13  C   UNL     1      45.220   4.017   9.328  0.00  0.00    +0.000 A 
ATOM     14  C   UNL     1      45.864   4.360   8.133  0.00  0.00    +0.000 A 
ATOM     15  C   UNL     1      46.303   3.358   7.263  0.00  0.00    +0.000 A 
ATOM     16  C   UNL     1      46.107   2.015   7.583  0.00  0.00    +0.000 A 
ATOM     17  C   UNL     1      45.462   1.668   8.770  0.00  0.00    +0.000 A 
ATOM     18  C   UNL     1      45.023   2.665   9.643  0.00  0.00    +0.000 A 
ENDBRANCH  10  13
ENDBRANCH   8   9
ENDBRANCH   5   8
ENDBRANCH   1   2
BRANCH   1  19
ATOM     19  N   UNL     1      48.740   8.159  16.920  0.00  0.00    +0.000 N 
ATOM     20  C   UNL     1      49.600   8.925  17.660  0.00  0.00    +0.000 C 
ATOM     21  O   UNL     1      50.800   8.983  17.407  0.00  0.00    +0.000 OA
ATOM     22  H   UNL     1      47.801   7.992  17.269  0.00  0.00    +0.000 HD
BRANCH  20  23
ATOM     23  C   UNL     1      48.998   9.720  18.733  0.00  0.00    +0.000 A 
ATOM     24  C   UNL     1      49.122  11.101  18.738  0.00  0.00    +0.000 A 
ATOM     25  S   UNL     1      48.367  11.847  20.075  0.00  0.00    +0.000 S 
ATOM     26  C   UNL     1      47.890  10.344  20.715  0.00  0.00    +0.000 A 
ATOM     27  N   UNL     1      47.229  10.261  21.901  0.00  0.00    +0.000 NA
ATOM     28  C   UNL     1      46.965   9.055  22.280  0.00  0.00    +0.000 A 
ATOM     29  N   UNL     1      47.280   7.924  21.573  0.00  0.00    +0.000 N 
ATOM     30  C   UNL     1      47.878   7.965  20.333  0.00  0.00    +0.000 A 
ATOM     31  O   UNL     1      48.023   6.953  19.656  0.00  0.00    +0.000 OA
ATOM     32  C   UNL     1      48.257   9.293  19.895  0.00  0.00    +0.000 A 
ATOM     33  H   UNL     1      47.009   7.012  21.907  0.00  0.00    +0.000 HD
ENDBRANCH  20  23
ENDBRANCH   1  19
BRANCH   1  35
ATOM     34  N   UNL     1      49.799   4.859  16.905  0.00  0.00    +0.000 NA
ATOM     35  C   UNL     1      49.532   5.903  16.463  0.00  0.00    +0.000 C 
ENDBRANCH   1  35
TORSDOF 7
ENDMDL
MODEL 9
REMARK VINA RESULT:    -6.089      2.337      3.488
REMARK INTER + INTRA:          -9.916
REMARK INTER:                  -8.860
REMARK INTRA:                  -1.056
REMARK UNBOUND:                -1.334
REMARK  Name = 
REMARK  7 active torsions:
REMARK  status: ('A' for Active; 'I' for Inactive)
REMARK    1  A    between atoms: C_2  and  C_3
REMARK    2  A    between atoms: C_3  and  N_4
REMARK    3  A    between atoms: C_3  and  C_17
REMARK    4  A    between atoms: C_5  and  C_7
REMARK    5  A    between atoms: C_20  and  C_21
REMARK    6  A    between atoms: C_21  and  N_22
REMARK    7  A    between atoms: C_23  and  C_25
REMARK                            x       y       z     vdW  Elec       q    Type
REMARK                         _______ _______ _______ _____ _____    ______ ____
ROOT
ATOM      1  C   UNL     1      48.887   8.436  13.990  0.00  0.00    +0.000 C 
ENDROOT
BRANCH   1   2
ATOM      2  C   UNL     1      47.740   7.632  13.375  0.00  0.00    +0.000 A 
ATOM      3  C   UNL     1      46.530   8.268  13.048  0.00  0.00    +0.000 A 
ATOM      4  C   UNL     1      45.474   7.554  12.463  0.00  0.00    +0.000 A 
ATOM      5  C   UNL     1      45.593   6.181  12.211  0.00  0.00    +0.000 A 
ATOM      6  C   UNL     1      46.786   5.538  12.565  0.00  0.00    +0.000 A 
ATOM      7  C   UNL     1      47.835   6.247  13.160  0.00  0.00    +0.000 A 
BRANCH   5   8
ATOM      8  C   UNL     1      44.475   5.400  11.568  0.00  0.00    +0.000 C 
BRANCH   8   9
ATOM      9  N   UNL     1      44.969   4.384  10.669  0.00  0.00    +0.000 N 
ATOM     10  C   UNL     1      45.438   4.730   9.419  0.00  0.00    +0.000 C 
ATOM     11  O   UNL     1      45.482   5.889   9.018  0.00  0.00    +0.000 OA
ATOM     12  H   UNL     1      45.140   3.457  11.034  0.00  0.00    +0.000 HD
BRANCH  10  13
ATOM     13  C   UNL     1      45.913   3.618   8.546  0.00  0.00    +0.000 A 
ATOM     14  C   UNL     1      46.652   3.863   7.383  0.00  0.00    +0.000 A 
ATOM     15  C   UNL     1      47.142   2.794   6.627  0.00  0.00    +0.000 A 
ATOM     16  C   UNL     1      46.900   1.481   7.030  0.00  0.00    +0.000 A 
ATOM     17  C   UNL     1      46.161   1.231   8.186  0.00  0.00    +0.000 A 
ATOM     18  C   UNL     1      45.671   2.296   8.945  0.00  0.00    +0.000 A 
ENDBRANCH  10  13
ENDBRANCH   8   9
ENDBRANCH   5   8
ENDBRANCH   1   2
BRANCH   1  19
ATOM     19  N   UNL     1      49.169   7.911  15.313  0.00  0.00    +0.000 N 
ATOM     20  C   UNL     1      48.623   8.469  16.439  0.00  0.00    +0.000 C 
ATOM     21  O   UNL     1      47.767   9.346  16.378  0.00  0.00    +0.000 OA
ATOM     22  H   UNL     1      49.997   7.329  15.401  0.00  0.00    +0.000 HD
BRANCH  20  23
ATOM     23  C   UNL     1      49.074   7.916  17.718  0.00  0.00    +0.000 A 
ATOM     24  C   UNL     1      49.309   8.750  18.800  0.00  0.00    +0.000 A 
ATOM     25  S   UNL     1      49.844   7.922  20.194  0.00  0.00    +0.000 S 
ATOM     26  C   UNL     1      49.823   6.426  19.382  0.00  0.00    +0.000 A 
ATOM     27  N   UNL     1      50.223   5.284  20.000  0.00  0.00    +0.000 NA
ATOM     28  C   UNL     1      50.189   4.233  19.251  0.00  0.00    +0.000 A 
ATOM     29  N   UNL     1      49.772   4.213  17.945  0.00  0.00    +0.000 N 
ATOM     30  C   UNL     1      49.285   5.331  17.304  0.00  0.00    +0.000 A 
ATOM     31  O   UNL     1      48.785   5.264  16.186  0.00  0.00    +0.000 OA
ATOM     32  C   UNL     1      49.366   6.551  18.083  0.00  0.00    +0.000 A 
ATOM     33  H   UNL     1      49.732   3.350  17.426  0.00  0.00    +0.000 HD
ENDBRANCH  20  23
ENDBRANCH   1  19
BRANCH   1  35
ATOM     34  N   UNL     1      51.055   8.488  12.456  0.00  0.00    +0.000 NA
ATOM     35  C   UNL     1      50.111   8.468  13.140  0.00  0.00    +0.000 C 
ENDBRANCH   1  35
TORSDOF 7
ENDMDL
