MODEL 1
REMARK VINA RESULT:    -8.244      0.000      0.000
REMARK INTER + INTRA:         -13.659
REMARK INTER:                 -12.340
REMARK INTRA:                  -1.319
REMARK UNBOUND:                -1.319
REMARK  Name = 
REMARK  9 active torsions:
REMARK  status: ('A' for Active; 'I' for Inactive)
REMARK    1  A    between atoms: N_1  and  C_2
REMARK    2  A    between atoms: C_2  and  C_3
REMARK    3  A    between atoms: C_3  and  C_4
REMARK    4  A    between atoms: C_3  and  N_11
REMARK    5  A    between atoms: C_4  and  C_5
REMARK    6  A    between atoms: N_11  and  C_12
REMARK    7  A    between atoms: C_15  and  C_16
REMARK    8  A    between atoms: C_16  and  N_17
REMARK    9  A    between atoms: C_18  and  C_20
REMARK                            x       y       z     vdW  Elec       q    Type
REMARK                         _______ _______ _______ _____ _____    ______ ____
ROOT
ATOM      1  C   UNL     1      45.013   6.248  11.126  0.00  0.00    +0.000 A 
ATOM      2  C   UNL     1      44.567   7.448  11.683  0.00  0.00    +0.000 A 
ATOM      3  C   UNL     1      45.386   8.205  12.531  0.00  0.00    +0.000 A 
ATOM      4  C   UNL     1      46.663   7.755  12.879  0.00  0.00    +0.000 A 
ATOM      5  C   UNL     1      47.082   6.510  12.405  0.00  0.00    +0.000 A 
ATOM      6  C   UNL     1      46.262   5.766  11.547  0.00  0.00    +0.000 A 
ENDROOT
BRANCH   1   7
ATOM      7  N   UNL     1      44.231   5.446  10.285  0.00  0.00    +0.000 N 
ATOM      8  H   UNL     1      43.240   5.562  10.506  0.00  0.00    +0.000 HD
BRANCH   7   9
ATOM      9  C   UNL     1      44.550   4.006  10.116  0.00  0.00    +0.000 C 
BRANCH   9  10
ATOM     10  C   UNL     1      43.601   3.180  11.034  0.00  0.00    +0.000 C 
BRANCH  10  11
ATOM     11  N   UNL     1      44.260   2.777  12.289  0.00  0.00    +0.000 NA
ATOM     12  H   UNL     1      44.973   2.077  12.085  0.00  0.00    +0.000 HD
ATOM     13  H   UNL     1      44.758   3.579  12.683  0.00  0.00    +0.000 HD
ENDBRANCH  10  11
ENDBRANCH   9  10
BRANCH   9  14
ATOM     14  C   UNL     1      44.400   3.626   8.625  0.00  0.00    +0.000 C 
BRANCH  14  15
ATOM     15  C   UNL     1      45.527   2.836   7.986  0.00  0.00    +0.000 A 
ATOM     16  C   UNL     1      46.365   3.475   7.057  0.00  0.00    +0.000 A 
ATOM     17  C   UNL     1      47.428   2.794   6.458  0.00  0.00    +0.000 A 
ATOM     18  C   UNL     1      47.678   1.466   6.789  0.00  0.00    +0.000 A 
ATOM     19  C   UNL     1      46.876   0.826   7.732  0.00  0.00    +0.000 A 
ATOM     20  C   UNL     1      45.816   1.509   8.336  0.00  0.00    +0.000 A 
ENDBRANCH  14  15
ENDBRANCH   9  14
ENDBRANCH   7   9
ENDBRANCH   1   7
BRANCH   4  21
ATOM     21  C   UNL     1      47.544   8.571  13.788  0.00  0.00    +0.000 C 
BRANCH  21  22
ATOM     22  N   UNL     1      47.884   7.845  14.986  0.00  0.00    +0.000 N 
ATOM     23  C   UNL     1      49.121   7.269  15.127  0.00  0.00    +0.000 C 
ATOM     24  O   UNL     1      49.992   7.388  14.268  0.00  0.00    +0.000 OA
ATOM     25  H   UNL     1      47.122   7.567  15.597  0.00  0.00    +0.000 HD
BRANCH  23  26
ATOM     26  C   UNL     1      49.383   6.550  16.379  0.00  0.00    +0.000 A 
ATOM     27  C   UNL     1      50.346   7.035  17.255  0.00  0.00    +0.000 A 
ATOM     28  S   UNL     1      50.516   6.104  18.672  0.00  0.00    +0.000 S 
ATOM     29  C   UNL     1      49.340   4.992  18.148  0.00  0.00    +0.000 A 
ATOM     30  N   UNL     1      49.026   3.904  18.901  0.00  0.00    +0.000 NA
ATOM     31  C   UNL     1      48.141   3.128  18.371  0.00  0.00    +0.000 A 
ATOM     32  N   UNL     1      47.537   3.345  17.161  0.00  0.00    +0.000 N 
ATOM     33  C   UNL     1      47.801   4.444  16.381  0.00  0.00    +0.000 A 
ATOM     34  O   UNL     1      47.213   4.639  15.322  0.00  0.00    +0.000 OA
ATOM     35  C   UNL     1      48.806   5.341  16.920  0.00  0.00    +0.000 A 
ATOM     36  H   UNL     1      46.841   2.704  16.806  0.00  0.00    +0.000 HD
ENDBRANCH  23  26
ENDBRANCH  21  22
ENDBRANCH   4  21
TORSDOF 9
ENDMDL
MODEL 2
REMARK VINA RESULT:    -7.893      1.936      2.435
REMARK INTER + INTRA:         -13.134
REMARK INTER:                 -11.926
REMARK INTRA:                  -1.208
REMARK UNBOUND:                -1.319
REMARK  Name = 
REMARK  9 active torsions:
REMARK  status: ('A' for Active; 'I' for Inactive)
REMARK    1  A    between atoms: N_1  and  C_2
REMARK    2  A    between atoms: C_2  and  C_3
REMARK    3  A    between atoms: C_3  and  C_4
REMARK    4  A    between atoms: C_3  and  N_11
REMARK    5  A    between atoms: C_4  and  C_5
REMARK    6  A    between atoms: N_11  and  C_12
REMARK    7  A    between atoms: C_15  and  C_16
REMARK    8  A    between atoms: C_16  and  N_17
REMARK    9  A    between atoms: C_18  and  C_20
REMARK                            x       y       z     vdW  Elec       q    Type
REMARK                         _______ _______ _______ _____ _____    ______ ____
ROOT
ATOM      1  C   UNL     1      45.448   6.632  11.451  0.00  0.00    +0.000 A 
ATOM      2  C   UNL     1      45.186   7.825  12.129  0.00  0.00    +0.000 A 
ATOM      3  C   UNL     1      46.093   8.344  13.062  0.00  0.00    +0.000 A 
ATOM      4  C   UNL     1      47.270   7.657  13.373  0.00  0.00    +0.000 A 
ATOM      5  C   UNL     1      47.495   6.416  12.772  0.00  0.00    +0.000 A 
ATOM      6  C   UNL     1      46.589   5.910  11.831  0.00  0.00    +0.000 A 
ENDROOT
BRANCH   1   7
ATOM      7  N   UNL     1      44.570   6.061  10.520  0.00  0.00    +0.000 N 
ATOM      8  H   UNL     1      43.656   6.517  10.569  0.00  0.00    +0.000 HD
BRANCH   7   9
ATOM      9  C   UNL     1      44.402   4.588  10.456  0.00  0.00    +0.000 C 
BRANCH   9  10
ATOM     10  C   UNL     1      43.169   4.195  11.324  0.00  0.00    +0.000 C 
BRANCH  10  11
ATOM     11  N   UNL     1      43.021   2.733  11.443  0.00  0.00    +0.000 NA
ATOM     12  H   UNL     1      43.857   2.345  11.879  0.00  0.00    +0.000 HD
ATOM     13  H   UNL     1      42.248   2.522  12.079  0.00  0.00    +0.000 HD
ENDBRANCH  10  11
ENDBRANCH   9  10
BRANCH   9  14
ATOM     14  C   UNL     1      44.240   4.159   8.980  0.00  0.00    +0.000 C 
BRANCH  14  15
ATOM     15  C   UNL     1      45.341   3.313   8.371  0.00  0.00    +0.000 A 
ATOM     16  C   UNL     1      45.374   1.935   8.649  0.00  0.00    +0.000 A 
ATOM     17  C   UNL     1      46.357   1.112   8.094  0.00  0.00    +0.000 A 
ATOM     18  C   UNL     1      47.316   1.650   7.241  0.00  0.00    +0.000 A 
ATOM     19  C   UNL     1      47.279   3.008   6.929  0.00  0.00    +0.000 A 
ATOM     20  C   UNL     1      46.292   3.832   7.480  0.00  0.00    +0.000 A 
ENDBRANCH  14  15
ENDBRANCH   9  14
ENDBRANCH   7   9
ENDBRANCH   1   7
BRANCH   4  21
ATOM     21  C   UNL     1      48.245   8.218  14.373  0.00  0.00    +0.000 C 
BRANCH  21  22
ATOM     22  N   UNL     1      48.092   7.599  15.666  0.00  0.00    +0.000 N 
ATOM     23  C   UNL     1      49.054   6.753  16.155  0.00  0.00    +0.000 C 
ATOM     24  O   UNL     1      50.093   6.528  15.537  0.00  0.00    +0.000 OA
ATOM     25  H   UNL     1      47.166   7.609  16.083  0.00  0.00    +0.000 HD
BRANCH  23  26
ATOM     26  C   UNL     1      48.817   6.167  17.479  0.00  0.00    +0.000 A 
ATOM     27  C   UNL     1      49.043   4.811  17.675  0.00  0.00    +0.000 A 
ATOM     28  S   UNL     1      48.745   4.288  19.269  0.00  0.00    +0.000 S 
ATOM     29  C   UNL     1      48.257   5.846  19.747  0.00  0.00    +0.000 A 
ATOM     30  N   UNL     1      47.831   6.084  21.017  0.00  0.00    +0.000 NA
ATOM     31  C   UNL     1      47.462   7.302  21.234  0.00  0.00    +0.000 A 
ATOM     32  N   UNL     1      47.489   8.304  20.302  0.00  0.00    +0.000 N 
ATOM     33  C   UNL     1      47.940   8.117  19.017  0.00  0.00    +0.000 A 
ATOM     34  O   UNL     1      47.996   9.042  18.213  0.00  0.00    +0.000 OA
ATOM     35  C   UNL     1      48.347   6.759  18.711  0.00  0.00    +0.000 A 
ATOM     36  H   UNL     1      47.198   9.242  20.538  0.00  0.00    +0.000 HD
ENDBRANCH  23  26
ENDBRANCH  21  22
ENDBRANCH   4  21
TORSDOF 9
ENDMDL
MODEL 3
REMARK VINA RESULT:    -7.522      1.674      2.109
REMARK INTER + INTRA:         -12.578
REMARK INTER:                 -11.525
REMARK INTRA:                  -1.053
REMARK UNBOUND:                -1.319
REMARK  Name = 
REMARK  9 active torsions:
REMARK  status: ('A' for Active; 'I' for Inactive)
REMARK    1  A    between atoms: N_1  and  C_2
REMARK    2  A    between atoms: C_2  and  C_3
REMARK    3  A    between atoms: C_3  and  C_4
REMARK    4  A    between atoms: C_3  and  N_11
REMARK    5  A    between atoms: C_4  and  C_5
REMARK    6  A    between atoms: N_11  and  C_12
REMARK    7  A    between atoms: C_15  and  C_16
REMARK    8  A    between atoms: C_16  and  N_17
REMARK    9  A    between atoms: C_18  and  C_20
REMARK                            x       y       z     vdW  Elec       q    Type
REMARK                         _______ _______ _______ _____ _____    ______ ____
ROOT
ATOM      1  C   UNL     1      45.379   6.768  11.497  0.00  0.00    +0.000 A 
ATOM      2  C   UNL     1      45.012   7.988  12.068  0.00  0.00    +0.000 A 
ATOM      3  C   UNL     1      45.835   8.631  13.001  0.00  0.00    +0.000 A 
ATOM      4  C   UNL     1      47.034   8.045  13.421  0.00  0.00    +0.000 A 
ATOM      5  C   UNL     1      47.363   6.780  12.928  0.00  0.00    +0.000 A 
ATOM      6  C   UNL     1      46.540   6.150  11.986  0.00  0.00    +0.000 A 
ENDROOT
BRANCH   1   7
ATOM      7  N   UNL     1      44.588   6.076  10.571  0.00  0.00    +0.000 N 
ATOM      8  H   UNL     1      43.640   6.460  10.560  0.00  0.00    +0.000 HD
BRANCH   7   9
ATOM      9  C   UNL     1      44.537   4.593  10.591  0.00  0.00    +0.000 C 
BRANCH   9  10
ATOM     10  C   UNL     1      43.465   4.150  11.630  0.00  0.00    +0.000 C 
BRANCH  10  11
ATOM     11  N   UNL     1      43.067   2.743  11.447  0.00  0.00    +0.000 NA
ATOM     12  H   UNL     1      42.356   2.502  12.138  0.00  0.00    +0.000 HD
ATOM     13  H   UNL     1      42.619   2.634  10.534  0.00  0.00    +0.000 HD
ENDBRANCH  10  11
ENDBRANCH   9  10
BRANCH   9  14
ATOM     14  C   UNL     1      44.222   4.077   9.168  0.00  0.00    +0.000 C 
BRANCH  14  15
ATOM     15  C   UNL     1      45.285   3.253   8.469  0.00  0.00    +0.000 A 
ATOM     16  C   UNL     1      45.384   1.881   8.759  0.00  0.00    +0.000 A 
ATOM     17  C   UNL     1      46.334   1.077   8.125  0.00  0.00    +0.000 A 
ATOM     18  C   UNL     1      47.193   1.629   7.179  0.00  0.00    +0.000 A 
ATOM     19  C   UNL     1      47.088   2.981   6.856  0.00  0.00    +0.000 A 
ATOM     20  C   UNL     1      46.134   3.785   7.487  0.00  0.00    +0.000 A 
ENDBRANCH  14  15
ENDBRANCH   9  14
ENDBRANCH   7   9
ENDBRANCH   1   7
BRANCH   4  21
ATOM     21  C   UNL     1      47.919   8.738  14.421  0.00  0.00    +0.000 C 
BRANCH  21  22
ATOM     22  N   UNL     1      48.203   7.892  15.553  0.00  0.00    +0.000 N 
ATOM     23  C   UNL     1      48.181   8.398  16.828  0.00  0.00    +0.000 C 
ATOM     24  O   UNL     1      47.877   9.567  17.055  0.00  0.00    +0.000 OA
ATOM     25  H   UNL     1      48.651   6.999  15.369  0.00  0.00    +0.000 HD
BRANCH  23  26
ATOM     26  C   UNL     1      48.481   7.465  17.920  0.00  0.00    +0.000 A 
ATOM     27  C   UNL     1      47.767   7.555  19.109  0.00  0.00    +0.000 A 
ATOM     28  S   UNL     1      48.215   6.391  20.269  0.00  0.00    +0.000 S 
ATOM     29  C   UNL     1      49.413   5.751  19.244  0.00  0.00    +0.000 A 
ATOM     30  N   UNL     1      50.208   4.727  19.655  0.00  0.00    +0.000 NA
ATOM     31  C   UNL     1      51.093   4.361  18.791  0.00  0.00    +0.000 A 
ATOM     32  N   UNL     1      51.250   4.918  17.550  0.00  0.00    +0.000 N 
ATOM     33  C   UNL     1      50.452   5.933  17.081  0.00  0.00    +0.000 A 
ATOM     34  O   UNL     1      50.584   6.386  15.948  0.00  0.00    +0.000 OA
ATOM     35  C   UNL     1      49.452   6.400  18.022  0.00  0.00    +0.000 A 
ATOM     36  H   UNL     1      51.957   4.578  16.913  0.00  0.00    +0.000 HD
ENDBRANCH  23  26
ENDBRANCH  21  22
ENDBRANCH   4  21
TORSDOF 9
ENDMDL
MODEL 4
REMARK VINA RESULT:    -7.409      1.413      1.779
REMARK INTER + INTRA:         -12.409
REMARK INTER:                 -11.163
REMARK INTRA:                  -1.246
REMARK UNBOUND:                -1.319
REMARK  Name = 
REMARK  9 active torsions:
REMARK  status: ('A' for Active; 'I' for Inactive)
REMARK    1  A    between atoms: N_1  and  C_2
REMARK    2  A    between atoms: C_2  and  C_3
REMARK    3  A    between atoms: C_3  and  C_4
REMARK    4  A    between atoms: C_3  and  N_11
REMARK    5  A    between atoms: C_4  and  C_5
REMARK    6  A    between atoms: N_11  and  C_12
REMARK    7  A    between atoms: C_15  and  C_16
REMARK    8  A    between atoms: C_16  and  N_17
REMARK    9  A    between atoms: C_18  and  C_20
REMARK                            x       y       z     vdW  Elec       q    Type
REMARK                         _______ _______ _______ _____ _____    ______ ____
ROOT
ATOM      1  C   UNL     1      45.214   6.460  11.530  0.00  0.00    +0.000 A 
ATOM      2  C   UNL     1      46.466   5.903  11.797  0.00  0.00    +0.000 A 
ATOM      3  C   UNL     1      47.445   6.619  12.500  0.00  0.00    +0.000 A 
ATOM      4  C   UNL     1      47.208   7.932  12.917  0.00  0.00    +0.000 A 
ATOM      5  C   UNL     1      45.994   8.531  12.571  0.00  0.00    +0.000 A 
ATOM      6  C   UNL     1      45.016   7.804  11.880  0.00  0.00    +0.000 A 
ENDROOT
BRANCH   1   7
ATOM      7  N   UNL     1      44.205   5.795  10.820  0.00  0.00    +0.000 N 
ATOM      8  H   UNL     1      43.285   6.097  11.147  0.00  0.00    +0.000 HD
BRANCH   7   9
ATOM      9  C   UNL     1      44.238   4.318  10.681  0.00  0.00    +0.000 C 
BRANCH   9  10
ATOM     10  C   UNL     1      43.139   3.712  11.604  0.00  0.00    +0.000 C 
BRANCH  10  11
ATOM     11  N   UNL     1      43.075   2.243  11.496  0.00  0.00    +0.000 NA
ATOM     12  H   UNL     1      43.519   1.826  12.314  0.00  0.00    +0.000 HD
ATOM     13  H   UNL     1      42.097   1.944  11.524  0.00  0.00    +0.000 HD
ENDBRANCH  10  11
ENDBRANCH   9  10
BRANCH   9  14
ATOM     14  C   UNL     1      44.027   3.943   9.196  0.00  0.00    +0.000 C 
BRANCH  14  15
ATOM     15  C   UNL     1      45.143   3.190   8.498  0.00  0.00    +0.000 A 
ATOM     16  C   UNL     1      46.029   3.900   7.669  0.00  0.00    +0.000 A 
ATOM     17  C   UNL     1      47.085   3.252   7.022  0.00  0.00    +0.000 A 
ATOM     18  C   UNL     1      47.279   1.886   7.203  0.00  0.00    +0.000 A 
ATOM     19  C   UNL     1      46.428   1.173   8.046  0.00  0.00    +0.000 A 
ATOM     20  C   UNL     1      45.375   1.822   8.698  0.00  0.00    +0.000 A 
ENDBRANCH  14  15
ENDBRANCH   9  14
ENDBRANCH   7   9
ENDBRANCH   1   7
BRANCH   4  21
ATOM     21  C   UNL     1      48.258   8.699  13.675  0.00  0.00    +0.000 C 
BRANCH  21  22
ATOM     22  N   UNL     1      49.170   7.815  14.357  0.00  0.00    +0.000 N 
ATOM     23  C   UNL     1      49.918   8.262  15.416  0.00  0.00    +0.000 C 
ATOM     24  O   UNL     1      49.807   9.407  15.849  0.00  0.00    +0.000 OA
ATOM     25  H   UNL     1      49.421   6.949  13.888  0.00  0.00    +0.000 HD
BRANCH  23  26
ATOM     26  C   UNL     1      50.819   7.294  16.051  0.00  0.00    +0.000 A 
ATOM     27  C   UNL     1      52.183   7.555  16.087  0.00  0.00    +0.000 A 
ATOM     28  S   UNL     1      53.093   6.350  16.877  0.00  0.00    +0.000 S 
ATOM     29  C   UNL     1      51.703   5.411  17.162  0.00  0.00    +0.000 A 
ATOM     30  N   UNL     1      51.792   4.205  17.784  0.00  0.00    +0.000 NA
ATOM     31  C   UNL     1      50.667   3.585  17.907  0.00  0.00    +0.000 A 
ATOM     32  N   UNL     1      49.460   4.066  17.474  0.00  0.00    +0.000 N 
ATOM     33  C   UNL     1      49.318   5.291  16.868  0.00  0.00    +0.000 A 
ATOM     34  O   UNL     1      48.218   5.718  16.530  0.00  0.00    +0.000 OA
ATOM     35  C   UNL     1      50.556   6.022  16.684  0.00  0.00    +0.000 A 
ATOM     36  H   UNL     1      48.611   3.536  17.611  0.00  0.00    +0.000 HD
ENDBRANCH  23  26
ENDBRANCH  21  22
ENDBRANCH   4  21
TORSDOF 9
ENDMDL
MODEL 5
REMARK VINA RESULT:    -7.253      1.732      2.520
REMARK INTER + INTRA:         -12.177
REMARK INTER:                 -11.477
REMARK INTRA:                  -0.700
REMARK UNBOUND:                -1.319
REMARK  Name = 
REMARK  9 active torsions:
REMARK  status: ('A' for Active; 'I' for Inactive)
REMARK    1  A    between atoms: N_1  and  C_2
REMARK    2  A    between atoms: C_2  and  C_3
REMARK    3  A    between atoms: C_3  and  C_4
REMARK    4  A    between atoms: C_3  and  N_11
REMARK    5  A    between atoms: C_4  and  C_5
REMARK    6  A    between atoms: N_11  and  C_12
REMARK    7  A    between atoms: C_15  and  C_16
REMARK    8  A    between atoms: C_16  and  N_17
REMARK    9  A    between atoms: C_18  and  C_20
REMARK                            x       y       z     vdW  Elec       q    Type
REMARK                         _______ _______ _______ _____ _____    ______ ____
ROOT
ATOM      1  C   UNL     1      45.986   4.339  12.797  0.00  0.00    +0.000 A 
ATOM      2  C   UNL     1      46.534   4.291  14.080  0.00  0.00    +0.000 A 
ATOM      3  C   UNL     1      47.304   5.349  14.582  0.00  0.00    +0.000 A 
ATOM      4  C   UNL     1      47.582   6.468  13.791  0.00  0.00    +0.000 A 
ATOM      5  C   UNL     1      47.120   6.482  12.473  0.00  0.00    +0.000 A 
ATOM      6  C   UNL     1      46.340   5.427  11.984  0.00  0.00    +0.000 A 
ENDROOT
BRANCH   1   7
ATOM      7  N   UNL     1      45.223   3.305  12.241  0.00  0.00    +0.000 N 
ATOM      8  H   UNL     1      45.693   2.921  11.417  0.00  0.00    +0.000 HD
BRANCH   7   9
ATOM      9  C   UNL     1      43.781   3.509  11.956  0.00  0.00    +0.000 C 
BRANCH   9  10
ATOM     10  C   UNL     1      43.222   4.555  12.967  0.00  0.00    +0.000 C 
BRANCH  10  11
ATOM     11  N   UNL     1      42.622   5.716  12.286  0.00  0.00    +0.000 NA
ATOM     12  H   UNL     1      42.438   6.449  12.971  0.00  0.00    +0.000 HD
ATOM     13  H   UNL     1      43.299   6.110  11.628  0.00  0.00    +0.000 HD
ENDBRANCH  10  11
ENDBRANCH   9  10
BRANCH   9  14
ATOM     14  C   UNL     1      43.614   3.967  10.488  0.00  0.00    +0.000 C 
BRANCH  14  15
ATOM     15  C   UNL     1      44.642   3.486   9.482  0.00  0.00    +0.000 A 
ATOM     16  C   UNL     1      44.860   2.105   9.339  0.00  0.00    +0.000 A 
ATOM     17  C   UNL     1      45.782   1.614   8.411  0.00  0.00    +0.000 A 
ATOM     18  C   UNL     1      46.491   2.496   7.601  0.00  0.00    +0.000 A 
ATOM     19  C   UNL     1      46.264   3.867   7.708  0.00  0.00    +0.000 A 
ATOM     20  C   UNL     1      45.338   4.358   8.633  0.00  0.00    +0.000 A 
ENDBRANCH  14  15
ENDBRANCH   9  14
ENDBRANCH   7   9
ENDBRANCH   1   7
BRANCH   4  21
ATOM     21  C   UNL     1      48.407   7.605  14.332  0.00  0.00    +0.000 C 
BRANCH  21  22
ATOM     22  N   UNL     1      48.442   7.594  15.773  0.00  0.00    +0.000 N 
ATOM     23  C   UNL     1      49.466   6.973  16.443  0.00  0.00    +0.000 C 
ATOM     24  O   UNL     1      50.405   6.449  15.847  0.00  0.00    +0.000 OA
ATOM     25  H   UNL     1      47.586   7.832  16.265  0.00  0.00    +0.000 HD
BRANCH  23  26
ATOM     26  C   UNL     1      49.423   7.010  17.909  0.00  0.00    +0.000 A 
ATOM     27  C   UNL     1      49.745   8.188  18.571  0.00  0.00    +0.000 A 
ATOM     28  S   UNL     1      49.626   8.079  20.267  0.00  0.00    +0.000 S 
ATOM     29  C   UNL     1      49.183   6.438  20.184  0.00  0.00    +0.000 A 
ATOM     30  N   UNL     1      48.962   5.718  21.316  0.00  0.00    +0.000 NA
ATOM     31  C   UNL     1      48.664   4.479  21.109  0.00  0.00    +0.000 A 
ATOM     32  N   UNL     1      48.556   3.898  19.874  0.00  0.00    +0.000 N 
ATOM     33  C   UNL     1      48.741   4.594  18.703  0.00  0.00    +0.000 A 
ATOM     34  O   UNL     1      48.595   4.060  17.607  0.00  0.00    +0.000 OA
ATOM     35  C   UNL     1      49.101   5.987  18.878  0.00  0.00    +0.000 A 
ATOM     36  H   UNL     1      48.307   2.924  19.778  0.00  0.00    +0.000 HD
ENDBRANCH  23  26
ENDBRANCH  21  22
ENDBRANCH   4  21
TORSDOF 9
ENDMDL
MODEL 6
REMARK VINA RESULT:    -7.075      4.171      5.451
REMARK INTER + INTRA:         -11.909
REMARK INTER:                 -10.759
REMARK INTRA:                  -1.150
REMARK UNBOUND:                -1.319
REMARK  Name = 
REMARK  9 active torsions:
REMARK  status: ('A' for Active; 'I' for Inactive)
REMARK    1  A    between atoms: N_1  and  C_2
REMARK    2  A    between atoms: C_2  and  C_3
REMARK    3  A    between atoms: C_3  and  C_4
REMARK    4  A    between atoms: C_3  and  N_11
REMARK    5  A    between atoms: C_4  and  C_5
REMARK    6  A    between atoms: N_11  and  C_12
REMARK    7  A    between atoms: C_15  and  C_16
REMARK    8  A    between atoms: C_16  and  N_17
REMARK    9  A    between atoms: C_18  and  C_20
REMARK                            x       y       z     vdW  Elec       q    Type
REMARK                         _______ _______ _______ _____ _____    ______ ____
ROOT
ATOM      1  C   UNL     1      45.275   6.835  11.387  0.00  0.00    +0.000 A 
ATOM      2  C   UNL     1      46.619   6.566  11.653  0.00  0.00    +0.000 A 
ATOM      3  C   UNL     1      47.466   7.548  12.183  0.00  0.00    +0.000 A 
ATOM      4  C   UNL     1      46.997   8.844  12.420  0.00  0.00    +0.000 A 
ATOM      5  C   UNL     1      45.680   9.149  12.068  0.00  0.00    +0.000 A 
ATOM      6  C   UNL     1      44.837   8.158  11.550  0.00  0.00    +0.000 A 
ENDROOT
BRANCH   1   7
ATOM      7  N   UNL     1      44.389   5.895  10.844  0.00  0.00    +0.000 N 
ATOM      8  H   UNL     1      43.491   5.934  11.331  0.00  0.00    +0.000 HD
BRANCH   7   9
ATOM      9  C   UNL     1      44.812   4.484  10.666  0.00  0.00    +0.000 C 
BRANCH   9  10
ATOM     10  C   UNL     1      44.202   3.637  11.822  0.00  0.00    +0.000 C 
BRANCH  10  11
ATOM     11  N   UNL     1      42.992   2.911  11.396  0.00  0.00    +0.000 NA
ATOM     12  H   UNL     1      42.342   2.852  12.179  0.00  0.00    +0.000 HD
ATOM     13  H   UNL     1      42.511   3.450  10.672  0.00  0.00    +0.000 HD
ENDBRANCH  10  11
ENDBRANCH   9  10
BRANCH   9  14
ATOM     14  C   UNL     1      44.356   3.990   9.274  0.00  0.00    +0.000 C 
BRANCH  14  15
ATOM     15  C   UNL     1      45.332   3.150   8.473  0.00  0.00    +0.000 A 
ATOM     16  C   UNL     1      46.159   3.781   7.528  0.00  0.00    +0.000 A 
ATOM     17  C   UNL     1      47.088   3.051   6.782  0.00  0.00    +0.000 A 
ATOM     18  C   UNL     1      47.215   1.680   6.978  0.00  0.00    +0.000 A 
ATOM     19  C   UNL     1      46.425   1.042   7.934  0.00  0.00    +0.000 A 
ATOM     20  C   UNL     1      45.499   1.773   8.685  0.00  0.00    +0.000 A 
ENDBRANCH  14  15
ENDBRANCH   9  14
ENDBRANCH   7   9
ENDBRANCH   1   7
BRANCH   4  21
ATOM     21  C   UNL     1      47.907   9.897  12.993  0.00  0.00    +0.000 C 
BRANCH  21  22
ATOM     22  N   UNL     1      49.226   9.826  12.418  0.00  0.00    +0.000 N 
ATOM     23  C   UNL     1      49.513  10.470  11.241  0.00  0.00    +0.000 C 
ATOM     24  O   UNL     1      48.678  11.163  10.663  0.00  0.00    +0.000 OA
ATOM     25  H   UNL     1      49.850   9.102  12.765  0.00  0.00    +0.000 HD
BRANCH  23  26
ATOM     26  C   UNL     1      50.882  10.344  10.728  0.00  0.00    +0.000 A 
ATOM     27  C   UNL     1      51.552  11.478  10.288  0.00  0.00    +0.000 A 
ATOM     28  S   UNL     1      53.138  11.172   9.745  0.00  0.00    +0.000 S 
ATOM     29  C   UNL     1      52.973   9.504  10.035  0.00  0.00    +0.000 A 
ATOM     30  N   UNL     1      53.984   8.643   9.742  0.00  0.00    +0.000 NA
ATOM     31  C   UNL     1      53.714   7.404   9.983  0.00  0.00    +0.000 A 
ATOM     32  N   UNL     1      52.530   6.949  10.497  0.00  0.00    +0.000 N 
ATOM     33  C   UNL     1      51.493   7.784  10.835  0.00  0.00    +0.000 A 
ATOM     34  O   UNL     1      50.457   7.356  11.336  0.00  0.00    +0.000 OA
ATOM     35  C   UNL     1      51.734   9.188  10.564  0.00  0.00    +0.000 A 
ATOM     36  H   UNL     1      52.384   5.965  10.674  0.00  0.00    +0.000 HD
ENDBRANCH  23  26
ENDBRANCH  21  22
ENDBRANCH   4  21
TORSDOF 9
ENDMDL
MODEL 7
REMARK VINA RESULT:    -6.969      3.181      5.497
REMARK INTER + INTRA:         -11.751
REMARK INTER:                 -10.318
REMARK INTRA:                  -1.433
REMARK UNBOUND:                -1.319
REMARK  Name = 
REMARK  9 active torsions:
REMARK  status: ('A' for Active; 'I' for Inactive)
REMARK    1  A    between atoms: N_1  and  C_2
REMARK    2  A    between atoms: C_2  and  C_3
REMARK    3  A    between atoms: C_3  and  C_4
REMARK    4  A    between atoms: C_3  and  N_11
REMARK    5  A    between atoms: C_4  and  C_5
REMARK    6  A    between atoms: N_11  and  C_12
REMARK    7  A    between atoms: C_15  and  C_16
REMARK    8  A    between atoms: C_16  and  N_17
REMARK    9  A    between atoms: C_18  and  C_20
REMARK                            x       y       z     vdW  Elec       q    Type
REMARK                         _______ _______ _______ _____ _____    ______ ____
ROOT
ATOM      1  C   UNL     1      47.586   5.851  14.248  0.00  0.00    +0.000 A 
ATOM      2  C   UNL     1      48.275   6.253  15.394  0.00  0.00    +0.000 A 
ATOM      3  C   UNL     1      48.453   5.384  16.478  0.00  0.00    +0.000 A 
ATOM      4  C   UNL     1      47.907   4.097  16.459  0.00  0.00    +0.000 A 
ATOM      5  C   UNL     1      47.134   3.719  15.358  0.00  0.00    +0.000 A 
ATOM      6  C   UNL     1      46.971   4.590  14.274  0.00  0.00    +0.000 A 
ENDROOT
BRANCH   1   7
ATOM      7  N   UNL     1      47.366   6.684  13.143  0.00  0.00    +0.000 N 
ATOM      8  H   UNL     1      48.098   7.395  13.085  0.00  0.00    +0.000 HD
BRANCH   7   9
ATOM      9  C   UNL     1      46.034   7.302  12.926  0.00  0.00    +0.000 C 
BRANCH   9  10
ATOM     10  C   UNL     1      46.179   8.846  13.070  0.00  0.00    +0.000 C 
BRANCH  10  11
ATOM     11  N   UNL     1      44.918   9.549  12.774  0.00  0.00    +0.000 NA
ATOM     12  H   UNL     1      45.129  10.469  12.385  0.00  0.00    +0.000 HD
ATOM     13  H   UNL     1      44.412   9.044  12.043  0.00  0.00    +0.000 HD
ENDBRANCH  10  11
ENDBRANCH   9  10
BRANCH   9  14
ATOM     14  C   UNL     1      45.506   6.891  11.532  0.00  0.00    +0.000 C 
BRANCH  14  15
ATOM     15  C   UNL     1      44.802   5.553  11.416  0.00  0.00    +0.000 A 
ATOM     16  C   UNL     1      45.048   4.749  10.290  0.00  0.00    +0.000 A 
ATOM     17  C   UNL     1      44.439   3.499  10.149  0.00  0.00    +0.000 A 
ATOM     18  C   UNL     1      43.584   3.027  11.140  0.00  0.00    +0.000 A 
ATOM     19  C   UNL     1      43.353   3.797  12.278  0.00  0.00    +0.000 A 
ATOM     20  C   UNL     1      43.967   5.046  12.422  0.00  0.00    +0.000 A 
ENDBRANCH  14  15
ENDBRANCH   9  14
ENDBRANCH   7   9
ENDBRANCH   1   7
BRANCH   4  21
ATOM     21  C   UNL     1      48.102   3.162  17.622  0.00  0.00    +0.000 C 
BRANCH  21  22
ATOM     22  N   UNL     1      49.500   2.974  17.921  0.00  0.00    +0.000 N 
ATOM     23  C   UNL     1      50.278   2.158  17.140  0.00  0.00    +0.000 C 
ATOM     24  O   UNL     1      49.830   1.599  16.141  0.00  0.00    +0.000 OA
ATOM     25  H   UNL     1      49.824   3.253  18.842  0.00  0.00    +0.000 HD
BRANCH  23  26
ATOM     26  C   UNL     1      51.690   2.024  17.516  0.00  0.00    +0.000 A 
ATOM     27  C   UNL     1      52.233   0.756  17.684  0.00  0.00    +0.000 A 
ATOM     28  S   UNL     1      53.887   0.766  18.097  0.00  0.00    +0.000 S 
ATOM     29  C   UNL     1      53.928   2.467  18.111  0.00  0.00    +0.000 A 
ATOM     30  N   UNL     1      55.069   3.134  18.433  0.00  0.00    +0.000 NA
ATOM     31  C   UNL     1      54.952   4.419  18.435  0.00  0.00    +0.000 A 
ATOM     32  N   UNL     1      53.802   5.098  18.135  0.00  0.00    +0.000 N 
ATOM     33  C   UNL     1      52.635   4.468  17.776  0.00  0.00    +0.000 A 
ATOM     34  O   UNL     1      51.629   5.101  17.468  0.00  0.00    +0.000 OA
ATOM     35  C   UNL     1      52.703   3.020  17.779  0.00  0.00    +0.000 A 
ATOM     36  H   UNL     1      53.778   6.108  18.142  0.00  0.00    +0.000 HD
ENDBRANCH  23  26
ENDBRANCH  21  22
ENDBRANCH   4  21
TORSDOF 9
ENDMDL
MODEL 8
REMARK VINA RESULT:    -6.780      3.068      8.375
REMARK INTER + INTRA:         -11.468
REMARK INTER:                  -9.661
REMARK INTRA:                  -1.807
REMARK UNBOUND:                -1.319
REMARK  Name = 
REMARK  9 active torsions:
REMARK  status: ('A' for Active; 'I' for Inactive)
REMARK    1  A    between atoms: N_1  and  C_2
REMARK    2  A    between atoms: C_2  and  C_3
REMARK    3  A    between atoms: C_3  and  C_4
REMARK    4  A    between atoms: C_3  and  N_11
REMARK    5  A    between atoms: C_4  and  C_5
REMARK    6  A    between atoms: N_11  and  C_12
REMARK    7  A    between atoms: C_15  and  C_16
REMARK    8  A    between atoms: C_16  and  N_17
REMARK    9  A    between atoms: C_18  and  C_20
REMARK                            x       y       z     vdW  Elec       q    Type
REMARK                         _______ _______ _______ _____ _____    ______ ____
ROOT
ATOM      1  C   UNL     1      49.439   8.270  15.939  0.00  0.00    +0.000 A 
ATOM      2  C   UNL     1      50.030   7.429  14.993  0.00  0.00    +0.000 A 
ATOM      3  C   UNL     1      49.510   7.316  13.697  0.00  0.00    +0.000 A 
ATOM      4  C   UNL     1      48.354   8.010  13.326  0.00  0.00    +0.000 A 
ATOM      5  C   UNL     1      47.702   8.778  14.294  0.00  0.00    +0.000 A 
ATOM      6  C   UNL     1      48.235   8.896  15.584  0.00  0.00    +0.000 A 
ENDROOT
BRANCH   1   7
ATOM      7  N   UNL     1      49.909   8.410  17.251  0.00  0.00    +0.000 N 
ATOM      8  H   UNL     1      50.698   9.060  17.277  0.00  0.00    +0.000 HD
BRANCH   7   9
ATOM      9  C   UNL     1      50.209   7.210  18.070  0.00  0.00    +0.000 C 
BRANCH   9  10
ATOM     10  C   UNL     1      50.826   7.677  19.422  0.00  0.00    +0.000 C 
BRANCH  10  11
ATOM     11  N   UNL     1      51.246   6.541  20.261  0.00  0.00    +0.000 NA
ATOM     12  H   UNL     1      50.718   6.553  21.133  0.00  0.00    +0.000 HD
ATOM     13  H   UNL     1      50.997   5.665  19.794  0.00  0.00    +0.000 HD
ENDBRANCH  10  11
ENDBRANCH   9  10
BRANCH   9  14
ATOM     14  C   UNL     1      48.911   6.394  18.270  0.00  0.00    +0.000 C 
BRANCH  14  15
ATOM     15  C   UNL     1      48.878   4.982  17.717  0.00  0.00    +0.000 A 
ATOM     16  C   UNL     1      47.823   4.608  16.867  0.00  0.00    +0.000 A 
ATOM     17  C   UNL     1      47.762   3.325  16.316  0.00  0.00    +0.000 A 
ATOM     18  C   UNL     1      48.762   2.399  16.597  0.00  0.00    +0.000 A 
ATOM     19  C   UNL     1      49.832   2.763  17.413  0.00  0.00    +0.000 A 
ATOM     20  C   UNL     1      49.896   4.049  17.959  0.00  0.00    +0.000 A 
ENDBRANCH  14  15
ENDBRANCH   9  14
ENDBRANCH   7   9
ENDBRANCH   1   7
BRANCH   4  21
ATOM     21  C   UNL     1      47.798   7.890  11.933  0.00  0.00    +0.000 C 
BRANCH  21  22
ATOM     22  N   UNL     1      47.072   6.658  11.758  0.00  0.00    +0.000 N 
ATOM     23  C   UNL     1      45.702   6.638  11.822  0.00  0.00    +0.000 C 
ATOM     24  O   UNL     1      45.047   7.666  11.983  0.00  0.00    +0.000 OA
ATOM     25  H   UNL     1      47.595   5.790  11.834  0.00  0.00    +0.000 HD
BRANCH  23  26
ATOM     26  C   UNL     1      45.044   5.340  11.632  0.00  0.00    +0.000 A 
ATOM     27  C   UNL     1      44.354   4.764  12.691  0.00  0.00    +0.000 A 
ATOM     28  S   UNL     1      43.627   3.272  12.308  0.00  0.00    +0.000 S 
ATOM     29  C   UNL     1      44.245   3.317  10.724  0.00  0.00    +0.000 A 
ATOM     30  N   UNL     1      44.014   2.294   9.856  0.00  0.00    +0.000 NA
ATOM     31  C   UNL     1      44.566   2.443   8.700  0.00  0.00    +0.000 A 
ATOM     32  N   UNL     1      45.320   3.524   8.327  0.00  0.00    +0.000 N 
ATOM     33  C   UNL     1      45.554   4.593   9.159  0.00  0.00    +0.000 A 
ATOM     34  O   UNL     1      46.195   5.570   8.786  0.00  0.00    +0.000 OA
ATOM     35  C   UNL     1      44.974   4.468  10.482  0.00  0.00    +0.000 A 
ATOM     36  H   UNL     1      45.716   3.587   7.400  0.00  0.00    +0.000 HD
ENDBRANCH  23  26
ENDBRANCH  21  22
ENDBRANCH   4  21
TORSDOF 9
ENDMDL
MODEL 9
REMARK VINA RESULT:    -6.656      3.843      9.195
REMARK INTER + INTRA:         -11.283
REMARK INTER:                  -9.974
REMARK INTRA:                  -1.309
REMARK UNBOUND:                -1.319
REMARK  Name = 
REMARK  9 active torsions:
REMARK  status: ('A' for Active; 'I' for Inactive)
REMARK    1  A    between atoms: N_1  and  C_2
REMARK    2  A    between atoms: C_2  and  C_3
REMARK    3  A    between atoms: C_3  and  C_4
REMARK    4  A    between atoms: C_3  and  N_11
REMARK    5  A    between atoms: C_4  and  C_5
REMARK    6  A    between atoms: N_11  and  C_12
REMARK    7  A    between atoms: C_15  and  C_16
REMARK    8  A    between atoms: C_16  and  N_17
REMARK    9  A    between atoms: C_18  and  C_20
REMARK                            x       y       z     vdW  Elec       q    Type
REMARK                         _______ _______ _______ _____ _____    ______ ____
ROOT
ATOM      1  C   UNL     1      51.503   3.026  17.724  0.00  0.00    +0.000 A 
ATOM      2  C   UNL     1      50.811   4.219  17.946  0.00  0.00    +0.000 A 
ATOM      3  C   UNL     1      49.431   4.311  17.718  0.00  0.00    +0.000 A 
ATOM      4  C   UNL     1      48.715   3.218  17.219  0.00  0.00    +0.000 A 
ATOM      5  C   UNL     1      49.416   2.052  16.903  0.00  0.00    +0.000 A 
ATOM      6  C   UNL     1      50.792   1.964  17.146  0.00  0.00    +0.000 A 
ENDROOT
BRANCH   1   7
ATOM      7  N   UNL     1      52.883   2.884  17.922  0.00  0.00    +0.000 N 
ATOM      8  H   UNL     1      53.078   2.030  18.450  0.00  0.00    +0.000 HD
BRANCH   7   9
ATOM      9  C   UNL     1      53.682   4.011  18.460  0.00  0.00    +0.000 C 
BRANCH   9  10
ATOM     10  C   UNL     1      54.321   3.563  19.808  0.00  0.00    +0.000 C 
BRANCH  10  11
ATOM     11  N   UNL     1      54.362   2.096  19.939  0.00  0.00    +0.000 NA
ATOM     12  H   UNL     1      54.116   1.671  19.045  0.00  0.00    +0.000 HD
ATOM     13  H   UNL     1      55.321   1.800  20.137  0.00  0.00    +0.000 HD
ENDBRANCH  10  11
ENDBRANCH   9  10
BRANCH   9  14
ATOM     14  C   UNL     1      54.746   4.423  17.417  0.00  0.00    +0.000 C 
BRANCH  14  15
ATOM     15  C   UNL     1      54.399   5.557  16.471  0.00  0.00    +0.000 A 
ATOM     16  C   UNL     1      55.222   5.791  15.357  0.00  0.00    +0.000 A 
ATOM     17  C   UNL     1      54.930   6.811  14.447  0.00  0.00    +0.000 A 
ATOM     18  C   UNL     1      53.802   7.606  14.631  0.00  0.00    +0.000 A 
ATOM     19  C   UNL     1      52.958   7.367  15.714  0.00  0.00    +0.000 A 
ATOM     20  C   UNL     1      53.247   6.343  16.621  0.00  0.00    +0.000 A 
ENDBRANCH  14  15
ENDBRANCH   9  14
ENDBRANCH   7   9
ENDBRANCH   1   7
BRANCH   4  21
ATOM     21  C   UNL     1      47.232   3.318  16.978  0.00  0.00    +0.000 C 
BRANCH  21  22
ATOM     22  N   UNL     1      46.921   4.342  16.012  0.00  0.00    +0.000 N 
ATOM     23  C   UNL     1      47.010   4.086  14.668  0.00  0.00    +0.000 C 
ATOM     24  O   UNL     1      47.312   2.974  14.239  0.00  0.00    +0.000 OA
ATOM     25  H   UNL     1      46.877   5.301  16.344  0.00  0.00    +0.000 HD
BRANCH  23  26
ATOM     26  C   UNL     1      46.675   5.187  13.756  0.00  0.00    +0.000 A 
ATOM     27  C   UNL     1      47.594   6.207  13.551  0.00  0.00    +0.000 A 
ATOM     28  S   UNL     1      47.068   7.396  12.450  0.00  0.00    +0.000 S 
ATOM     29  C   UNL     1      45.572   6.615  12.240  0.00  0.00    +0.000 A 
ATOM     30  N   UNL     1      44.617   7.146  11.429  0.00  0.00    +0.000 NA
ATOM     31  C   UNL     1      43.519   6.469  11.385  0.00  0.00    +0.000 A 
ATOM     32  N   UNL     1      43.293   5.304  12.070  0.00  0.00    +0.000 N 
ATOM     33  C   UNL     1      44.238   4.716  12.876  0.00  0.00    +0.000 A 
ATOM     34  O   UNL     1      44.026   3.649  13.443  0.00  0.00    +0.000 OA
ATOM     35  C   UNL     1      45.485   5.449  12.979  0.00  0.00    +0.000 A 
ATOM     36  H   UNL     1      42.414   4.814  11.984  0.00  0.00    +0.000 HD
ENDBRANCH  23  26
ENDBRANCH  21  22
ENDBRANCH   4  21
TORSDOF 9
ENDMDL
