MODEL 1
REMARK VINA RESULT:    -8.410      0.000      0.000
REMARK INTER + INTRA:         -12.797
REMARK INTER:                 -11.851
REMARK INTRA:                  -0.946
REMARK UNBOUND:                -0.946
REMARK  Name = 
REMARK  9 active torsions:
REMARK  status: ('A' for Active; 'I' for Inactive)
REMARK    1  A    between atoms: C_1  and  C_2
REMARK    2  A    between atoms: C_4  and  O_5
REMARK    3  A    between atoms: O_5  and  C_6
REMARK    4  A    between atoms: C_11  and  C_12
REMARK    5  A    between atoms: C_12  and  C_13
REMARK    6  A    between atoms: C_12  and  C_14
REMARK    7  A    between atoms: C_14  and  O_15
REMARK    8  A    between atoms: O_15  and  C_16
REMARK    9  A    between atoms: C_19  and  C_20
REMARK                            x       y       z     vdW  Elec       q    Type
REMARK                         _______ _______ _______ _____ _____    ______ ____
ROOT
ATOM      1  C   UNL     1      43.622   4.501  12.500  0.00  0.00    +0.000 C 
ATOM      2  C   UNL     1      42.652   5.505  11.864  0.00  0.00    +0.000 C 
ENDROOT
BRANCH   1   8
ATOM      3  C   UNL     1      46.814   8.382  12.061  0.00  0.00    +0.000 C 
ATOM      4  C   UNL     1      46.475   7.060  12.686  0.00  0.00    +0.000 A 
ATOM      5  C   UNL     1      47.360   6.436  13.578  0.00  0.00    +0.000 A 
ATOM      6  C   UNL     1      47.033   5.202  14.133  0.00  0.00    +0.000 A 
ATOM      7  C   UNL     1      45.814   4.594  13.814  0.00  0.00    +0.000 A 
ATOM      8  C   UNL     1      44.919   5.188  12.910  0.00  0.00    +0.000 A 
ATOM      9  C   UNL     1      45.262   6.431  12.359  0.00  0.00    +0.000 A 
BRANCH   6  10
ATOM     10  O   UNL     1      47.818   4.511  15.025  0.00  0.00    +0.000 OA
BRANCH  10  11
ATOM     11  C   UNL     1      47.200   3.920  16.192  0.00  0.00    +0.000 C 
ATOM     12  C   UNL     1      47.327   4.662  17.541  0.00  0.00    +0.000 C 
ATOM     13  N   UNL     1      47.706   3.397  18.201  0.00  0.00    +0.000 NA
ATOM     14  C   UNL     1      48.039   2.821  16.883  0.00  0.00    +0.000 C 
ATOM     15  H   UNL     1      46.932   2.925  18.669  0.00  0.00    +0.000 HD
ENDBRANCH  10  11
ENDBRANCH   6  10
ENDBRANCH   1   8
BRANCH   1  16
ATOM     16  C   UNL     1      43.880   3.298  11.576  0.00  0.00    +0.000 C 
BRANCH  16  17
ATOM     17  O   UNL     1      43.564   3.634  10.213  0.00  0.00    +0.000 OA
BRANCH  17  18
ATOM     18  C   UNL     1      44.530   3.193   9.329  0.00  0.00    +0.000 A 
ATOM     19  C   UNL     1      45.147   4.136   8.527  0.00  0.00    +0.000 A 
ATOM     20  C   UNL     1      46.131   3.707   7.631  0.00  0.00    +0.000 A 
ATOM     21  C   UNL     1      46.469   2.349   7.569  0.00  0.00    +0.000 A 
ATOM     22  C   UNL     1      45.786   1.490   8.415  0.00  0.00    +0.000 A 
ATOM     23  N   UNL     1      44.830   1.878   9.287  0.00  0.00    +0.000 NA
BRANCH  21  24
ATOM     24  C   UNL     1      47.515   1.891   6.624  0.00  0.00    +0.000 C 
ATOM     25  N   UNL     1      48.618   2.675   6.423  0.00  0.00    +0.000 N 
ATOM     26  O   UNL     1      47.402   0.828   6.023  0.00  0.00    +0.000 OA
ATOM     27  H   UNL     1      48.808   3.566   6.853  0.00  0.00    +0.000 HD
ATOM     28  H   UNL     1      49.305   2.326   5.766  0.00  0.00    +0.000 HD
ENDBRANCH  21  24
ENDBRANCH  17  18
ENDBRANCH  16  17
ENDBRANCH   1  16
TORSDOF 7
ENDMDL
MODEL 2
REMARK VINA RESULT:    -7.495      1.486      1.766
REMARK INTER + INTRA:         -11.507
REMARK INTER:                 -10.679
REMARK INTRA:                  -0.829
REMARK UNBOUND:                -0.946
REMARK  Name = 
REMARK  9 active torsions:
REMARK  status: ('A' for Active; 'I' for Inactive)
REMARK    1  A    between atoms: C_1  and  C_2
REMARK    2  A    between atoms: C_4  and  O_5
REMARK    3  A    between atoms: O_5  and  C_6
REMARK    4  A    between atoms: C_11  and  C_12
REMARK    5  A    between atoms: C_12  and  C_13
REMARK    6  A    between atoms: C_12  and  C_14
REMARK    7  A    between atoms: C_14  and  O_15
REMARK    8  A    between atoms: O_15  and  C_16
REMARK    9  A    between atoms: C_19  and  C_20
REMARK                            x       y       z     vdW  Elec       q    Type
REMARK                         _______ _______ _______ _____ _____    ______ ____
ROOT
ATOM      1  C   UNL     1      43.867   5.015  12.262  0.00  0.00    +0.000 C 
ATOM      2  C   UNL     1      42.740   5.702  11.482  0.00  0.00    +0.000 C 
ENDROOT
BRANCH   1   8
ATOM      3  C   UNL     1      45.783   9.669  11.925  0.00  0.00    +0.000 C 
ATOM      4  C   UNL     1      45.922   8.252  12.402  0.00  0.00    +0.000 A 
ATOM      5  C   UNL     1      47.081   7.827  13.068  0.00  0.00    +0.000 A 
ATOM      6  C   UNL     1      47.195   6.504  13.488  0.00  0.00    +0.000 A 
ATOM      7  C   UNL     1      46.147   5.606  13.260  0.00  0.00    +0.000 A 
ATOM      8  C   UNL     1      44.984   6.002  12.578  0.00  0.00    +0.000 A 
ATOM      9  C   UNL     1      44.883   7.337  12.163  0.00  0.00    +0.000 A 
BRANCH   6  10
ATOM     10  O   UNL     1      48.277   5.985  14.158  0.00  0.00    +0.000 OA
BRANCH  10  11
ATOM     11  C   UNL     1      48.801   6.698  15.303  0.00  0.00    +0.000 C 
ATOM     12  C   UNL     1      50.295   7.089  15.298  0.00  0.00    +0.000 C 
ATOM     13  N   UNL     1      50.434   6.576  16.676  0.00  0.00    +0.000 NA
ATOM     14  C   UNL     1      49.189   5.802  16.501  0.00  0.00    +0.000 C 
ATOM     15  H   UNL     1      50.370   7.296  17.395  0.00  0.00    +0.000 HD
ENDBRANCH  10  11
ENDBRANCH   6  10
ENDBRANCH   1   8
BRANCH   1  16
ATOM     16  C   UNL     1      44.396   3.774  11.521  0.00  0.00    +0.000 C 
BRANCH  16  17
ATOM     17  O   UNL     1      43.864   3.721  10.185  0.00  0.00    +0.000 OA
BRANCH  17  18
ATOM     18  C   UNL     1      44.786   3.241   9.275  0.00  0.00    +0.000 A 
ATOM     19  C   UNL     1      45.412   4.158   8.449  0.00  0.00    +0.000 A 
ATOM     20  C   UNL     1      46.353   3.688   7.526  0.00  0.00    +0.000 A 
ATOM     21  C   UNL     1      46.639   2.318   7.462  0.00  0.00    +0.000 A 
ATOM     22  C   UNL     1      45.952   1.489   8.334  0.00  0.00    +0.000 A 
ATOM     23  N   UNL     1      45.037   1.916   9.232  0.00  0.00    +0.000 NA
BRANCH  21  24
ATOM     24  C   UNL     1      47.639   1.819   6.489  0.00  0.00    +0.000 C 
ATOM     25  N   UNL     1      48.754   2.569   6.237  0.00  0.00    +0.000 N 
ATOM     26  O   UNL     1      47.476   0.750   5.909  0.00  0.00    +0.000 OA
ATOM     27  H   UNL     1      48.983   3.461   6.646  0.00  0.00    +0.000 HD
ATOM     28  H   UNL     1      49.409   2.192   5.562  0.00  0.00    +0.000 HD
ENDBRANCH  21  24
ENDBRANCH  17  18
ENDBRANCH  16  17
ENDBRANCH   1  16
TORSDOF 7
ENDMDL
MODEL 3
REMARK VINA RESULT:    -7.434      2.418      3.875
REMARK INTER + INTRA:         -11.421
REMARK INTER:                 -10.512
REMARK INTRA:                  -0.909
REMARK UNBOUND:                -0.946
REMARK  Name = 
REMARK  9 active torsions:
REMARK  status: ('A' for Active; 'I' for Inactive)
REMARK    1  A    between atoms: C_1  and  C_2
REMARK    2  A    between atoms: C_4  and  O_5
REMARK    3  A    between atoms: O_5  and  C_6
REMARK    4  A    between atoms: C_11  and  C_12
REMARK    5  A    between atoms: C_12  and  C_13
REMARK    6  A    between atoms: C_12  and  C_14
REMARK    7  A    between atoms: C_14  and  O_15
REMARK    8  A    between atoms: O_15  and  C_16
REMARK    9  A    between atoms: C_19  and  C_20
REMARK                            x       y       z     vdW  Elec       q    Type
REMARK                         _______ _______ _______ _____ _____    ______ ____
ROOT
ATOM      1  C   UNL     1      44.480   4.489  12.111  0.00  0.00    +0.000 C 
ATOM      2  C   UNL     1      43.266   4.726  13.018  0.00  0.00    +0.000 C 
ENDROOT
BRANCH   1   8
ATOM      3  C   UNL     1      47.684   4.714  16.001  0.00  0.00    +0.000 C 
ATOM      4  C   UNL     1      47.289   5.185  14.631  0.00  0.00    +0.000 A 
ATOM      5  C   UNL     1      48.027   6.177  13.969  0.00  0.00    +0.000 A 
ATOM      6  C   UNL     1      47.633   6.610  12.706  0.00  0.00    +0.000 A 
ATOM      7  C   UNL     1      46.512   6.043  12.092  0.00  0.00    +0.000 A 
ATOM      8  C   UNL     1      45.744   5.062  12.741  0.00  0.00    +0.000 A 
ATOM      9  C   UNL     1      46.154   4.635  14.012  0.00  0.00    +0.000 A 
BRANCH   6  10
ATOM     10  O   UNL     1      48.288   7.564  11.965  0.00  0.00    +0.000 OA
BRANCH  10  11
ATOM     11  C   UNL     1      48.328   8.926  12.450  0.00  0.00    +0.000 C 
ATOM     12  C   UNL     1      47.006   9.725  12.493  0.00  0.00    +0.000 C 
ATOM     13  N   UNL     1      47.681  10.875  11.857  0.00  0.00    +0.000 NA
ATOM     14  C   UNL     1      48.759   9.976  11.401  0.00  0.00    +0.000 C 
ATOM     15  H   UNL     1      47.995  11.587  12.516  0.00  0.00    +0.000 HD
ENDBRANCH  10  11
ENDBRANCH   6  10
ENDBRANCH   1   8
BRANCH   1  16
ATOM     16  C   UNL     1      44.247   5.042  10.694  0.00  0.00    +0.000 C 
BRANCH  16  17
ATOM     17  O   UNL     1      43.723   4.015   9.833  0.00  0.00    +0.000 OA
BRANCH  17  18
ATOM     18  C   UNL     1      44.691   3.487   9.001  0.00  0.00    +0.000 A 
ATOM     19  C   UNL     1      45.002   2.147   9.145  0.00  0.00    +0.000 A 
ATOM     20  C   UNL     1      45.976   1.596   8.306  0.00  0.00    +0.000 A 
ATOM     21  C   UNL     1      46.605   2.402   7.348  0.00  0.00    +0.000 A 
ATOM     22  C   UNL     1      46.219   3.732   7.293  0.00  0.00    +0.000 A 
ATOM     23  N   UNL     1      45.284   4.289   8.093  0.00  0.00    +0.000 NA
BRANCH  21  24
ATOM     24  C   UNL     1      47.634   1.820   6.455  0.00  0.00    +0.000 C 
ATOM     25  N   UNL     1      48.841   2.453   6.331  0.00  0.00    +0.000 N 
ATOM     26  O   UNL     1      47.416   0.789   5.828  0.00  0.00    +0.000 OA
ATOM     27  H   UNL     1      49.122   3.305   6.788  0.00  0.00    +0.000 HD
ATOM     28  H   UNL     1      49.513   2.023   5.707  0.00  0.00    +0.000 HD
ENDBRANCH  21  24
ENDBRANCH  17  18
ENDBRANCH  16  17
ENDBRANCH   1  16
TORSDOF 7
ENDMDL
MODEL 4
REMARK VINA RESULT:    -7.405      3.054      5.018
REMARK INTER + INTRA:         -11.380
REMARK INTER:                 -10.572
REMARK INTRA:                  -0.808
REMARK UNBOUND:                -0.946
REMARK  Name = 
REMARK  9 active torsions:
REMARK  status: ('A' for Active; 'I' for Inactive)
REMARK    1  A    between atoms: C_1  and  C_2
REMARK    2  A    between atoms: C_4  and  O_5
REMARK    3  A    between atoms: O_5  and  C_6
REMARK    4  A    between atoms: C_11  and  C_12
REMARK    5  A    between atoms: C_12  and  C_13
REMARK    6  A    between atoms: C_12  and  C_14
REMARK    7  A    between atoms: C_14  and  O_15
REMARK    8  A    between atoms: O_15  and  C_16
REMARK    9  A    between atoms: C_19  and  C_20
REMARK                            x       y       z     vdW  Elec       q    Type
REMARK                         _______ _______ _______ _____ _____    ______ ____
ROOT
ATOM      1  C   UNL     1      45.130   4.988  11.556  0.00  0.00    +0.000 C 
ATOM      2  C   UNL     1      45.349   4.180  12.840  0.00  0.00    +0.000 C 
ENDROOT
BRANCH   1   8
ATOM      3  C   UNL     1      48.930   8.139  12.591  0.00  0.00    +0.000 C 
ATOM      4  C   UNL     1      47.485   7.940  12.235  0.00  0.00    +0.000 A 
ATOM      5  C   UNL     1      46.614   9.033  12.118  0.00  0.00    +0.000 A 
ATOM      6  C   UNL     1      45.274   8.824  11.804  0.00  0.00    +0.000 A 
ATOM      7  C   UNL     1      44.802   7.525  11.588  0.00  0.00    +0.000 A 
ATOM      8  C   UNL     1      45.649   6.412  11.718  0.00  0.00    +0.000 A 
ATOM      9  C   UNL     1      46.996   6.638  12.034  0.00  0.00    +0.000 A 
BRANCH   6  10
ATOM     10  O   UNL     1      44.340   9.819  11.651  0.00  0.00    +0.000 OA
BRANCH  10  11
ATOM     11  C   UNL     1      43.337   9.689  10.615  0.00  0.00    +0.000 C 
ATOM     12  C   UNL     1      43.343  10.714   9.460  0.00  0.00    +0.000 C 
ATOM     13  N   UNL     1      41.884  10.890   9.610  0.00  0.00    +0.000 NA
ATOM     14  C   UNL     1      41.963  10.306  10.963  0.00  0.00    +0.000 C 
ATOM     15  H   UNL     1      41.331  10.336   8.957  0.00  0.00    +0.000 HD
ENDBRANCH  10  11
ENDBRANCH   6  10
ENDBRANCH   1   8
BRANCH   1  16
ATOM     16  C   UNL     1      43.655   4.965  11.115  0.00  0.00    +0.000 C 
BRANCH  16  17
ATOM     17  O   UNL     1      43.559   4.880   9.682  0.00  0.00    +0.000 OA
BRANCH  17  18
ATOM     18  C   UNL     1      44.397   3.914   9.159  0.00  0.00    +0.000 A 
ATOM     19  C   UNL     1      45.356   4.319   8.248  0.00  0.00    +0.000 A 
ATOM     20  C   UNL     1      46.217   3.354   7.714  0.00  0.00    +0.000 A 
ATOM     21  C   UNL     1      46.092   2.016   8.111  0.00  0.00    +0.000 A 
ATOM     22  C   UNL     1      45.094   1.721   9.026  0.00  0.00    +0.000 A 
ATOM     23  N   UNL     1      44.249   2.633   9.555  0.00  0.00    +0.000 NA
BRANCH  21  24
ATOM     24  C   UNL     1      47.005   0.992   7.550  0.00  0.00    +0.000 C 
ATOM     25  N   UNL     1      48.072   1.395   6.795  0.00  0.00    +0.000 N 
ATOM     26  O   UNL     1      46.813  -0.202   7.751  0.00  0.00    +0.000 OA
ATOM     27  H   UNL     1      48.317   2.343   6.559  0.00  0.00    +0.000 HD
ATOM     28  H   UNL     1      48.667   0.662   6.428  0.00  0.00    +0.000 HD
ENDBRANCH  21  24
ENDBRANCH  17  18
ENDBRANCH  16  17
ENDBRANCH   1  16
TORSDOF 7
ENDMDL
MODEL 5
REMARK VINA RESULT:    -7.042      2.477      3.280
REMARK INTER + INTRA:         -10.869
REMARK INTER:                 -10.259
REMARK INTRA:                  -0.610
REMARK UNBOUND:                -0.946
REMARK  Name = 
REMARK  9 active torsions:
REMARK  status: ('A' for Active; 'I' for Inactive)
REMARK    1  A    between atoms: C_1  and  C_2
REMARK    2  A    between atoms: C_4  and  O_5
REMARK    3  A    between atoms: O_5  and  C_6
REMARK    4  A    between atoms: C_11  and  C_12
REMARK    5  A    between atoms: C_12  and  C_13
REMARK    6  A    between atoms: C_12  and  C_14
REMARK    7  A    between atoms: C_14  and  O_15
REMARK    8  A    between atoms: O_15  and  C_16
REMARK    9  A    between atoms: C_19  and  C_20
REMARK                            x       y       z     vdW  Elec       q    Type
REMARK                         _______ _______ _______ _____ _____    ______ ____
ROOT
ATOM      1  C   UNL     1      45.327   4.890  11.705  0.00  0.00    +0.000 C 
ATOM      2  C   UNL     1      45.822   4.043  12.884  0.00  0.00    +0.000 C 
ENDROOT
BRANCH   1   8
ATOM      3  C   UNL     1      43.876   9.646  10.856  0.00  0.00    +0.000 C 
ATOM      4  C   UNL     1      44.756   8.683  11.599  0.00  0.00    +0.000 A 
ATOM      5  C   UNL     1      45.714   9.141  12.516  0.00  0.00    +0.000 A 
ATOM      6  C   UNL     1      46.531   8.231  13.181  0.00  0.00    +0.000 A 
ATOM      7  C   UNL     1      46.384   6.860  12.947  0.00  0.00    +0.000 A 
ATOM      8  C   UNL     1      45.446   6.376  12.020  0.00  0.00    +0.000 A 
ATOM      9  C   UNL     1      44.630   7.304  11.358  0.00  0.00    +0.000 A 
BRANCH   6  10
ATOM     10  O   UNL     1      47.489   8.569  14.106  0.00  0.00    +0.000 OA
BRANCH  10  11
ATOM     11  C   UNL     1      48.883   8.520  13.722  0.00  0.00    +0.000 C 
ATOM     12  C   UNL     1      49.783   7.447  14.372  0.00  0.00    +0.000 C 
ATOM     13  N   UNL     1      50.813   8.471  14.638  0.00  0.00    +0.000 NA
ATOM     14  C   UNL     1      49.795   9.525  14.464  0.00  0.00    +0.000 C 
ATOM     15  H   UNL     1      51.557   8.502  13.941  0.00  0.00    +0.000 HD
ENDBRANCH  10  11
ENDBRANCH   6  10
ENDBRANCH   1   8
BRANCH   1  16
ATOM     16  C   UNL     1      43.894   4.507  11.293  0.00  0.00    +0.000 C 
BRANCH  16  17
ATOM     17  O   UNL     1      43.719   4.663   9.873  0.00  0.00    +0.000 OA
BRANCH  17  18
ATOM     18  C   UNL     1      44.662   3.958   9.151  0.00  0.00    +0.000 A 
ATOM     19  C   UNL     1      44.706   2.585   9.318  0.00  0.00    +0.000 A 
ATOM     20  C   UNL     1      45.650   1.855   8.589  0.00  0.00    +0.000 A 
ATOM     21  C   UNL     1      46.518   2.521   7.714  0.00  0.00    +0.000 A 
ATOM     22  C   UNL     1      46.390   3.898   7.626  0.00  0.00    +0.000 A 
ATOM     23  N   UNL     1      45.488   4.627   8.321  0.00  0.00    +0.000 NA
BRANCH  21  24
ATOM     24  C   UNL     1      47.517   1.751   6.937  0.00  0.00    +0.000 C 
ATOM     25  N   UNL     1      48.545   2.419   6.329  0.00  0.00    +0.000 N 
ATOM     26  O   UNL     1      47.432   0.532   6.832  0.00  0.00    +0.000 OA
ATOM     27  H   UNL     1      48.705   3.413   6.341  0.00  0.00    +0.000 HD
ATOM     28  H   UNL     1      49.202   1.854   5.804  0.00  0.00    +0.000 HD
ENDBRANCH  21  24
ENDBRANCH  17  18
ENDBRANCH  16  17
ENDBRANCH   1  16
TORSDOF 7
ENDMDL
MODEL 6
REMARK VINA RESULT:    -6.804      1.897      8.114
REMARK INTER + INTRA:         -10.534
REMARK INTER:                  -9.740
REMARK INTRA:                  -0.793
REMARK UNBOUND:                -0.946
REMARK  Name = 
REMARK  9 active torsions:
REMARK  status: ('A' for Active; 'I' for Inactive)
REMARK    1  A    between atoms: C_1  and  C_2
REMARK    2  A    between atoms: C_4  and  O_5
REMARK    3  A    between atoms: O_5  and  C_6
REMARK    4  A    between atoms: C_11  and  C_12
REMARK    5  A    between atoms: C_12  and  C_13
REMARK    6  A    between atoms: C_12  and  C_14
REMARK    7  A    between atoms: C_14  and  O_15
REMARK    8  A    between atoms: O_15  and  C_16
REMARK    9  A    between atoms: C_19  and  C_20
REMARK                            x       y       z     vdW  Elec       q    Type
REMARK                         _______ _______ _______ _____ _____    ______ ____
ROOT
ATOM      1  C   UNL     1      45.735   7.083  11.467  0.00  0.00    +0.000 C 
ATOM      2  C   UNL     1      44.593   8.102  11.372  0.00  0.00    +0.000 C 
ENDROOT
BRANCH   1   8
ATOM      3  C   UNL     1      43.419   2.603  11.407  0.00  0.00    +0.000 C 
ATOM      4  C   UNL     1      44.269   3.621  10.704  0.00  0.00    +0.000 A 
ATOM      5  C   UNL     1      44.778   3.372   9.420  0.00  0.00    +0.000 A 
ATOM      6  C   UNL     1      45.577   4.323   8.793  0.00  0.00    +0.000 A 
ATOM      7  C   UNL     1      45.858   5.533   9.436  0.00  0.00    +0.000 A 
ATOM      8  C   UNL     1      45.377   5.799  10.729  0.00  0.00    +0.000 A 
ATOM      9  C   UNL     1      44.572   4.832  11.347  0.00  0.00    +0.000 A 
BRANCH   6  10
ATOM     10  O   UNL     1      46.116   4.189   7.536  0.00  0.00    +0.000 OA
BRANCH  10  11
ATOM     11  C   UNL     1      46.177   2.874   6.935  0.00  0.00    +0.000 C 
ATOM     12  C   UNL     1      47.359   1.954   7.309  0.00  0.00    +0.000 C 
ATOM     13  N   UNL     1      47.567   1.640   5.881  0.00  0.00    +0.000 NA
ATOM     14  C   UNL     1      46.788   2.839   5.515  0.00  0.00    +0.000 C 
ATOM     15  H   UNL     1      47.136   0.765   5.583  0.00  0.00    +0.000 HD
ENDBRANCH  10  11
ENDBRANCH   6  10
ENDBRANCH   1   8
BRANCH   1  16
ATOM     16  C   UNL     1      46.131   6.810  12.929  0.00  0.00    +0.000 C 
BRANCH  16  17
ATOM     17  O   UNL     1      47.380   6.097  12.987  0.00  0.00    +0.000 OA
BRANCH  17  18
ATOM     18  C   UNL     1      47.654   5.627  14.257  0.00  0.00    +0.000 A 
ATOM     19  C   UNL     1      46.994   4.486  14.677  0.00  0.00    +0.000 A 
ATOM     20  C   UNL     1      47.265   3.994  15.959  0.00  0.00    +0.000 A 
ATOM     21  C   UNL     1      48.188   4.657  16.777  0.00  0.00    +0.000 A 
ATOM     22  C   UNL     1      48.788   5.793  16.257  0.00  0.00    +0.000 A 
ATOM     23  N   UNL     1      48.543   6.290  15.024  0.00  0.00    +0.000 NA
BRANCH  21  24
ATOM     24  C   UNL     1      48.480   4.136  18.133  0.00  0.00    +0.000 C 
ATOM     25  N   UNL     1      47.706   3.127  18.638  0.00  0.00    +0.000 N 
ATOM     26  O   UNL     1      49.398   4.598  18.802  0.00  0.00    +0.000 OA
ATOM     27  H   UNL     1      46.926   2.683  18.182  0.00  0.00    +0.000 HD
ATOM     28  H   UNL     1      47.938   2.805  19.570  0.00  0.00    +0.000 HD
ENDBRANCH  21  24
ENDBRANCH  17  18
ENDBRANCH  16  17
ENDBRANCH   1  16
TORSDOF 7
ENDMDL
MODEL 7
REMARK VINA RESULT:    -6.587      2.702      4.658
REMARK INTER + INTRA:         -10.228
REMARK INTER:                  -9.236
REMARK INTRA:                  -0.991
REMARK UNBOUND:                -0.946
REMARK  Name = 
REMARK  9 active torsions:
REMARK  status: ('A' for Active; 'I' for Inactive)
REMARK    1  A    between atoms: C_1  and  C_2
REMARK    2  A    between atoms: C_4  and  O_5
REMARK    3  A    between atoms: O_5  and  C_6
REMARK    4  A    between atoms: C_11  and  C_12
REMARK    5  A    between atoms: C_12  and  C_13
REMARK    6  A    between atoms: C_12  and  C_14
REMARK    7  A    between atoms: C_14  and  O_15
REMARK    8  A    between atoms: O_15  and  C_16
REMARK    9  A    between atoms: C_19  and  C_20
REMARK                            x       y       z     vdW  Elec       q    Type
REMARK                         _______ _______ _______ _____ _____    ______ ____
ROOT
ATOM      1  C   UNL     1      48.508   8.372  12.747  0.00  0.00    +0.000 C 
ATOM      2  C   UNL     1      49.292   7.338  11.929  0.00  0.00    +0.000 C 
ENDROOT
BRANCH   1   8
ATOM      3  C   UNL     1      48.421   9.885  17.558  0.00  0.00    +0.000 C 
ATOM      4  C   UNL     1      48.529   8.765  16.564  0.00  0.00    +0.000 A 
ATOM      5  C   UNL     1      48.734   7.443  16.986  0.00  0.00    +0.000 A 
ATOM      6  C   UNL     1      48.848   6.423  16.046  0.00  0.00    +0.000 A 
ATOM      7  C   UNL     1      48.740   6.715  14.682  0.00  0.00    +0.000 A 
ATOM      8  C   UNL     1      48.555   8.032  14.232  0.00  0.00    +0.000 A 
ATOM      9  C   UNL     1      48.441   9.049  15.191  0.00  0.00    +0.000 A 
BRANCH   6  10
ATOM     10  O   UNL     1      49.036   5.096  16.348  0.00  0.00    +0.000 OA
BRANCH  10  11
ATOM     11  C   UNL     1      47.889   4.213  16.379  0.00  0.00    +0.000 C 
ATOM     12  C   UNL     1      46.911   4.329  17.568  0.00  0.00    +0.000 C 
ATOM     13  N   UNL     1      46.925   2.861  17.723  0.00  0.00    +0.000 NA
ATOM     14  C   UNL     1      48.174   2.801  16.939  0.00  0.00    +0.000 C 
ATOM     15  H   UNL     1      46.139   2.389  17.276  0.00  0.00    +0.000 HD
ENDBRANCH  10  11
ENDBRANCH   6  10
ENDBRANCH   1   8
BRANCH   1  16
ATOM     16  C   UNL     1      47.062   8.518  12.240  0.00  0.00    +0.000 C 
BRANCH  16  17
ATOM     17  O   UNL     1      46.148   7.846  13.126  0.00  0.00    +0.000 OA
BRANCH  17  18
ATOM     18  C   UNL     1      45.673   6.665  12.588  0.00  0.00    +0.000 A 
ATOM     19  C   UNL     1      45.534   6.594  11.213  0.00  0.00    +0.000 A 
ATOM     20  C   UNL     1      45.060   5.403  10.653  0.00  0.00    +0.000 A 
ATOM     21  C   UNL     1      44.745   4.321  11.486  0.00  0.00    +0.000 A 
ATOM     22  C   UNL     1      44.919   4.502  12.849  0.00  0.00    +0.000 A 
ATOM     23  N   UNL     1      45.372   5.643  13.415  0.00  0.00    +0.000 NA
BRANCH  21  24
ATOM     24  C   UNL     1      44.247   3.056  10.895  0.00  0.00    +0.000 C 
ATOM     25  N   UNL     1      45.024   2.399   9.981  0.00  0.00    +0.000 N 
ATOM     26  O   UNL     1      43.154   2.599  11.212  0.00  0.00    +0.000 OA
ATOM     27  H   UNL     1      45.928   2.688   9.643  0.00  0.00    +0.000 HD
ATOM     28  H   UNL     1      44.643   1.541   9.599  0.00  0.00    +0.000 HD
ENDBRANCH  21  24
ENDBRANCH  17  18
ENDBRANCH  16  17
ENDBRANCH   1  16
TORSDOF 7
ENDMDL
MODEL 8
REMARK VINA RESULT:    -6.564      3.410      7.327
REMARK INTER + INTRA:         -10.195
REMARK INTER:                  -9.159
REMARK INTRA:                  -1.037
REMARK UNBOUND:                -0.946
REMARK  Name = 
REMARK  9 active torsions:
REMARK  status: ('A' for Active; 'I' for Inactive)
REMARK    1  A    between atoms: C_1  and  C_2
REMARK    2  A    between atoms: C_4  and  O_5
REMARK    3  A    between atoms: O_5  and  C_6
REMARK    4  A    between atoms: C_11  and  C_12
REMARK    5  A    between atoms: C_12  and  C_13
REMARK    6  A    between atoms: C_12  and  C_14
REMARK    7  A    between atoms: C_14  and  O_15
REMARK    8  A    between atoms: O_15  and  C_16
REMARK    9  A    between atoms: C_19  and  C_20
REMARK                            x       y       z     vdW  Elec       q    Type
REMARK                         _______ _______ _______ _____ _____    ______ ____
ROOT
ATOM      1  C   UNL     1      49.155   7.949  11.995  0.00  0.00    +0.000 C 
ATOM      2  C   UNL     1      49.660   9.396  11.930  0.00  0.00    +0.000 C 
ENDROOT
BRANCH   1   8
ATOM      3  C   UNL     1      44.686  10.288  12.023  0.00  0.00    +0.000 C 
ATOM      4  C   UNL     1      45.475   9.024  11.842  0.00  0.00    +0.000 A 
ATOM      5  C   UNL     1      44.833   7.805  11.575  0.00  0.00    +0.000 A 
ATOM      6  C   UNL     1      45.583   6.642  11.427  0.00  0.00    +0.000 A 
ATOM      7  C   UNL     1      46.977   6.693  11.527  0.00  0.00    +0.000 A 
ATOM      8  C   UNL     1      47.643   7.896  11.813  0.00  0.00    +0.000 A 
ATOM      9  C   UNL     1      46.875   9.059  11.959  0.00  0.00    +0.000 A 
BRANCH   6  10
ATOM     10  O   UNL     1      45.059   5.402  11.152  0.00  0.00    +0.000 OA
BRANCH  10  11
ATOM     11  C   UNL     1      44.700   4.531  12.251  0.00  0.00    +0.000 C 
ATOM     12  C   UNL     1      45.254   3.090  12.253  0.00  0.00    +0.000 C 
ATOM     13  N   UNL     1      43.908   2.573  12.572  0.00  0.00    +0.000 NA
ATOM     14  C   UNL     1      43.321   3.847  12.111  0.00  0.00    +0.000 C 
ATOM     15  H   UNL     1      43.759   2.390  13.564  0.00  0.00    +0.000 HD
ENDBRANCH  10  11
ENDBRANCH   6  10
ENDBRANCH   1   8
BRANCH   1  16
ATOM     16  C   UNL     1      49.599   7.252  13.293  0.00  0.00    +0.000 C 
BRANCH  16  17
ATOM     17  O   UNL     1      48.740   7.627  14.385  0.00  0.00    +0.000 OA
BRANCH  17  18
ATOM     18  C   UNL     1      48.450   6.559  15.212  0.00  0.00    +0.000 A 
ATOM     19  C   UNL     1      48.918   6.607  16.514  0.00  0.00    +0.000 A 
ATOM     20  C   UNL     1      48.628   5.536  17.365  0.00  0.00    +0.000 A 
ATOM     21  C   UNL     1      47.877   4.454  16.889  0.00  0.00    +0.000 A 
ATOM     22  C   UNL     1      47.462   4.507  15.568  0.00  0.00    +0.000 A 
ATOM     23  N   UNL     1      47.731   5.528  14.724  0.00  0.00    +0.000 NA
BRANCH  21  24
ATOM     24  C   UNL     1      47.564   3.320  17.790  0.00  0.00    +0.000 C 
ATOM     25  N   UNL     1      48.369   3.089  18.871  0.00  0.00    +0.000 N 
ATOM     26  O   UNL     1      46.601   2.591  17.577  0.00  0.00    +0.000 OA
ATOM     27  H   UNL     1      49.187   3.614  19.135  0.00  0.00    +0.000 HD
ATOM     28  H   UNL     1      48.121   2.301  19.458  0.00  0.00    +0.000 HD
ENDBRANCH  21  24
ENDBRANCH  17  18
ENDBRANCH  16  17
ENDBRANCH   1  16
TORSDOF 7
ENDMDL
MODEL 9
REMARK VINA RESULT:    -6.218      3.420      5.858
REMARK INTER + INTRA:          -9.709
REMARK INTER:                  -8.579
REMARK INTRA:                  -1.130
REMARK UNBOUND:                -0.946
REMARK  Name = 
REMARK  9 active torsions:
REMARK  status: ('A' for Active; 'I' for Inactive)
REMARK    1  A    between atoms: C_1  and  C_2
REMARK    2  A    between atoms: C_4  and  O_5
REMARK    3  A    between atoms: O_5  and  C_6
REMARK    4  A    between atoms: C_11  and  C_12
REMARK    5  A    between atoms: C_12  and  C_13
REMARK    6  A    between atoms: C_12  and  C_14
REMARK    7  A    between atoms: C_14  and  O_15
REMARK    8  A    between atoms: O_15  and  C_16
REMARK    9  A    between atoms: C_19  and  C_20
REMARK                            x       y       z     vdW  Elec       q    Type
REMARK                         _______ _______ _______ _____ _____    ______ ____
ROOT
ATOM      1  C   UNL     1      49.209   8.344  15.485  0.00  0.00    +0.000 C 
ATOM      2  C   UNL     1      50.549   7.796  14.978  0.00  0.00    +0.000 C 
ENDROOT
BRANCH   1   8
ATOM      3  C   UNL     1      47.438   8.680  20.196  0.00  0.00    +0.000 C 
ATOM      4  C   UNL     1      47.964   7.828  19.077  0.00  0.00    +0.000 A 
ATOM      5  C   UNL     1      48.145   6.447  19.247  0.00  0.00    +0.000 A 
ATOM      6  C   UNL     1      48.650   5.679  18.201  0.00  0.00    +0.000 A 
ATOM      7  C   UNL     1      48.960   6.282  16.978  0.00  0.00    +0.000 A 
ATOM      8  C   UNL     1      48.807   7.665  16.789  0.00  0.00    +0.000 A 
ATOM      9  C   UNL     1      48.296   8.426  17.850  0.00  0.00    +0.000 A 
BRANCH   6  10
ATOM     10  O   UNL     1      48.853   4.321  18.254  0.00  0.00    +0.000 OA
BRANCH  10  11
ATOM     11  C   UNL     1      49.301   3.632  17.062  0.00  0.00    +0.000 C 
ATOM     12  C   UNL     1      48.362   2.582  16.430  0.00  0.00    +0.000 C 
ATOM     13  N   UNL     1      49.491   1.636  16.323  0.00  0.00    +0.000 NA
ATOM     14  C   UNL     1      50.234   2.427  17.323  0.00  0.00    +0.000 C 
ATOM     15  H   UNL     1      49.933   1.620  15.404  0.00  0.00    +0.000 HD
ENDBRANCH  10  11
ENDBRANCH   6  10
ENDBRANCH   1   8
BRANCH   1  16
ATOM     16  C   UNL     1      48.107   8.226  14.417  0.00  0.00    +0.000 C 
BRANCH  16  17
ATOM     17  O   UNL     1      48.525   7.346  13.358  0.00  0.00    +0.000 OA
BRANCH  17  18
ATOM     18  C   UNL     1      47.586   6.368  13.091  0.00  0.00    +0.000 A 
ATOM     19  C   UNL     1      46.751   6.556  12.004  0.00  0.00    +0.000 A 
ATOM     20  C   UNL     1      45.799   5.572  11.718  0.00  0.00    +0.000 A 
ATOM     21  C   UNL     1      45.715   4.431  12.526  0.00  0.00    +0.000 A 
ATOM     22  C   UNL     1      46.597   4.346  13.591  0.00  0.00    +0.000 A 
ATOM     23  N   UNL     1      47.524   5.283  13.890  0.00  0.00    +0.000 NA
BRANCH  21  24
ATOM     24  C   UNL     1      44.710   3.385  12.222  0.00  0.00    +0.000 C 
ATOM     25  N   UNL     1      44.782   2.721  11.028  0.00  0.00    +0.000 N 
ATOM     26  O   UNL     1      43.821   3.112  13.021  0.00  0.00    +0.000 OA
ATOM     27  H   UNL     1      45.460   2.870  10.298  0.00  0.00    +0.000 HD
ATOM     28  H   UNL     1      44.073   2.018  10.860  0.00  0.00    +0.000 HD
ENDBRANCH  21  24
ENDBRANCH  17  18
ENDBRANCH  16  17
ENDBRANCH   1  16
TORSDOF 7
ENDMDL
