MODEL 1
REMARK VINA RESULT:    -7.469      0.000      0.000
REMARK INTER + INTRA:         -12.571
REMARK INTER:                 -11.399
REMARK INTRA:                  -1.172
REMARK UNBOUND:                -1.172
REMARK  Name = 
REMARK  9 active torsions:
REMARK  status: ('A' for Active; 'I' for Inactive)
REMARK    1  A    between atoms: C_2  and  C_3
REMARK    2  A    between atoms: C_3  and  N_4
REMARK    3  A    between atoms: N_4  and  C_5
REMARK    4  A    between atoms: N_4  and  C_26
REMARK    5  A    between atoms: C_5  and  C_6
REMARK    6  A    between atoms: C_9  and  C_10
REMARK    7  A    between atoms: C_10  and  N_11
REMARK    8  A    between atoms: C_12  and  C_14
REMARK    9  A    between atoms: C_26  and  C_27
REMARK                            x       y       z     vdW  Elec       q    Type
REMARK                         _______ _______ _______ _____ _____    ______ ____
ROOT
ATOM      1  C   UNL     1      46.000   4.355  12.740  0.00  0.00    +0.000 A 
ATOM      2  C   UNL     1      46.195   5.569  12.070  0.00  0.00    +0.000 A 
ATOM      3  C   UNL     1      47.034   6.541  12.605  0.00  0.00    +0.000 A 
ATOM      4  C   UNL     1      47.672   6.308  13.826  0.00  0.00    +0.000 A 
ATOM      5  C   UNL     1      47.291   5.203  14.595  0.00  0.00    +0.000 A 
ATOM      6  C   UNL     1      46.453   4.232  14.057  0.00  0.00    +0.000 A 
ENDROOT
BRANCH   1   7
ATOM      7  C   UNL     1      45.440   3.156  12.012  0.00  0.00    +0.000 C 
BRANCH   7   8
ATOM      8  N   UNL     1      44.402   3.455  10.987  0.00  0.00    +0.000 NA
BRANCH   8   9
ATOM      9  C   UNL     1      43.059   3.700  11.567  0.00  0.00    +0.000 C 
BRANCH   9  11
ATOM     10  N   UNL     1      42.362   6.247  11.598  0.00  0.00    +0.000 NA
ATOM     11  C   UNL     1      42.660   5.124  11.597  0.00  0.00    +0.000 C 
ENDBRANCH   9  11
ENDBRANCH   8   9
BRANCH   8  12
ATOM     12  C   UNL     1      44.274   2.422   9.924  0.00  0.00    +0.000 C 
BRANCH  12  13
ATOM     13  C   UNL     1      45.265   2.528   8.776  0.00  0.00    +0.000 A 
ATOM     14  C   UNL     1      45.523   3.755   8.167  0.00  0.00    +0.000 A 
ATOM     15  C   UNL     1      46.587   3.848   7.277  0.00  0.00    +0.000 A 
ATOM     16  C   UNL     1      47.324   2.711   6.972  0.00  0.00    +0.000 A 
ATOM     17  C   UNL     1      46.946   1.513   7.550  0.00  0.00    +0.000 A 
ATOM     18  N   UNL     1      45.939   1.397   8.441  0.00  0.00    +0.000 NA
ENDBRANCH  12  13
ENDBRANCH   8  12
ENDBRANCH   7   8
ENDBRANCH   1   7
BRANCH   4  19
ATOM     19  C   UNL     1      48.760   7.223  14.308  0.00  0.00    +0.000 C 
BRANCH  19  20
ATOM     20  N   UNL     1      48.763   7.287  15.735  0.00  0.00    +0.000 N 
ATOM     21  C   UNL     1      49.794   6.784  16.477  0.00  0.00    +0.000 C 
ATOM     22  O   UNL     1      50.802   6.302  15.970  0.00  0.00    +0.000 OA
ATOM     23  H   UNL     1      47.860   7.436  16.169  0.00  0.00    +0.000 HD
BRANCH  21  24
ATOM     24  C   UNL     1      49.644   6.931  17.927  0.00  0.00    +0.000 A 
ATOM     25  C   UNL     1      49.843   8.166  18.525  0.00  0.00    +0.000 A 
ATOM     26  S   UNL     1      49.496   8.172  20.195  0.00  0.00    +0.000 S 
ATOM     27  C   UNL     1      49.125   6.511  20.182  0.00  0.00    +0.000 A 
ATOM     28  N   UNL     1      48.733   5.869  21.315  0.00  0.00    +0.000 NA
ATOM     29  C   UNL     1      48.503   4.606  21.164  0.00  0.00    +0.000 A 
ATOM     30  N   UNL     1      48.637   3.924  19.985  0.00  0.00    +0.000 N 
ATOM     31  C   UNL     1      49.028   4.529  18.815  0.00  0.00    +0.000 A 
ATOM     32  O   UNL     1      49.138   3.886  17.778  0.00  0.00    +0.000 OA
ATOM     33  C   UNL     1      49.271   5.958  18.930  0.00  0.00    +0.000 A 
ATOM     34  H   UNL     1      48.449   2.933  19.930  0.00  0.00    +0.000 HD
ENDBRANCH  21  24
ENDBRANCH  19  20
ENDBRANCH   4  19
TORSDOF 9
ENDMDL
MODEL 2
REMARK VINA RESULT:    -7.358      1.719      2.062
REMARK INTER + INTRA:         -12.401
REMARK INTER:                 -11.304
REMARK INTRA:                  -1.097
REMARK UNBOUND:                -1.172
REMARK  Name = 
REMARK  9 active torsions:
REMARK  status: ('A' for Active; 'I' for Inactive)
REMARK    1  A    between atoms: C_2  and  C_3
REMARK    2  A    between atoms: C_3  and  N_4
REMARK    3  A    between atoms: N_4  and  C_5
REMARK    4  A    between atoms: N_4  and  C_26
REMARK    5  A    between atoms: C_5  and  C_6
REMARK    6  A    between atoms: C_9  and  C_10
REMARK    7  A    between atoms: C_10  and  N_11
REMARK    8  A    between atoms: C_12  and  C_14
REMARK    9  A    between atoms: C_26  and  C_27
REMARK                            x       y       z     vdW  Elec       q    Type
REMARK                         _______ _______ _______ _____ _____    ______ ____
ROOT
ATOM      1  C   UNL     1      46.226   4.897  12.288  0.00  0.00    +0.000 A 
ATOM      2  C   UNL     1      46.963   4.989  13.475  0.00  0.00    +0.000 A 
ATOM      3  C   UNL     1      47.462   6.217  13.897  0.00  0.00    +0.000 A 
ATOM      4  C   UNL     1      47.239   7.358  13.124  0.00  0.00    +0.000 A 
ATOM      5  C   UNL     1      46.711   7.217  11.835  0.00  0.00    +0.000 A 
ATOM      6  C   UNL     1      46.210   5.989  11.416  0.00  0.00    +0.000 A 
ENDROOT
BRANCH   1   7
ATOM      7  C   UNL     1      45.349   3.696  12.019  0.00  0.00    +0.000 C 
BRANCH   7   8
ATOM      8  N   UNL     1      44.509   3.776  10.793  0.00  0.00    +0.000 NA
BRANCH   8   9
ATOM      9  C   UNL     1      43.110   4.185  11.067  0.00  0.00    +0.000 C 
BRANCH   9  11
ATOM     10  N   UNL     1      42.737   5.172  13.488  0.00  0.00    +0.000 NA
ATOM     11  C   UNL     1      42.889   4.729  12.425  0.00  0.00    +0.000 C 
ENDBRANCH   9  11
ENDBRANCH   8   9
BRANCH   8  12
ATOM     12  C   UNL     1      44.484   2.529   9.982  0.00  0.00    +0.000 C 
BRANCH  12  13
ATOM     13  C   UNL     1      45.390   2.515   8.761  0.00  0.00    +0.000 A 
ATOM     14  C   UNL     1      45.636   3.683   8.042  0.00  0.00    +0.000 A 
ATOM     15  C   UNL     1      46.635   3.673   7.074  0.00  0.00    +0.000 A 
ATOM     16  C   UNL     1      47.315   2.492   6.807  0.00  0.00    +0.000 A 
ATOM     17  C   UNL     1      46.948   1.354   7.502  0.00  0.00    +0.000 A 
ATOM     18  N   UNL     1      46.006   1.340   8.468  0.00  0.00    +0.000 NA
ENDBRANCH  12  13
ENDBRANCH   8  12
ENDBRANCH   7   8
ENDBRANCH   1   7
BRANCH   4  19
ATOM     19  C   UNL     1      47.550   8.723  13.665  0.00  0.00    +0.000 C 
BRANCH  19  20
ATOM     20  N   UNL     1      47.416   8.739  15.087  0.00  0.00    +0.000 N 
ATOM     21  C   UNL     1      48.353   9.321  15.893  0.00  0.00    +0.000 C 
ATOM     22  O   UNL     1      49.332   9.914  15.450  0.00  0.00    +0.000 OA
ATOM     23  H   UNL     1      46.779   8.054  15.475  0.00  0.00    +0.000 HD
BRANCH  21  24
ATOM     24  C   UNL     1      48.067   9.252  17.328  0.00  0.00    +0.000 A 
ATOM     25  C   UNL     1      47.716  10.400  18.022  0.00  0.00    +0.000 A 
ATOM     26  S   UNL     1      47.293  10.103  19.648  0.00  0.00    +0.000 S 
ATOM     27  C   UNL     1      47.620   8.441  19.490  0.00  0.00    +0.000 A 
ATOM     28  N   UNL     1      47.448   7.588  20.535  0.00  0.00    +0.000 NA
ATOM     29  C   UNL     1      47.753   6.358  20.280  0.00  0.00    +0.000 A 
ATOM     30  N   UNL     1      48.222   5.904  19.077  0.00  0.00    +0.000 N 
ATOM     31  C   UNL     1      48.411   6.727  17.993  0.00  0.00    +0.000 A 
ATOM     32  O   UNL     1      48.834   6.285  16.931  0.00  0.00    +0.000 OA
ATOM     33  C   UNL     1      48.053   8.117  18.224  0.00  0.00    +0.000 A 
ATOM     34  H   UNL     1      48.451   4.930  18.939  0.00  0.00    +0.000 HD
ENDBRANCH  21  24
ENDBRANCH  19  20
ENDBRANCH   4  19
TORSDOF 9
ENDMDL
MODEL 3
REMARK VINA RESULT:    -7.326      1.837      2.622
REMARK INTER + INTRA:         -12.352
REMARK INTER:                 -11.471
REMARK INTRA:                  -0.880
REMARK UNBOUND:                -1.172
REMARK  Name = 
REMARK  9 active torsions:
REMARK  status: ('A' for Active; 'I' for Inactive)
REMARK    1  A    between atoms: C_2  and  C_3
REMARK    2  A    between atoms: C_3  and  N_4
REMARK    3  A    between atoms: N_4  and  C_5
REMARK    4  A    between atoms: N_4  and  C_26
REMARK    5  A    between atoms: C_5  and  C_6
REMARK    6  A    between atoms: C_9  and  C_10
REMARK    7  A    between atoms: C_10  and  N_11
REMARK    8  A    between atoms: C_12  and  C_14
REMARK    9  A    between atoms: C_26  and  C_27
REMARK                            x       y       z     vdW  Elec       q    Type
REMARK                         _______ _______ _______ _____ _____    ______ ____
ROOT
ATOM      1  C   UNL     1      46.484   6.929  11.474  0.00  0.00    +0.000 A 
ATOM      2  C   UNL     1      47.860   7.109  11.667  0.00  0.00    +0.000 A 
ATOM      3  C   UNL     1      48.326   7.863  12.738  0.00  0.00    +0.000 A 
ATOM      4  C   UNL     1      47.415   8.457  13.616  0.00  0.00    +0.000 A 
ATOM      5  C   UNL     1      46.056   8.468  13.283  0.00  0.00    +0.000 A 
ATOM      6  C   UNL     1      45.592   7.711  12.213  0.00  0.00    +0.000 A 
ENDROOT
BRANCH   1   7
ATOM      7  C   UNL     1      45.971   5.816  10.592  0.00  0.00    +0.000 C 
BRANCH   7   8
ATOM      8  N   UNL     1      44.518   5.516  10.717  0.00  0.00    +0.000 NA
BRANCH   8   9
ATOM      9  C   UNL     1      44.152   4.927  12.028  0.00  0.00    +0.000 C 
BRANCH   9  11
ATOM     10  N   UNL     1      45.848   3.119  12.937  0.00  0.00    +0.000 NA
ATOM     11  C   UNL     1      45.113   3.925  12.536  0.00  0.00    +0.000 C 
ENDBRANCH   9  11
ENDBRANCH   8   9
BRANCH   8  12
ATOM     12  C   UNL     1      43.976   4.643   9.641  0.00  0.00    +0.000 C 
BRANCH  12  13
ATOM     13  C   UNL     1      44.989   3.755   8.935  0.00  0.00    +0.000 A 
ATOM     14  C   UNL     1      45.069   2.394   9.226  0.00  0.00    +0.000 A 
ATOM     15  C   UNL     1      45.849   1.582   8.409  0.00  0.00    +0.000 A 
ATOM     16  C   UNL     1      46.571   2.152   7.369  0.00  0.00    +0.000 A 
ATOM     17  C   UNL     1      46.508   3.523   7.203  0.00  0.00    +0.000 A 
ATOM     18  N   UNL     1      45.736   4.333   7.959  0.00  0.00    +0.000 NA
ENDBRANCH  12  13
ENDBRANCH   8  12
ENDBRANCH   7   8
ENDBRANCH   1   7
BRANCH   4  19
ATOM     19  C   UNL     1      47.881   9.067  14.906  0.00  0.00    +0.000 C 
BRANCH  19  20
ATOM     20  N   UNL     1      48.098   8.054  15.889  0.00  0.00    +0.000 N 
ATOM     21  C   UNL     1      49.345   7.568  16.161  0.00  0.00    +0.000 C 
ATOM     22  O   UNL     1      50.358   8.008  15.626  0.00  0.00    +0.000 OA
ATOM     23  H   UNL     1      47.282   7.509  16.144  0.00  0.00    +0.000 HD
BRANCH  21  24
ATOM     24  C   UNL     1      49.396   6.532  17.196  0.00  0.00    +0.000 A 
ATOM     25  C   UNL     1      50.118   6.749  18.360  0.00  0.00    +0.000 A 
ATOM     26  S   UNL     1      49.953   5.491  19.500  0.00  0.00    +0.000 S 
ATOM     27  C   UNL     1      48.959   4.592  18.451  0.00  0.00    +0.000 A 
ATOM     28  N   UNL     1      48.451   3.387  18.824  0.00  0.00    +0.000 NA
ATOM     29  C   UNL     1      47.730   2.806  17.922  0.00  0.00    +0.000 A 
ATOM     30  N   UNL     1      47.477   3.316  16.677  0.00  0.00    +0.000 N 
ATOM     31  C   UNL     1      47.968   4.529  16.256  0.00  0.00    +0.000 A 
ATOM     32  O   UNL     1      47.722   4.954  15.133  0.00  0.00    +0.000 OA
ATOM     33  C   UNL     1      48.763   5.233  17.248  0.00  0.00    +0.000 A 
ATOM     34  H   UNL     1      46.911   2.812  16.010  0.00  0.00    +0.000 HD
ENDBRANCH  21  24
ENDBRANCH  19  20
ENDBRANCH   4  19
TORSDOF 9
ENDMDL
MODEL 4
REMARK VINA RESULT:    -7.268      1.972      2.273
REMARK INTER + INTRA:         -12.264
REMARK INTER:                 -11.066
REMARK INTRA:                  -1.197
REMARK UNBOUND:                -1.172
REMARK  Name = 
REMARK  9 active torsions:
REMARK  status: ('A' for Active; 'I' for Inactive)
REMARK    1  A    between atoms: C_2  and  C_3
REMARK    2  A    between atoms: C_3  and  N_4
REMARK    3  A    between atoms: N_4  and  C_5
REMARK    4  A    between atoms: N_4  and  C_26
REMARK    5  A    between atoms: C_5  and  C_6
REMARK    6  A    between atoms: C_9  and  C_10
REMARK    7  A    between atoms: C_10  and  N_11
REMARK    8  A    between atoms: C_12  and  C_14
REMARK    9  A    between atoms: C_26  and  C_27
REMARK                            x       y       z     vdW  Elec       q    Type
REMARK                         _______ _______ _______ _____ _____    ______ ____
ROOT
ATOM      1  C   UNL     1      46.029   4.719  12.466  0.00  0.00    +0.000 A 
ATOM      2  C   UNL     1      46.068   5.794  11.569  0.00  0.00    +0.000 A 
ATOM      3  C   UNL     1      46.957   6.845  11.770  0.00  0.00    +0.000 A 
ATOM      4  C   UNL     1      47.803   6.832  12.880  0.00  0.00    +0.000 A 
ATOM      5  C   UNL     1      47.595   5.882  13.887  0.00  0.00    +0.000 A 
ATOM      6  C   UNL     1      46.707   4.831  13.683  0.00  0.00    +0.000 A 
ENDROOT
BRANCH   1   7
ATOM      7  C   UNL     1      45.387   3.410  12.069  0.00  0.00    +0.000 C 
BRANCH   7   8
ATOM      8  N   UNL     1      44.390   3.492  10.967  0.00  0.00    +0.000 NA
BRANCH   8   9
ATOM      9  C   UNL     1      43.000   3.685  11.447  0.00  0.00    +0.000 C 
BRANCH   9  11
ATOM     10  N   UNL     1      42.291   6.208  11.772  0.00  0.00    +0.000 NA
ATOM     11  C   UNL     1      42.604   5.100  11.614  0.00  0.00    +0.000 C 
ENDBRANCH   9  11
ENDBRANCH   8   9
BRANCH   8  12
ATOM     12  C   UNL     1      44.409   2.333  10.034  0.00  0.00    +0.000 C 
BRANCH  12  13
ATOM     13  C   UNL     1      45.329   2.467   8.831  0.00  0.00    +0.000 A 
ATOM     14  C   UNL     1      45.542   3.706   8.230  0.00  0.00    +0.000 A 
ATOM     15  C   UNL     1      46.551   3.823   7.280  0.00  0.00    +0.000 A 
ATOM     16  C   UNL     1      47.277   2.697   6.912  0.00  0.00    +0.000 A 
ATOM     17  C   UNL     1      46.943   1.486   7.491  0.00  0.00    +0.000 A 
ATOM     18  N   UNL     1      45.991   1.347   8.438  0.00  0.00    +0.000 NA
ENDBRANCH  12  13
ENDBRANCH   8  12
ENDBRANCH   7   8
ENDBRANCH   1   7
BRANCH   4  19
ATOM     19  C   UNL     1      48.931   7.817  12.995  0.00  0.00    +0.000 C 
BRANCH  19  20
ATOM     20  N   UNL     1      49.979   7.283  13.807  0.00  0.00    +0.000 N 
ATOM     21  C   UNL     1      50.160   7.678  15.102  0.00  0.00    +0.000 C 
ATOM     22  O   UNL     1      49.405   8.465  15.666  0.00  0.00    +0.000 OA
ATOM     23  H   UNL     1      50.744   6.849  13.305  0.00  0.00    +0.000 HD
BRANCH  21  24
ATOM     24  C   UNL     1      51.278   7.036  15.796  0.00  0.00    +0.000 A 
ATOM     25  C   UNL     1      52.581   7.431  15.530  0.00  0.00    +0.000 A 
ATOM     26  S   UNL     1      53.735   6.667  16.526  0.00  0.00    +0.000 S 
ATOM     27  C   UNL     1      52.537   5.741  17.304  0.00  0.00    +0.000 A 
ATOM     28  N   UNL     1      52.856   4.866  18.294  0.00  0.00    +0.000 NA
ATOM     29  C   UNL     1      51.850   4.217  18.781  0.00  0.00    +0.000 A 
ATOM     30  N   UNL     1      50.554   4.356  18.363  0.00  0.00    +0.000 N 
ATOM     31  C   UNL     1      50.184   5.228  17.367  0.00  0.00    +0.000 A 
ATOM     32  O   UNL     1      49.013   5.326  17.017  0.00  0.00    +0.000 OA
ATOM     33  C   UNL     1      51.279   6.002  16.808  0.00  0.00    +0.000 A 
ATOM     34  H   UNL     1      49.810   3.815  18.777  0.00  0.00    +0.000 HD
ENDBRANCH  21  24
ENDBRANCH  19  20
ENDBRANCH   4  19
TORSDOF 9
ENDMDL
MODEL 5
REMARK VINA RESULT:    -7.016      3.536      8.977
REMARK INTER + INTRA:         -11.879
REMARK INTER:                 -10.504
REMARK INTRA:                  -1.375
REMARK UNBOUND:                -1.172
REMARK  Name = 
REMARK  9 active torsions:
REMARK  status: ('A' for Active; 'I' for Inactive)
REMARK    1  A    between atoms: C_2  and  C_3
REMARK    2  A    between atoms: C_3  and  N_4
REMARK    3  A    between atoms: N_4  and  C_5
REMARK    4  A    between atoms: N_4  and  C_26
REMARK    5  A    between atoms: C_5  and  C_6
REMARK    6  A    between atoms: C_9  and  C_10
REMARK    7  A    between atoms: C_10  and  N_11
REMARK    8  A    between atoms: C_12  and  C_14
REMARK    9  A    between atoms: C_26  and  C_27
REMARK                            x       y       z     vdW  Elec       q    Type
REMARK                         _______ _______ _______ _____ _____    ______ ____
ROOT
ATOM      1  C   UNL     1      49.353   7.671  16.033  0.00  0.00    +0.000 A 
ATOM      2  C   UNL     1      48.314   8.576  15.784  0.00  0.00    +0.000 A 
ATOM      3  C   UNL     1      47.830   8.750  14.492  0.00  0.00    +0.000 A 
ATOM      4  C   UNL     1      48.394   8.028  13.438  0.00  0.00    +0.000 A 
ATOM      5  C   UNL     1      49.575   7.310  13.658  0.00  0.00    +0.000 A 
ATOM      6  C   UNL     1      50.057   7.136  14.951  0.00  0.00    +0.000 A 
ENDROOT
BRANCH   1   7
ATOM      7  C   UNL     1      49.617   7.171  17.435  0.00  0.00    +0.000 C 
BRANCH   7   8
ATOM      8  N   UNL     1      49.222   5.760  17.698  0.00  0.00    +0.000 NA
BRANCH   8   9
ATOM      9  C   UNL     1      47.801   5.614  18.096  0.00  0.00    +0.000 C 
BRANCH   9  11
ATOM     10  N   UNL     1      46.638   3.398  17.251  0.00  0.00    +0.000 NA
ATOM     11  C   UNL     1      47.157   4.375  17.609  0.00  0.00    +0.000 C 
ENDBRANCH   9  11
ENDBRANCH   8   9
BRANCH   8  12
ATOM     12  C   UNL     1      50.067   5.064  18.706  0.00  0.00    +0.000 C 
BRANCH  12  13
ATOM     13  C   UNL     1      50.884   3.892  18.188  0.00  0.00    +0.000 A 
ATOM     14  C   UNL     1      52.252   3.807  18.444  0.00  0.00    +0.000 A 
ATOM     15  C   UNL     1      52.915   2.621  18.146  0.00  0.00    +0.000 A 
ATOM     16  C   UNL     1      52.216   1.580  17.549  0.00  0.00    +0.000 A 
ATOM     17  C   UNL     1      50.882   1.777  17.245  0.00  0.00    +0.000 A 
ATOM     18  N   UNL     1      50.204   2.903  17.550  0.00  0.00    +0.000 NA
ENDBRANCH  12  13
ENDBRANCH   8  12
ENDBRANCH   7   8
ENDBRANCH   1   7
BRANCH   4  19
ATOM     19  C   UNL     1      47.742   8.009  12.086  0.00  0.00    +0.000 C 
BRANCH  19  20
ATOM     20  N   UNL     1      47.027   6.787  11.892  0.00  0.00    +0.000 N 
ATOM     21  C   UNL     1      45.674   6.708  12.061  0.00  0.00    +0.000 C 
ATOM     22  O   UNL     1      44.982   7.686  12.328  0.00  0.00    +0.000 OA
ATOM     23  H   UNL     1      47.586   5.943  11.928  0.00  0.00    +0.000 HD
BRANCH  21  24
ATOM     24  C   UNL     1      45.095   5.384  11.823  0.00  0.00    +0.000 A 
ATOM     25  C   UNL     1      44.456   4.710  12.853  0.00  0.00    +0.000 A 
ATOM     26  S   UNL     1      43.732   3.248  12.356  0.00  0.00    +0.000 S 
ATOM     27  C   UNL     1      44.299   3.441  10.763  0.00  0.00    +0.000 A 
ATOM     28  N   UNL     1      44.017   2.523   9.800  0.00  0.00    +0.000 NA
ATOM     29  C   UNL     1      44.528   2.787   8.642  0.00  0.00    +0.000 A 
ATOM     30  N   UNL     1      45.302   3.880   8.361  0.00  0.00    +0.000 N 
ATOM     31  C   UNL     1      45.612   4.834   9.300  0.00  0.00    +0.000 A 
ATOM     32  O   UNL     1      46.309   5.800   9.012  0.00  0.00    +0.000 OA
ATOM     33  C   UNL     1      45.035   4.595  10.613  0.00  0.00    +0.000 A 
ATOM     34  H   UNL     1      45.680   4.029   7.437  0.00  0.00    +0.000 HD
ENDBRANCH  21  24
ENDBRANCH  19  20
ENDBRANCH   4  19
TORSDOF 9
ENDMDL
MODEL 6
REMARK VINA RESULT:    -6.892      2.740      3.325
REMARK INTER + INTRA:         -11.691
REMARK INTER:                 -10.781
REMARK INTRA:                  -0.910
REMARK UNBOUND:                -1.172
REMARK  Name = 
REMARK  9 active torsions:
REMARK  status: ('A' for Active; 'I' for Inactive)
REMARK    1  A    between atoms: C_2  and  C_3
REMARK    2  A    between atoms: C_3  and  N_4
REMARK    3  A    between atoms: N_4  and  C_5
REMARK    4  A    between atoms: N_4  and  C_26
REMARK    5  A    between atoms: C_5  and  C_6
REMARK    6  A    between atoms: C_9  and  C_10
REMARK    7  A    between atoms: C_10  and  N_11
REMARK    8  A    between atoms: C_12  and  C_14
REMARK    9  A    between atoms: C_26  and  C_27
REMARK                            x       y       z     vdW  Elec       q    Type
REMARK                         _______ _______ _______ _____ _____    ______ ____
ROOT
ATOM      1  C   UNL     1      46.391   4.471  13.273  0.00  0.00    +0.000 A 
ATOM      2  C   UNL     1      46.716   3.682  14.384  0.00  0.00    +0.000 A 
ATOM      3  C   UNL     1      47.514   4.196  15.400  0.00  0.00    +0.000 A 
ATOM      4  C   UNL     1      48.006   5.499  15.303  0.00  0.00    +0.000 A 
ATOM      5  C   UNL     1      47.873   6.190  14.093  0.00  0.00    +0.000 A 
ATOM      6  C   UNL     1      47.073   5.676  13.078  0.00  0.00    +0.000 A 
ENDROOT
BRANCH   1   7
ATOM      7  C   UNL     1      45.231   4.100  12.380  0.00  0.00    +0.000 C 
BRANCH   7   8
ATOM      8  N   UNL     1      44.790   5.157  11.428  0.00  0.00    +0.000 NA
BRANCH   8   9
ATOM      9  C   UNL     1      44.013   6.241  12.075  0.00  0.00    +0.000 C 
BRANCH   9  11
ATOM     10  N   UNL     1      44.504   8.665  11.148  0.00  0.00    +0.000 NA
ATOM     11  C   UNL     1      44.294   7.592  11.544  0.00  0.00    +0.000 C 
ENDBRANCH   9  11
ENDBRANCH   8   9
BRANCH   8  12
ATOM     12  C   UNL     1      44.014   4.650  10.264  0.00  0.00    +0.000 C 
BRANCH  12  13
ATOM     13  C   UNL     1      44.795   3.826   9.254  0.00  0.00    +0.000 A 
ATOM     14  C   UNL     1      45.575   4.445   8.279  0.00  0.00    +0.000 A 
ATOM     15  C   UNL     1      46.441   3.664   7.521  0.00  0.00    +0.000 A 
ATOM     16  C   UNL     1      46.463   2.288   7.711  0.00  0.00    +0.000 A 
ATOM     17  C   UNL     1      45.593   1.742   8.636  0.00  0.00    +0.000 A 
ATOM     18  N   UNL     1      44.765   2.476   9.409  0.00  0.00    +0.000 NA
ENDBRANCH  12  13
ENDBRANCH   8  12
ENDBRANCH   7   8
ENDBRANCH   1   7
BRANCH   4  19
ATOM     19  C   UNL     1      48.661   6.161  16.481  0.00  0.00    +0.000 C 
BRANCH  19  20
ATOM     20  N   UNL     1      49.824   5.434  16.879  0.00  0.00    +0.000 N 
ATOM     21  C   UNL     1      50.130   5.228  18.194  0.00  0.00    +0.000 C 
ATOM     22  O   UNL     1      49.401   5.598  19.110  0.00  0.00    +0.000 OA
ATOM     23  H   UNL     1      50.550   5.350  16.178  0.00  0.00    +0.000 HD
BRANCH  21  24
ATOM     24  C   UNL     1      51.356   4.462  18.434  0.00  0.00    +0.000 A 
ATOM     25  C   UNL     1      52.402   5.032  19.144  0.00  0.00    +0.000 A 
ATOM     26  S   UNL     1      53.687   3.949  19.436  0.00  0.00    +0.000 S 
ATOM     27  C   UNL     1      52.911   2.703  18.575  0.00  0.00    +0.000 A 
ATOM     28  N   UNL     1      53.480   1.475  18.447  0.00  0.00    +0.000 NA
ATOM     29  C   UNL     1      52.790   0.633  17.751  0.00  0.00    +0.000 A 
ATOM     30  N   UNL     1      51.585   0.909  17.163  0.00  0.00    +0.000 N 
ATOM     31  C   UNL     1      50.970   2.134  17.265  0.00  0.00    +0.000 A 
ATOM     32  O   UNL     1      49.891   2.346  16.724  0.00  0.00    +0.000 OA
ATOM     33  C   UNL     1      51.697   3.107  18.064  0.00  0.00    +0.000 A 
ATOM     34  H   UNL     1      51.094   0.212  16.623  0.00  0.00    +0.000 HD
ENDBRANCH  21  24
ENDBRANCH  19  20
ENDBRANCH   4  19
TORSDOF 9
ENDMDL
MODEL 7
REMARK VINA RESULT:    -6.862      3.550      9.519
REMARK INTER + INTRA:         -11.645
REMARK INTER:                  -9.239
REMARK INTRA:                  -2.406
REMARK UNBOUND:                -1.172
REMARK  Name = 
REMARK  9 active torsions:
REMARK  status: ('A' for Active; 'I' for Inactive)
REMARK    1  A    between atoms: C_2  and  C_3
REMARK    2  A    between atoms: C_3  and  N_4
REMARK    3  A    between atoms: N_4  and  C_5
REMARK    4  A    between atoms: N_4  and  C_26
REMARK    5  A    between atoms: C_5  and  C_6
REMARK    6  A    between atoms: C_9  and  C_10
REMARK    7  A    between atoms: C_10  and  N_11
REMARK    8  A    between atoms: C_12  and  C_14
REMARK    9  A    between atoms: C_26  and  C_27
REMARK                            x       y       z     vdW  Elec       q    Type
REMARK                         _______ _______ _______ _____ _____    ______ ____
ROOT
ATOM      1  C   UNL     1      48.398   5.753  20.239  0.00  0.00    +0.000 A 
ATOM      2  C   UNL     1      48.993   4.508  19.998  0.00  0.00    +0.000 A 
ATOM      3  C   UNL     1      48.653   3.776  18.866  0.00  0.00    +0.000 A 
ATOM      4  C   UNL     1      47.704   4.281  17.974  0.00  0.00    +0.000 A 
ATOM      5  C   UNL     1      46.951   5.402  18.340  0.00  0.00    +0.000 A 
ATOM      6  C   UNL     1      47.293   6.134  19.472  0.00  0.00    +0.000 A 
ENDROOT
BRANCH   1   7
ATOM      7  C   UNL     1      49.023   6.728  21.210  0.00  0.00    +0.000 C 
BRANCH   7   8
ATOM      8  N   UNL     1      50.392   7.196  20.859  0.00  0.00    +0.000 NA
BRANCH   8   9
ATOM      9  C   UNL     1      51.176   7.649  22.033  0.00  0.00    +0.000 C 
BRANCH   9  11
ATOM     10  N   UNL     1      53.755   7.099  21.876  0.00  0.00    +0.000 NA
ATOM     11  C   UNL     1      52.619   7.335  21.960  0.00  0.00    +0.000 C 
ENDBRANCH   9  11
ENDBRANCH   8   9
BRANCH   8  12
ATOM     12  C   UNL     1      50.430   8.266  19.826  0.00  0.00    +0.000 C 
BRANCH  12  13
ATOM     13  C   UNL     1      50.287   7.801  18.386  0.00  0.00    +0.000 A 
ATOM     14  C   UNL     1      51.035   6.728  17.905  0.00  0.00    +0.000 A 
ATOM     15  C   UNL     1      50.719   6.198  16.659  0.00  0.00    +0.000 A 
ATOM     16  C   UNL     1      49.713   6.785  15.903  0.00  0.00    +0.000 A 
ATOM     17  C   UNL     1      49.079   7.903  16.413  0.00  0.00    +0.000 A 
ATOM     18  N   UNL     1      49.342   8.421  17.631  0.00  0.00    +0.000 NA
ENDBRANCH  12  13
ENDBRANCH   8  12
ENDBRANCH   7   8
ENDBRANCH   1   7
BRANCH   4  19
ATOM     19  C   UNL     1      47.496   3.639  16.633  0.00  0.00    +0.000 C 
BRANCH  19  20
ATOM     20  N   UNL     1      46.972   4.586  15.701  0.00  0.00    +0.000 N 
ATOM     21  C   UNL     1      46.888   4.314  14.365  0.00  0.00    +0.000 C 
ATOM     22  O   UNL     1      47.198   3.226  13.890  0.00  0.00    +0.000 OA
ATOM     23  H   UNL     1      46.956   5.549  16.017  0.00  0.00    +0.000 HD
BRANCH  21  24
ATOM     24  C   UNL     1      46.327   5.391  13.546  0.00  0.00    +0.000 A 
ATOM     25  C   UNL     1      47.074   6.531  13.291  0.00  0.00    +0.000 A 
ATOM     26  S   UNL     1      46.309   7.611  12.214  0.00  0.00    +0.000 S 
ATOM     27  C   UNL     1      44.933   6.617  12.101  0.00  0.00    +0.000 A 
ATOM     28  N   UNL     1      43.879   6.961  11.314  0.00  0.00    +0.000 NA
ATOM     29  C   UNL     1      42.894   6.124  11.339  0.00  0.00    +0.000 A 
ATOM     30  N   UNL     1      42.864   4.977  12.087  0.00  0.00    +0.000 N 
ATOM     31  C   UNL     1      43.904   4.588  12.895  0.00  0.00    +0.000 A 
ATOM     32  O   UNL     1      43.842   3.554  13.551  0.00  0.00    +0.000 OA
ATOM     33  C   UNL     1      45.048   5.485  12.877  0.00  0.00    +0.000 A 
ATOM     34  H   UNL     1      42.062   4.364  12.071  0.00  0.00    +0.000 HD
ENDBRANCH  21  24
ENDBRANCH  19  20
ENDBRANCH   4  19
TORSDOF 9
ENDMDL
MODEL 8
REMARK VINA RESULT:    -6.624      3.349      9.059
REMARK INTER + INTRA:         -11.281
REMARK INTER:                  -9.738
REMARK INTRA:                  -1.543
REMARK UNBOUND:                -1.172
REMARK  Name = 
REMARK  9 active torsions:
REMARK  status: ('A' for Active; 'I' for Inactive)
REMARK    1  A    between atoms: C_2  and  C_3
REMARK    2  A    between atoms: C_3  and  N_4
REMARK    3  A    between atoms: N_4  and  C_5
REMARK    4  A    between atoms: N_4  and  C_26
REMARK    5  A    between atoms: C_5  and  C_6
REMARK    6  A    between atoms: C_9  and  C_10
REMARK    7  A    between atoms: C_10  and  N_11
REMARK    8  A    between atoms: C_12  and  C_14
REMARK    9  A    between atoms: C_26  and  C_27
REMARK                            x       y       z     vdW  Elec       q    Type
REMARK                         _______ _______ _______ _____ _____    ______ ____
ROOT
ATOM      1  C   UNL     1      49.309   7.916  15.910  0.00  0.00    +0.000 A 
ATOM      2  C   UNL     1      49.329   9.082  15.135  0.00  0.00    +0.000 A 
ATOM      3  C   UNL     1      48.807   9.078  13.846  0.00  0.00    +0.000 A 
ATOM      4  C   UNL     1      48.273   7.899  13.319  0.00  0.00    +0.000 A 
ATOM      5  C   UNL     1      48.468   6.695  14.006  0.00  0.00    +0.000 A 
ATOM      6  C   UNL     1      48.989   6.702  15.295  0.00  0.00    +0.000 A 
ENDROOT
BRANCH   1   7
ATOM      7  C   UNL     1      49.488   7.985  17.409  0.00  0.00    +0.000 C 
BRANCH   7   8
ATOM      8  N   UNL     1      48.394   7.376  18.215  0.00  0.00    +0.000 NA
BRANCH   8   9
ATOM      9  C   UNL     1      47.731   8.338  19.127  0.00  0.00    +0.000 C 
BRANCH   9  11
ATOM     10  N   UNL     1      47.363   7.418  21.575  0.00  0.00    +0.000 NA
ATOM     11  C   UNL     1      47.533   7.835  20.504  0.00  0.00    +0.000 C 
ENDBRANCH   9  11
ENDBRANCH   8   9
BRANCH   8  12
ATOM     12  C   UNL     1      48.805   6.184  19.005  0.00  0.00    +0.000 C 
BRANCH  12  13
ATOM     13  C   UNL     1      48.639   4.841  18.313  0.00  0.00    +0.000 A 
ATOM     14  C   UNL     1      47.409   4.459  17.782  0.00  0.00    +0.000 A 
ATOM     15  C   UNL     1      47.353   3.331  16.971  0.00  0.00    +0.000 A 
ATOM     16  C   UNL     1      48.504   2.582  16.761  0.00  0.00    +0.000 A 
ATOM     17  C   UNL     1      49.666   2.978  17.398  0.00  0.00    +0.000 A 
ATOM     18  N   UNL     1      49.758   4.085  18.164  0.00  0.00    +0.000 NA
ENDBRANCH  12  13
ENDBRANCH   8  12
ENDBRANCH   7   8
ENDBRANCH   1   7
BRANCH   4  19
ATOM     19  C   UNL     1      47.489   7.919  12.039  0.00  0.00    +0.000 C 
BRANCH  19  20
ATOM     20  N   UNL     1      46.823   6.671  11.842  0.00  0.00    +0.000 N 
ATOM     21  C   UNL     1      45.461   6.569  11.862  0.00  0.00    +0.000 C 
ATOM     22  O   UNL     1      44.726   7.544  11.989  0.00  0.00    +0.000 OA
ATOM     23  H   UNL     1      47.388   5.843  11.993  0.00  0.00    +0.000 HD
BRANCH  21  24
ATOM     24  C   UNL     1      44.935   5.220  11.643  0.00  0.00    +0.000 A 
ATOM     25  C   UNL     1      44.281   4.554  12.668  0.00  0.00    +0.000 A 
ATOM     26  S   UNL     1      43.625   3.054  12.189  0.00  0.00    +0.000 S 
ATOM     27  C   UNL     1      44.245   3.221  10.612  0.00  0.00    +0.000 A 
ATOM     28  N   UNL     1      44.031   2.267   9.668  0.00  0.00    +0.000 NA
ATOM     29  C   UNL     1      44.576   2.514   8.522  0.00  0.00    +0.000 A 
ATOM     30  N   UNL     1      45.324   3.625   8.237  0.00  0.00    +0.000 N 
ATOM     31  C   UNL     1      45.566   4.616   9.158  0.00  0.00    +0.000 A 
ATOM     32  O   UNL     1      46.241   5.597   8.868  0.00  0.00    +0.000 OA
ATOM     33  C   UNL     1      44.948   4.395  10.455  0.00  0.00    +0.000 A 
ATOM     34  H   UNL     1      45.731   3.761   7.324  0.00  0.00    +0.000 HD
ENDBRANCH  21  24
ENDBRANCH  19  20
ENDBRANCH   4  19
TORSDOF 9
ENDMDL
MODEL 9
REMARK VINA RESULT:    -6.299      3.231      9.759
REMARK INTER + INTRA:         -10.785
REMARK INTER:                  -8.508
REMARK INTRA:                  -2.277
REMARK UNBOUND:                -1.172
REMARK  Name = 
REMARK  9 active torsions:
REMARK  status: ('A' for Active; 'I' for Inactive)
REMARK    1  A    between atoms: C_2  and  C_3
REMARK    2  A    between atoms: C_3  and  N_4
REMARK    3  A    between atoms: N_4  and  C_5
REMARK    4  A    between atoms: N_4  and  C_26
REMARK    5  A    between atoms: C_5  and  C_6
REMARK    6  A    between atoms: C_9  and  C_10
REMARK    7  A    between atoms: C_10  and  N_11
REMARK    8  A    between atoms: C_12  and  C_14
REMARK    9  A    between atoms: C_26  and  C_27
REMARK                            x       y       z     vdW  Elec       q    Type
REMARK                         _______ _______ _______ _____ _____    ______ ____
ROOT
ATOM      1  C   UNL     1      50.068   5.137  18.544  0.00  0.00    +0.000 A 
ATOM      2  C   UNL     1      51.110   5.616  17.741  0.00  0.00    +0.000 A 
ATOM      3  C   UNL     1      50.832   6.373  16.607  0.00  0.00    +0.000 A 
ATOM      4  C   UNL     1      49.505   6.642  16.263  0.00  0.00    +0.000 A 
ATOM      5  C   UNL     1      48.477   5.967  16.932  0.00  0.00    +0.000 A 
ATOM      6  C   UNL     1      48.757   5.213  18.065  0.00  0.00    +0.000 A 
ENDROOT
BRANCH   1   7
ATOM      7  C   UNL     1      50.337   4.676  19.957  0.00  0.00    +0.000 C 
BRANCH   7   8
ATOM      8  N   UNL     1      51.193   5.580  20.775  0.00  0.00    +0.000 NA
BRANCH   8   9
ATOM      9  C   UNL     1      52.090   4.854  21.706  0.00  0.00    +0.000 C 
BRANCH   9  11
ATOM     10  N   UNL     1      53.780   3.189  20.544  0.00  0.00    +0.000 NA
ATOM     11  C   UNL     1      53.037   3.931  21.043  0.00  0.00    +0.000 C 
ENDBRANCH   9  11
ENDBRANCH   8   9
BRANCH   8  12
ATOM     12  C   UNL     1      50.440   6.604  21.549  0.00  0.00    +0.000 C 
BRANCH  12  13
ATOM     13  C   UNL     1      49.660   7.615  20.725  0.00  0.00    +0.000 A 
ATOM     14  C   UNL     1      50.317   8.505  19.879  0.00  0.00    +0.000 A 
ATOM     15  C   UNL     1      49.563   9.258  18.985  0.00  0.00    +0.000 A 
ATOM     16  C   UNL     1      48.178   9.150  19.000  0.00  0.00    +0.000 A 
ATOM     17  C   UNL     1      47.598   8.311  19.934  0.00  0.00    +0.000 A 
ATOM     18  N   UNL     1      48.304   7.544  20.791  0.00  0.00    +0.000 NA
ENDBRANCH  12  13
ENDBRANCH   8  12
ENDBRANCH   7   8
ENDBRANCH   1   7
BRANCH   4  19
ATOM     19  C   UNL     1      49.179   7.647  15.197  0.00  0.00    +0.000 C 
BRANCH  19  20
ATOM     20  N   UNL     1      47.960   7.299  14.538  0.00  0.00    +0.000 N 
ATOM     21  C   UNL     1      47.948   6.597  13.366  0.00  0.00    +0.000 C 
ATOM     22  O   UNL     1      48.972   6.172  12.839  0.00  0.00    +0.000 OA
ATOM     23  H   UNL     1      47.147   7.843  14.803  0.00  0.00    +0.000 HD
BRANCH  21  24
ATOM     24  C   UNL     1      46.617   6.321  12.821  0.00  0.00    +0.000 A 
ATOM     25  C   UNL     1      45.840   7.357  12.327  0.00  0.00    +0.000 A 
ATOM     26  S   UNL     1      44.382   6.828  11.616  0.00  0.00    +0.000 S 
ATOM     27  C   UNL     1      44.718   5.203  11.997  0.00  0.00    +0.000 A 
ATOM     28  N   UNL     1      43.860   4.208  11.651  0.00  0.00    +0.000 NA
ATOM     29  C   UNL     1      44.232   3.026  12.020  0.00  0.00    +0.000 A 
ATOM     30  N   UNL     1      45.380   2.750  12.712  0.00  0.00    +0.000 N 
ATOM     31  C   UNL     1      46.278   3.722  13.083  0.00  0.00    +0.000 A 
ATOM     32  O   UNL     1      47.296   3.438  13.703  0.00  0.00    +0.000 OA
ATOM     33  C   UNL     1      45.916   5.066  12.663  0.00  0.00    +0.000 A 
ATOM     34  H   UNL     1      45.615   1.805  12.981  0.00  0.00    +0.000 HD
ENDBRANCH  21  24
ENDBRANCH  19  20
ENDBRANCH   4  19
TORSDOF 9
ENDMDL
