MODEL 1
REMARK VINA RESULT:    -8.171      0.000      0.000
REMARK INTER + INTRA:         -11.805
REMARK INTER:                 -11.037
REMARK INTRA:                  -0.768
REMARK UNBOUND:                -0.768
REMARK  Name = 
REMARK  6 active torsions:
REMARK  status: ('A' for Active; 'I' for Inactive)
REMARK    1  A    between atoms: C_2  and  C_4
REMARK    2  A    between atoms: N_8  and  C_9
REMARK    3  A    between atoms: C_9  and  C_10
REMARK    4  A    between atoms: C_10  and  C_11
REMARK    5  A    between atoms: C_15  and  C_16
REMARK    6  A    between atoms: C_16  and  C_17
REMARK                            x       y       z     vdW  Elec       q    Type
REMARK                         _______ _______ _______ _____ _____    ______ ____
ROOT
ATOM      1  C   UNL     1      46.640   2.490   7.502  0.00  0.00    +0.000 A 
ATOM      2  C   UNL     1      45.855   1.797   8.415  0.00  0.00    +0.000 A 
ATOM      3  C   UNL     1      44.895   2.494   9.146  0.00  0.00    +0.000 A 
ATOM      4  C   UNL     1      44.751   3.867   8.974  0.00  0.00    +0.000 A 
ATOM      5  N   UNL     1      43.751   4.606   9.590  0.00  0.00    +0.000 N 
ATOM      6  N   UNL     1      45.542   4.557   8.125  0.00  0.00    +0.000 NA
ATOM      7  C   UNL     1      46.470   3.862   7.412  0.00  0.00    +0.000 A 
ATOM      8  H   UNL     1      43.963   5.588   9.440  0.00  0.00    +0.000 HD
ENDROOT
BRANCH   1  10
ATOM      9  N   UNL     1      48.815   2.443   6.438  0.00  0.00    +0.000 N 
ATOM     10  C   UNL     1      47.617   1.814   6.627  0.00  0.00    +0.000 C 
ATOM     11  O   UNL     1      47.385   0.718   6.134  0.00  0.00    +0.000 OA
ATOM     12  H   UNL     1      49.526   1.920   5.937  0.00  0.00    +0.000 HD
ATOM     13  H   UNL     1      49.129   3.202   7.024  0.00  0.00    +0.000 HD
ENDBRANCH   1  10
BRANCH   5  14
ATOM     14  C   UNL     1      43.331   4.219  10.927  0.00  0.00    +0.000 C 
BRANCH  14  15
ATOM     15  C   UNL     1      43.470   5.383  11.911  0.00  0.00    +0.000 C 
BRANCH  15  16
ATOM     16  C   UNL     1      44.906   5.497  12.368  0.00  0.00    +0.000 A 
ATOM     17  C   UNL     1      45.707   6.559  11.935  0.00  0.00    +0.000 A 
ATOM     18  C   UNL     1      47.009   6.700  12.414  0.00  0.00    +0.000 A 
ATOM     19  C   UNL     1      47.516   5.786  13.341  0.00  0.00    +0.000 A 
ATOM     20  C   UNL     1      46.729   4.719  13.794  0.00  0.00    +0.000 A 
ATOM     21  C   UNL     1      45.426   4.583  13.300  0.00  0.00    +0.000 A 
BRANCH  20  22
ATOM     22  C   UNL     1      47.271   3.734  14.806  0.00  0.00    +0.000 C 
BRANCH  22  23
ATOM     23  C   UNL     1      47.221   4.311  16.213  0.00  0.00    +0.000 C 
ATOM     24  C   UNL     1      48.521   4.820  16.852  0.00  0.00    +0.000 C 
ATOM     25  O   UNL     1      48.412   3.881  17.946  0.00  0.00    +0.000 OA
ATOM     26  C   UNL     1      47.249   3.270  17.345  0.00  0.00    +0.000 C 
ENDBRANCH  22  23
ENDBRANCH  20  22
ENDBRANCH  15  16
ENDBRANCH  14  15
ENDBRANCH   5  14
TORSDOF 6
ENDMDL
MODEL 2
REMARK VINA RESULT:    -7.891      2.215      3.376
REMARK INTER + INTRA:         -11.427
REMARK INTER:                 -10.565
REMARK INTRA:                  -0.861
REMARK UNBOUND:                -0.768
REMARK  Name = 
REMARK  6 active torsions:
REMARK  status: ('A' for Active; 'I' for Inactive)
REMARK    1  A    between atoms: C_2  and  C_4
REMARK    2  A    between atoms: N_8  and  C_9
REMARK    3  A    between atoms: C_9  and  C_10
REMARK    4  A    between atoms: C_10  and  C_11
REMARK    5  A    between atoms: C_15  and  C_16
REMARK    6  A    between atoms: C_16  and  C_17
REMARK                            x       y       z     vdW  Elec       q    Type
REMARK                         _______ _______ _______ _____ _____    ______ ____
ROOT
ATOM      1  C   UNL     1      46.612   2.458   7.517  0.00  0.00    +0.000 A 
ATOM      2  C   UNL     1      45.809   1.799   8.442  0.00  0.00    +0.000 A 
ATOM      3  C   UNL     1      44.866   2.532   9.160  0.00  0.00    +0.000 A 
ATOM      4  C   UNL     1      44.756   3.905   8.965  0.00  0.00    +0.000 A 
ATOM      5  N   UNL     1      43.774   4.678   9.567  0.00  0.00    +0.000 N 
ATOM      6  N   UNL     1      45.564   4.561   8.105  0.00  0.00    +0.000 NA
ATOM      7  C   UNL     1      46.475   3.832   7.405  0.00  0.00    +0.000 A 
ATOM      8  H   UNL     1      44.010   5.652   9.401  0.00  0.00    +0.000 HD
ENDROOT
BRANCH   1  10
ATOM      9  N   UNL     1      48.735   2.396   6.354  0.00  0.00    +0.000 N 
ATOM     10  C   UNL     1      47.572   1.743   6.655  0.00  0.00    +0.000 C 
ATOM     11  O   UNL     1      47.359   0.602   6.268  0.00  0.00    +0.000 OA
ATOM     12  H   UNL     1      49.441   1.856   5.864  0.00  0.00    +0.000 HD
ATOM     13  H   UNL     1      49.046   3.213   6.857  0.00  0.00    +0.000 HD
ENDBRANCH   1  10
BRANCH   5  14
ATOM     14  C   UNL     1      43.344   4.324  10.911  0.00  0.00    +0.000 C 
BRANCH  14  15
ATOM     15  C   UNL     1      43.480   5.511  11.868  0.00  0.00    +0.000 C 
BRANCH  15  16
ATOM     16  C   UNL     1      44.832   5.472  12.541  0.00  0.00    +0.000 A 
ATOM     17  C   UNL     1      45.353   4.265  13.020  0.00  0.00    +0.000 A 
ATOM     18  C   UNL     1      46.630   4.221  13.577  0.00  0.00    +0.000 A 
ATOM     19  C   UNL     1      47.403   5.382  13.647  0.00  0.00    +0.000 A 
ATOM     20  C   UNL     1      46.905   6.600  13.167  0.00  0.00    +0.000 A 
ATOM     21  C   UNL     1      45.617   6.634  12.617  0.00  0.00    +0.000 A 
BRANCH  20  22
ATOM     22  C   UNL     1      47.744   7.858  13.230  0.00  0.00    +0.000 C 
BRANCH  22  23
ATOM     23  C   UNL     1      48.511   8.071  11.933  0.00  0.00    +0.000 C 
ATOM     24  C   UNL     1      50.040   7.929  11.944  0.00  0.00    +0.000 C 
ATOM     25  O   UNL     1      50.221   9.294  11.503  0.00  0.00    +0.000 OA
ATOM     26  C   UNL     1      48.800   9.540  11.582  0.00  0.00    +0.000 C 
ENDBRANCH  22  23
ENDBRANCH  20  22
ENDBRANCH  15  16
ENDBRANCH  14  15
ENDBRANCH   5  14
TORSDOF 6
ENDMDL
MODEL 3
REMARK VINA RESULT:    -7.325      2.247      2.644
REMARK INTER + INTRA:         -10.662
REMARK INTER:                  -9.680
REMARK INTRA:                  -0.982
REMARK UNBOUND:                -0.768
REMARK  Name = 
REMARK  6 active torsions:
REMARK  status: ('A' for Active; 'I' for Inactive)
REMARK    1  A    between atoms: C_2  and  C_4
REMARK    2  A    between atoms: N_8  and  C_9
REMARK    3  A    between atoms: C_9  and  C_10
REMARK    4  A    between atoms: C_10  and  C_11
REMARK    5  A    between atoms: C_15  and  C_16
REMARK    6  A    between atoms: C_16  and  C_17
REMARK                            x       y       z     vdW  Elec       q    Type
REMARK                         _______ _______ _______ _____ _____    ______ ____
ROOT
ATOM      1  C   UNL     1      46.395   2.790   7.367  0.00  0.00    +0.000 A 
ATOM      2  C   UNL     1      45.899   3.984   7.877  0.00  0.00    +0.000 A 
ATOM      3  C   UNL     1      45.160   3.958   9.058  0.00  0.00    +0.000 A 
ATOM      4  C   UNL     1      44.908   2.748   9.695  0.00  0.00    +0.000 A 
ATOM      5  N   UNL     1      44.269   2.658  10.923  0.00  0.00    +0.000 N 
ATOM      6  N   UNL     1      45.344   1.578   9.181  0.00  0.00    +0.000 NA
ATOM      7  C   UNL     1      46.071   1.619   8.032  0.00  0.00    +0.000 A 
ATOM      8  H   UNL     1      44.059   1.678  11.086  0.00  0.00    +0.000 HD
ENDROOT
BRANCH   1  10
ATOM      9  N   UNL     1      48.605   2.632   6.388  0.00  0.00    +0.000 N 
ATOM     10  C   UNL     1      47.259   2.740   6.173  0.00  0.00    +0.000 C 
ATOM     11  O   UNL     1      46.791   2.746   5.042  0.00  0.00    +0.000 OA
ATOM     12  H   UNL     1      49.182   2.477   5.569  0.00  0.00    +0.000 HD
ATOM     13  H   UNL     1      48.993   2.369   7.282  0.00  0.00    +0.000 HD
ENDBRANCH   1  10
BRANCH   5  14
ATOM     14  C   UNL     1      43.217   3.616  11.226  0.00  0.00    +0.000 C 
BRANCH  14  15
ATOM     15  C   UNL     1      43.501   4.357  12.535  0.00  0.00    +0.000 C 
BRANCH  15  16
ATOM     16  C   UNL     1      44.533   5.436  12.298  0.00  0.00    +0.000 A 
ATOM     17  C   UNL     1      44.187   6.615  11.630  0.00  0.00    +0.000 A 
ATOM     18  C   UNL     1      45.121   7.637  11.476  0.00  0.00    +0.000 A 
ATOM     19  C   UNL     1      46.408   7.494  12.001  0.00  0.00    +0.000 A 
ATOM     20  C   UNL     1      46.774   6.325  12.680  0.00  0.00    +0.000 A 
ATOM     21  C   UNL     1      45.829   5.301  12.822  0.00  0.00    +0.000 A 
BRANCH  20  22
ATOM     22  C   UNL     1      48.163   6.171  13.259  0.00  0.00    +0.000 C 
BRANCH  22  23
ATOM     23  C   UNL     1      48.517   7.349  14.155  0.00  0.00    +0.000 C 
ATOM     24  C   UNL     1      49.590   8.342  13.685  0.00  0.00    +0.000 C 
ATOM     25  O   UNL     1      50.421   8.068  14.835  0.00  0.00    +0.000 OA
ATOM     26  C   UNL     1      49.516   7.034  15.280  0.00  0.00    +0.000 C 
ENDBRANCH  22  23
ENDBRANCH  20  22
ENDBRANCH  15  16
ENDBRANCH  14  15
ENDBRANCH   5  14
TORSDOF 6
ENDMDL
MODEL 4
REMARK VINA RESULT:    -7.071      3.047      8.250
REMARK INTER + INTRA:         -10.319
REMARK INTER:                  -9.738
REMARK INTRA:                  -0.582
REMARK UNBOUND:                -0.768
REMARK  Name = 
REMARK  6 active torsions:
REMARK  status: ('A' for Active; 'I' for Inactive)
REMARK    1  A    between atoms: C_2  and  C_4
REMARK    2  A    between atoms: N_8  and  C_9
REMARK    3  A    between atoms: C_9  and  C_10
REMARK    4  A    between atoms: C_10  and  C_11
REMARK    5  A    between atoms: C_15  and  C_16
REMARK    6  A    between atoms: C_16  and  C_17
REMARK                            x       y       z     vdW  Elec       q    Type
REMARK                         _______ _______ _______ _____ _____    ______ ____
ROOT
ATOM      1  C   UNL     1      48.278   4.579  16.670  0.00  0.00    +0.000 A 
ATOM      2  C   UNL     1      47.269   3.942  15.955  0.00  0.00    +0.000 A 
ATOM      3  C   UNL     1      46.871   4.474  14.731  0.00  0.00    +0.000 A 
ATOM      4  C   UNL     1      47.463   5.638  14.252  0.00  0.00    +0.000 A 
ATOM      5  N   UNL     1      47.190   6.165  12.998  0.00  0.00    +0.000 N 
ATOM      6  N   UNL     1      48.408   6.290  14.961  0.00  0.00    +0.000 NA
ATOM      7  C   UNL     1      48.793   5.756  16.152  0.00  0.00    +0.000 A 
ATOM      8  H   UNL     1      47.611   7.089  12.958  0.00  0.00    +0.000 HD
ENDROOT
BRANCH   1  10
ATOM      9  N   UNL     1      48.183   4.402  19.083  0.00  0.00    +0.000 N 
ATOM     10  C   UNL     1      48.818   4.034  17.930  0.00  0.00    +0.000 C 
ATOM     11  O   UNL     1      49.757   3.250  17.938  0.00  0.00    +0.000 OA
ATOM     12  H   UNL     1      48.480   3.931  19.931  0.00  0.00    +0.000 HD
ATOM     13  H   UNL     1      47.268   4.827  19.088  0.00  0.00    +0.000 HD
ENDBRANCH   1  10
BRANCH   5  14
ATOM     14  C   UNL     1      45.840   6.033  12.472  0.00  0.00    +0.000 C 
BRANCH  14  15
ATOM     15  C   UNL     1      45.817   6.206  10.952  0.00  0.00    +0.000 C 
BRANCH  15  16
ATOM     16  C   UNL     1      45.452   4.895  10.294  0.00  0.00    +0.000 A 
ATOM     17  C   UNL     1      44.708   3.935  10.988  0.00  0.00    +0.000 A 
ATOM     18  C   UNL     1      44.313   2.757  10.354  0.00  0.00    +0.000 A 
ATOM     19  C   UNL     1      44.648   2.536   9.017  0.00  0.00    +0.000 A 
ATOM     20  C   UNL     1      45.387   3.487   8.300  0.00  0.00    +0.000 A 
ATOM     21  C   UNL     1      45.785   4.663   8.949  0.00  0.00    +0.000 A 
BRANCH  20  22
ATOM     22  C   UNL     1      45.742   3.256   6.848  0.00  0.00    +0.000 C 
BRANCH  22  23
ATOM     23  C   UNL     1      47.188   2.805   6.702  0.00  0.00    +0.000 C 
ATOM     24  C   UNL     1      47.707   2.416   5.311  0.00  0.00    +0.000 C 
ATOM     25  O   UNL     1      48.026   1.075   5.748  0.00  0.00    +0.000 OA
ATOM     26  C   UNL     1      47.447   1.329   7.047  0.00  0.00    +0.000 C 
ENDBRANCH  22  23
ENDBRANCH  20  22
ENDBRANCH  15  16
ENDBRANCH  14  15
ENDBRANCH   5  14
TORSDOF 6
ENDMDL
MODEL 5
REMARK VINA RESULT:    -6.816      3.105      4.534
REMARK INTER + INTRA:          -9.975
REMARK INTER:                  -9.427
REMARK INTRA:                  -0.548
REMARK UNBOUND:                -0.768
REMARK  Name = 
REMARK  6 active torsions:
REMARK  status: ('A' for Active; 'I' for Inactive)
REMARK    1  A    between atoms: C_2  and  C_4
REMARK    2  A    between atoms: N_8  and  C_9
REMARK    3  A    between atoms: C_9  and  C_10
REMARK    4  A    between atoms: C_10  and  C_11
REMARK    5  A    between atoms: C_15  and  C_16
REMARK    6  A    between atoms: C_16  and  C_17
REMARK                            x       y       z     vdW  Elec       q    Type
REMARK                         _______ _______ _______ _____ _____    ______ ____
ROOT
ATOM      1  C   UNL     1      46.709   2.119   6.840  0.00  0.00    +0.000 A 
ATOM      2  C   UNL     1      46.309   3.414   7.149  0.00  0.00    +0.000 A 
ATOM      3  C   UNL     1      45.627   3.642   8.342  0.00  0.00    +0.000 A 
ATOM      4  C   UNL     1      45.334   2.580   9.190  0.00  0.00    +0.000 A 
ATOM      5  N   UNL     1      44.750   2.746  10.438  0.00  0.00    +0.000 N 
ATOM      6  N   UNL     1      45.675   1.312   8.875  0.00  0.00    +0.000 NA
ATOM      7  C   UNL     1      46.348   1.105   7.711  0.00  0.00    +0.000 A 
ATOM      8  H   UNL     1      44.490   1.824  10.777  0.00  0.00    +0.000 HD
ENDROOT
BRANCH   1  10
ATOM      9  N   UNL     1      48.249   2.827   5.109  0.00  0.00    +0.000 N 
ATOM     10  C   UNL     1      47.511   1.807   5.641  0.00  0.00    +0.000 C 
ATOM     11  O   UNL     1      47.554   0.676   5.175  0.00  0.00    +0.000 OA
ATOM     12  H   UNL     1      48.889   2.579   4.362  0.00  0.00    +0.000 HD
ATOM     13  H   UNL     1      48.434   3.683   5.610  0.00  0.00    +0.000 HD
ENDBRANCH   1  10
BRANCH   5  14
ATOM     14  C   UNL     1      43.773   3.810  10.607  0.00  0.00    +0.000 C 
BRANCH  14  15
ATOM     15  C   UNL     1      43.628   4.202  12.079  0.00  0.00    +0.000 C 
BRANCH  15  16
ATOM     16  C   UNL     1      44.697   5.205  12.448  0.00  0.00    +0.000 A 
ATOM     17  C   UNL     1      46.001   4.782  12.728  0.00  0.00    +0.000 A 
ATOM     18  C   UNL     1      47.000   5.716  12.998  0.00  0.00    +0.000 A 
ATOM     19  C   UNL     1      46.707   7.081  12.976  0.00  0.00    +0.000 A 
ATOM     20  C   UNL     1      45.410   7.527  12.691  0.00  0.00    +0.000 A 
ATOM     21  C   UNL     1      44.412   6.580  12.429  0.00  0.00    +0.000 A 
BRANCH  20  22
ATOM     22  C   UNL     1      45.092   9.006  12.656  0.00  0.00    +0.000 C 
BRANCH  22  23
ATOM     23  C   UNL     1      44.895   9.490  11.227  0.00  0.00    +0.000 C 
ATOM     24  C   UNL     1      45.158  10.968  10.902  0.00  0.00    +0.000 C 
ATOM     25  O   UNL     1      43.798  11.164  10.454  0.00  0.00    +0.000 OA
ATOM     26  C   UNL     1      43.443   9.820  10.845  0.00  0.00    +0.000 C 
ENDBRANCH  22  23
ENDBRANCH  20  22
ENDBRANCH  15  16
ENDBRANCH  14  15
ENDBRANCH   5  14
TORSDOF 6
ENDMDL
MODEL 6
REMARK VINA RESULT:    -6.684      3.008      7.438
REMARK INTER + INTRA:          -9.796
REMARK INTER:                  -9.160
REMARK INTRA:                  -0.636
REMARK UNBOUND:                -0.768
REMARK  Name = 
REMARK  6 active torsions:
REMARK  status: ('A' for Active; 'I' for Inactive)
REMARK    1  A    between atoms: C_2  and  C_4
REMARK    2  A    between atoms: N_8  and  C_9
REMARK    3  A    between atoms: C_9  and  C_10
REMARK    4  A    between atoms: C_10  and  C_11
REMARK    5  A    between atoms: C_15  and  C_16
REMARK    6  A    between atoms: C_16  and  C_17
REMARK                            x       y       z     vdW  Elec       q    Type
REMARK                         _______ _______ _______ _____ _____    ______ ____
ROOT
ATOM      1  C   UNL     1      47.624   4.223  16.034  0.00  0.00    +0.000 A 
ATOM      2  C   UNL     1      47.132   3.899  14.774  0.00  0.00    +0.000 A 
ATOM      3  C   UNL     1      47.336   4.789  13.722  0.00  0.00    +0.000 A 
ATOM      4  C   UNL     1      48.000   5.990  13.944  0.00  0.00    +0.000 A 
ATOM      5  N   UNL     1      48.327   6.874  12.926  0.00  0.00    +0.000 N 
ATOM      6  N   UNL     1      48.437   6.335  15.174  0.00  0.00    +0.000 NA
ATOM      7  C   UNL     1      48.239   5.454  16.191  0.00  0.00    +0.000 A 
ATOM      8  H   UNL     1      48.647   7.734  13.362  0.00  0.00    +0.000 HD
ENDROOT
BRANCH   1  10
ATOM      9  N   UNL     1      48.692   3.004  17.833  0.00  0.00    +0.000 N 
ATOM     10  C   UNL     1      47.528   3.298  17.179  0.00  0.00    +0.000 C 
ATOM     11  O   UNL     1      46.452   2.855  17.557  0.00  0.00    +0.000 OA
ATOM     12  H   UNL     1      48.605   2.467  18.690  0.00  0.00    +0.000 HD
ATOM     13  H   UNL     1      49.536   3.544  17.711  0.00  0.00    +0.000 HD
ENDBRANCH   1  10
BRANCH   5  14
ATOM     14  C   UNL     1      47.410   7.006  11.805  0.00  0.00    +0.000 C 
BRANCH  14  15
ATOM     15  C   UNL     1      46.000   7.366  12.280  0.00  0.00    +0.000 C 
BRANCH  15  16
ATOM     16  C   UNL     1      45.039   6.259  11.913  0.00  0.00    +0.000 A 
ATOM     17  C   UNL     1      43.986   5.920  12.770  0.00  0.00    +0.000 A 
ATOM     18  C   UNL     1      43.060   4.948  12.396  0.00  0.00    +0.000 A 
ATOM     19  C   UNL     1      43.171   4.315  11.156  0.00  0.00    +0.000 A 
ATOM     20  C   UNL     1      44.213   4.644  10.279  0.00  0.00    +0.000 A 
ATOM     21  C   UNL     1      45.143   5.617  10.668  0.00  0.00    +0.000 A 
BRANCH  20  22
ATOM     22  C   UNL     1      44.331   3.969   8.930  0.00  0.00    +0.000 C 
BRANCH  22  23
ATOM     23  C   UNL     1      45.735   3.426   8.709  0.00  0.00    +0.000 C 
ATOM     24  C   UNL     1      46.358   3.529   7.310  0.00  0.00    +0.000 C 
ATOM     25  O   UNL     1      46.502   2.094   7.212  0.00  0.00    +0.000 OA
ATOM     26  C   UNL     1      45.816   1.910   8.470  0.00  0.00    +0.000 C 
ENDBRANCH  22  23
ENDBRANCH  20  22
ENDBRANCH  15  16
ENDBRANCH  14  15
ENDBRANCH   5  14
TORSDOF 6
ENDMDL
MODEL 7
REMARK VINA RESULT:    -6.206      3.655      7.885
REMARK INTER + INTRA:          -9.151
REMARK INTER:                  -8.645
REMARK INTRA:                  -0.506
REMARK UNBOUND:                -0.768
REMARK  Name = 
REMARK  6 active torsions:
REMARK  status: ('A' for Active; 'I' for Inactive)
REMARK    1  A    between atoms: C_2  and  C_4
REMARK    2  A    between atoms: N_8  and  C_9
REMARK    3  A    between atoms: C_9  and  C_10
REMARK    4  A    between atoms: C_10  and  C_11
REMARK    5  A    between atoms: C_15  and  C_16
REMARK    6  A    between atoms: C_16  and  C_17
REMARK                            x       y       z     vdW  Elec       q    Type
REMARK                         _______ _______ _______ _____ _____    ______ ____
ROOT
ATOM      1  C   UNL     1      49.539   8.882  12.830  0.00  0.00    +0.000 A 
ATOM      2  C   UNL     1      48.203   9.265  12.866  0.00  0.00    +0.000 A 
ATOM      3  C   UNL     1      47.220   8.280  12.923  0.00  0.00    +0.000 A 
ATOM      4  C   UNL     1      47.580   6.936  12.920  0.00  0.00    +0.000 A 
ATOM      5  N   UNL     1      46.664   5.907  13.078  0.00  0.00    +0.000 N 
ATOM      6  N   UNL     1      48.872   6.554  12.836  0.00  0.00    +0.000 NA
ATOM      7  C   UNL     1      49.822   7.527  12.788  0.00  0.00    +0.000 A 
ATOM      8  H   UNL     1      47.146   5.037  12.872  0.00  0.00    +0.000 HD
ENDROOT
BRANCH   1  10
ATOM      9  N   UNL     1      51.832   9.437  13.380  0.00  0.00    +0.000 N 
ATOM     10  C   UNL     1      50.642   9.862  12.857  0.00  0.00    +0.000 C 
ATOM     11  O   UNL     1      50.513  10.985  12.388  0.00  0.00    +0.000 OA
ATOM     12  H   UNL     1      52.618  10.071  13.285  0.00  0.00    +0.000 HD
ATOM     13  H   UNL     1      52.042   8.462  13.531  0.00  0.00    +0.000 HD
ENDBRANCH   1  10
BRANCH   5  14
ATOM     14  C   UNL     1      45.334   6.074  12.514  0.00  0.00    +0.000 C 
BRANCH  14  15
ATOM     15  C   UNL     1      45.391   6.222  10.991  0.00  0.00    +0.000 C 
BRANCH  15  16
ATOM     16  C   UNL     1      45.151   4.881  10.338  0.00  0.00    +0.000 A 
ATOM     17  C   UNL     1      44.449   3.877  11.013  0.00  0.00    +0.000 A 
ATOM     18  C   UNL     1      44.168   2.667  10.380  0.00  0.00    +0.000 A 
ATOM     19  C   UNL     1      44.575   2.456   9.061  0.00  0.00    +0.000 A 
ATOM     20  C   UNL     1      45.272   3.450   8.363  0.00  0.00    +0.000 A 
ATOM     21  C   UNL     1      45.556   4.659   9.011  0.00  0.00    +0.000 A 
BRANCH  20  22
ATOM     22  C   UNL     1      45.705   3.230   6.930  0.00  0.00    +0.000 C 
BRANCH  22  23
ATOM     23  C   UNL     1      47.181   2.866   6.853  0.00  0.00    +0.000 C 
ATOM     24  C   UNL     1      47.809   2.607   5.476  0.00  0.00    +0.000 C 
ATOM     25  O   UNL     1      48.175   1.257   5.840  0.00  0.00    +0.000 OA
ATOM     26  C   UNL     1      47.500   1.385   7.111  0.00  0.00    +0.000 C 
ENDBRANCH  22  23
ENDBRANCH  20  22
ENDBRANCH  15  16
ENDBRANCH  14  15
ENDBRANCH   5  14
TORSDOF 6
ENDMDL
MODEL 8
REMARK VINA RESULT:    -6.127      4.915      7.338
REMARK INTER + INTRA:          -9.043
REMARK INTER:                  -8.074
REMARK INTRA:                  -0.969
REMARK UNBOUND:                -0.768
REMARK  Name = 
REMARK  6 active torsions:
REMARK  status: ('A' for Active; 'I' for Inactive)
REMARK    1  A    between atoms: C_2  and  C_4
REMARK    2  A    between atoms: N_8  and  C_9
REMARK    3  A    between atoms: C_9  and  C_10
REMARK    4  A    between atoms: C_10  and  C_11
REMARK    5  A    between atoms: C_15  and  C_16
REMARK    6  A    between atoms: C_16  and  C_17
REMARK                            x       y       z     vdW  Elec       q    Type
REMARK                         _______ _______ _______ _____ _____    ______ ____
ROOT
ATOM      1  C   UNL     1      44.988   4.388  11.860  0.00  0.00    +0.000 A 
ATOM      2  C   UNL     1      45.298   5.369  10.924  0.00  0.00    +0.000 A 
ATOM      3  C   UNL     1      46.327   6.265  11.203  0.00  0.00    +0.000 A 
ATOM      4  C   UNL     1      47.010   6.187  12.412  0.00  0.00    +0.000 A 
ATOM      5  N   UNL     1      48.109   6.979  12.712  0.00  0.00    +0.000 N 
ATOM      6  N   UNL     1      46.684   5.270  13.346  0.00  0.00    +0.000 NA
ATOM      7  C   UNL     1      45.682   4.396  13.059  0.00  0.00    +0.000 A 
ATOM      8  H   UNL     1      48.315   6.851  13.699  0.00  0.00    +0.000 HD
ENDROOT
BRANCH   1  10
ATOM      9  N   UNL     1      43.794   2.409  12.583  0.00  0.00    +0.000 N 
ATOM     10  C   UNL     1      43.973   3.348  11.606  0.00  0.00    +0.000 C 
ATOM     11  O   UNL     1      43.290   3.353  10.591  0.00  0.00    +0.000 OA
ATOM     12  H   UNL     1      43.016   1.770  12.458  0.00  0.00    +0.000 HD
ATOM     13  H   UNL     1      44.149   2.525  13.521  0.00  0.00    +0.000 HD
ENDBRANCH   1  10
BRANCH   5  14
ATOM     14  C   UNL     1      48.139   8.341  12.204  0.00  0.00    +0.000 C 
BRANCH  14  15
ATOM     15  C   UNL     1      47.211   9.254  13.008  0.00  0.00    +0.000 C 
BRANCH  15  16
ATOM     16  C   UNL     1      46.296  10.007  12.070  0.00  0.00    +0.000 A 
ATOM     17  C   UNL     1      46.753  11.140  11.389  0.00  0.00    +0.000 A 
ATOM     18  C   UNL     1      45.929  11.789  10.471  0.00  0.00    +0.000 A 
ATOM     19  C   UNL     1      44.645  11.303  10.216  0.00  0.00    +0.000 A 
ATOM     20  C   UNL     1      44.169  10.165  10.881  0.00  0.00    +0.000 A 
ATOM     21  C   UNL     1      45.003   9.525  11.807  0.00  0.00    +0.000 A 
BRANCH  20  22
ATOM     22  C   UNL     1      42.783   9.629  10.600  0.00  0.00    +0.000 C 
BRANCH  22  23
ATOM     23  C   UNL     1      41.715  10.643  10.983  0.00  0.00    +0.000 C 
ATOM     24  C   UNL     1      40.317  10.137  11.367  0.00  0.00    +0.000 C 
ATOM     25  O   UNL     1      39.697  10.879  10.292  0.00  0.00    +0.000 OA
ATOM     26  C   UNL     1      40.988  11.300   9.798  0.00  0.00    +0.000 C 
ENDBRANCH  22  23
ENDBRANCH  20  22
ENDBRANCH  15  16
ENDBRANCH  14  15
ENDBRANCH   5  14
TORSDOF 6
ENDMDL
MODEL 9
REMARK VINA RESULT:    -6.065      4.498      8.090
REMARK INTER + INTRA:          -8.960
REMARK INTER:                  -8.290
REMARK INTRA:                  -0.670
REMARK UNBOUND:                -0.768
REMARK  Name = 
REMARK  6 active torsions:
REMARK  status: ('A' for Active; 'I' for Inactive)
REMARK    1  A    between atoms: C_2  and  C_4
REMARK    2  A    between atoms: N_8  and  C_9
REMARK    3  A    between atoms: C_9  and  C_10
REMARK    4  A    between atoms: C_10  and  C_11
REMARK    5  A    between atoms: C_15  and  C_16
REMARK    6  A    between atoms: C_16  and  C_17
REMARK                            x       y       z     vdW  Elec       q    Type
REMARK                         _______ _______ _______ _____ _____    ______ ____
ROOT
ATOM      1  C   UNL     1      50.781   3.226  17.422  0.00  0.00    +0.000 A 
ATOM      2  C   UNL     1      51.393   4.475  17.445  0.00  0.00    +0.000 A 
ATOM      3  C   UNL     1      50.624   5.607  17.187  0.00  0.00    +0.000 A 
ATOM      4  C   UNL     1      49.272   5.477  16.887  0.00  0.00    +0.000 A 
ATOM      5  N   UNL     1      48.426   6.564  16.721  0.00  0.00    +0.000 N 
ATOM      6  N   UNL     1      48.681   4.266  16.814  0.00  0.00    +0.000 NA
ATOM      7  C   UNL     1      49.441   3.169  17.076  0.00  0.00    +0.000 A 
ATOM      8  H   UNL     1      47.549   6.212  16.348  0.00  0.00    +0.000 HD
ENDROOT
BRANCH   1  10
ATOM      9  N   UNL     1      52.612   2.120  18.559  0.00  0.00    +0.000 N 
ATOM     10  C   UNL     1      51.503   1.987  17.770  0.00  0.00    +0.000 C 
ATOM     11  O   UNL     1      51.101   0.889  17.412  0.00  0.00    +0.000 OA
ATOM     12  H   UNL     1      53.033   1.260  18.894  0.00  0.00    +0.000 HD
ATOM     13  H   UNL     1      52.815   2.964  19.073  0.00  0.00    +0.000 HD
ENDBRANCH   1  10
BRANCH   5  14
ATOM     14  C   UNL     1      48.963   7.771  16.112  0.00  0.00    +0.000 C 
BRANCH  14  15
ATOM     15  C   UNL     1      49.149   7.595  14.603  0.00  0.00    +0.000 C 
BRANCH  15  16
ATOM     16  C   UNL     1      47.805   7.392  13.942  0.00  0.00    +0.000 A 
ATOM     17  C   UNL     1      46.991   8.488  13.637  0.00  0.00    +0.000 A 
ATOM     18  C   UNL     1      45.784   8.302  12.964  0.00  0.00    +0.000 A 
ATOM     19  C   UNL     1      45.388   7.020  12.578  0.00  0.00    +0.000 A 
ATOM     20  C   UNL     1      46.191   5.909  12.866  0.00  0.00    +0.000 A 
ATOM     21  C   UNL     1      47.398   6.106  13.550  0.00  0.00    +0.000 A 
BRANCH  20  22
ATOM     22  C   UNL     1      45.771   4.519  12.440  0.00  0.00    +0.000 C 
BRANCH  22  23
ATOM     23  C   UNL     1      44.275   4.458  12.171  0.00  0.00    +0.000 C 
ATOM     24  C   UNL     1      43.520   3.155  12.471  0.00  0.00    +0.000 C 
ATOM     25  O   UNL     1      43.104   3.019  11.093  0.00  0.00    +0.000 OA
ATOM     26  C   UNL     1      43.888   4.171  10.711  0.00  0.00    +0.000 C 
ENDBRANCH  22  23
ENDBRANCH  20  22
ENDBRANCH  15  16
ENDBRANCH  14  15
ENDBRANCH   5  14
TORSDOF 6
ENDMDL
