MODEL 1
REMARK VINA RESULT:    -8.425      0.000      0.000
REMARK INTER + INTRA:         -12.568
REMARK INTER:                 -11.380
REMARK INTRA:                  -1.188
REMARK UNBOUND:                -1.188
REMARK  Name = 
REMARK  7 active torsions:
REMARK  status: ('A' for Active; 'I' for Inactive)
REMARK    1  A    between atoms: C_1  and  C_2
REMARK    2  A    between atoms: C_2  and  N_3
REMARK    3  A    between atoms: C_2  and  C_16
REMARK    4  A    between atoms: C_4  and  C_6
REMARK    5  A    between atoms: C_19  and  C_20
REMARK    6  A    between atoms: C_20  and  N_21
REMARK    7  A    between atoms: N_21  and  C_22
REMARK                            x       y       z     vdW  Elec       q    Type
REMARK                         _______ _______ _______ _____ _____    ______ ____
ROOT
ATOM      1  C   UNL     1      45.507   9.121  12.958  0.00  0.00    +0.000 C 
ATOM      2  C   UNL     1      46.528   8.001  12.729  0.00  0.00    +0.000 C 
ENDROOT
BRANCH   2   3
ATOM      3  C   UNL     1      45.881   6.854  11.959  0.00  0.00    +0.000 A 
ATOM      4  C   UNL     1      46.365   6.469  10.702  0.00  0.00    +0.000 A 
ATOM      5  C   UNL     1      45.774   5.408  10.005  0.00  0.00    +0.000 A 
ATOM      6  C   UNL     1      44.682   4.710  10.545  0.00  0.00    +0.000 A 
ATOM      7  C   UNL     1      44.213   5.078  11.811  0.00  0.00    +0.000 A 
ATOM      8  C   UNL     1      44.802   6.137  12.506  0.00  0.00    +0.000 A 
BRANCH   6   9
ATOM      9  C   UNL     1      44.026   3.585   9.777  0.00  0.00    +0.000 C 
BRANCH   9  10
ATOM     10  N   UNL     1      44.348   3.687   8.359  0.00  0.00    +0.000 N 
ATOM     11  H   UNL     1      44.455   4.655   8.062  0.00  0.00    +0.000 HD
BRANCH  10  12
ATOM     12  C   UNL     1      45.335   2.850   7.822  0.00  0.00    +0.000 A 
ATOM     13  C   UNL     1      46.198   3.232   6.792  0.00  0.00    +0.000 A 
ATOM     14  C   UNL     1      47.231   2.388   6.375  0.00  0.00    +0.000 A 
ATOM     15  C   UNL     1      47.392   1.175   7.017  0.00  0.00    +0.000 A 
ATOM     16  N   UNL     1      46.606   0.762   8.030  0.00  0.00    +0.000 NA
ATOM     17  C   UNL     1      45.620   1.614   8.411  0.00  0.00    +0.000 A 
ENDBRANCH  10  12
ENDBRANCH   9  10
ENDBRANCH   6   9
ENDBRANCH   2   3
BRANCH   2  18
ATOM     18  N   UNL     1      47.074   7.476  13.970  0.00  0.00    +0.000 N 
ATOM     19  C   UNL     1      48.285   6.839  14.070  0.00  0.00    +0.000 C 
ATOM     20  O   UNL     1      49.049   6.697  13.124  0.00  0.00    +0.000 OA
ATOM     21  H   UNL     1      46.379   7.256  14.676  0.00  0.00    +0.000 HD
BRANCH  19  22
ATOM     22  C   UNL     1      48.655   6.402  15.423  0.00  0.00    +0.000 A 
ATOM     23  C   UNL     1      49.610   7.106  16.144  0.00  0.00    +0.000 A 
ATOM     24  S   UNL     1      49.869   6.489  17.714  0.00  0.00    +0.000 S 
ATOM     25  C   UNL     1      48.752   5.229  17.464  0.00  0.00    +0.000 A 
ATOM     26  N   UNL     1      48.506   4.303  18.431  0.00  0.00    +0.000 NA
ATOM     27  C   UNL     1      47.657   3.391  18.093  0.00  0.00    +0.000 A 
ATOM     28  N   UNL     1      47.027   3.321  16.878  0.00  0.00    +0.000 N 
ATOM     29  C   UNL     1      47.221   4.250  15.884  0.00  0.00    +0.000 A 
ATOM     30  O   UNL     1      46.605   4.190  14.825  0.00  0.00    +0.000 OA
ATOM     31  C   UNL     1      48.176   5.291  16.209  0.00  0.00    +0.000 A 
ATOM     32  H   UNL     1      46.366   2.586  16.676  0.00  0.00    +0.000 HD
ENDBRANCH  19  22
ENDBRANCH   2  18
TORSDOF 6
ENDMDL
MODEL 2
REMARK VINA RESULT:    -8.080      1.924      2.381
REMARK INTER + INTRA:         -12.102
REMARK INTER:                 -11.018
REMARK INTRA:                  -1.084
REMARK UNBOUND:                -1.188
REMARK  Name = 
REMARK  7 active torsions:
REMARK  status: ('A' for Active; 'I' for Inactive)
REMARK    1  A    between atoms: C_1  and  C_2
REMARK    2  A    between atoms: C_2  and  N_3
REMARK    3  A    between atoms: C_2  and  C_16
REMARK    4  A    between atoms: C_4  and  C_6
REMARK    5  A    between atoms: C_19  and  C_20
REMARK    6  A    between atoms: C_20  and  N_21
REMARK    7  A    between atoms: N_21  and  C_22
REMARK                            x       y       z     vdW  Elec       q    Type
REMARK                         _______ _______ _______ _____ _____    ______ ____
ROOT
ATOM      1  C   UNL     1      47.238   8.388  13.439  0.00  0.00    +0.000 C 
ATOM      2  C   UNL     1      47.676   6.920  13.460  0.00  0.00    +0.000 C 
ENDROOT
BRANCH   2   3
ATOM      3  C   UNL     1      46.730   6.080  12.606  0.00  0.00    +0.000 A 
ATOM      4  C   UNL     1      46.357   6.499  11.323  0.00  0.00    +0.000 A 
ATOM      5  C   UNL     1      45.497   5.718  10.540  0.00  0.00    +0.000 A 
ATOM      6  C   UNL     1      44.985   4.504  11.023  0.00  0.00    +0.000 A 
ATOM      7  C   UNL     1      45.376   4.073  12.296  0.00  0.00    +0.000 A 
ATOM      8  C   UNL     1      46.233   4.852  13.077  0.00  0.00    +0.000 A 
BRANCH   6   9
ATOM      9  C   UNL     1      44.033   3.678  10.188  0.00  0.00    +0.000 C 
BRANCH   9  10
ATOM     10  N   UNL     1      44.323   3.854   8.771  0.00  0.00    +0.000 N 
ATOM     11  H   UNL     1      44.403   4.836   8.517  0.00  0.00    +0.000 HD
BRANCH  10  12
ATOM     12  C   UNL     1      45.315   3.064   8.175  0.00  0.00    +0.000 A 
ATOM     13  C   UNL     1      46.280   3.565   7.297  0.00  0.00    +0.000 A 
ATOM     14  C   UNL     1      47.307   2.745   6.822  0.00  0.00    +0.000 A 
ATOM     15  C   UNL     1      47.359   1.433   7.254  0.00  0.00    +0.000 A 
ATOM     16  N   UNL     1      46.470   0.900   8.115  0.00  0.00    +0.000 NA
ATOM     17  C   UNL     1      45.493   1.731   8.561  0.00  0.00    +0.000 A 
ENDBRANCH  10  12
ENDBRANCH   9  10
ENDBRANCH   6   9
ENDBRANCH   2   3
BRANCH   2  18
ATOM     18  N   UNL     1      47.707   6.361  14.802  0.00  0.00    +0.000 N 
ATOM     19  C   UNL     1      48.835   6.287  15.580  0.00  0.00    +0.000 C 
ATOM     20  O   UNL     1      49.920   6.736  15.232  0.00  0.00    +0.000 OA
ATOM     21  H   UNL     1      46.970   5.691  14.996  0.00  0.00    +0.000 HD
BRANCH  19  22
ATOM     22  C   UNL     1      48.642   5.701  16.913  0.00  0.00    +0.000 A 
ATOM     23  C   UNL     1      48.781   4.333  17.097  0.00  0.00    +0.000 A 
ATOM     24  S   UNL     1      48.579   3.841  18.719  0.00  0.00    +0.000 S 
ATOM     25  C   UNL     1      48.248   5.433  19.220  0.00  0.00    +0.000 A 
ATOM     26  N   UNL     1      47.961   5.717  20.520  0.00  0.00    +0.000 NA
ATOM     27  C   UNL     1      47.704   6.962  20.749  0.00  0.00    +0.000 A 
ATOM     28  N   UNL     1      47.712   7.950  19.800  0.00  0.00    +0.000 N 
ATOM     29  C   UNL     1      48.025   7.715  18.483  0.00  0.00    +0.000 A 
ATOM     30  O   UNL     1      48.073   8.627  17.665  0.00  0.00    +0.000 OA
ATOM     31  C   UNL     1      48.311   6.329  18.169  0.00  0.00    +0.000 A 
ATOM     32  H   UNL     1      47.509   8.909  20.045  0.00  0.00    +0.000 HD
ENDBRANCH  19  22
ENDBRANCH   2  18
TORSDOF 6
ENDMDL
MODEL 3
REMARK VINA RESULT:    -8.073      1.759      2.025
REMARK INTER + INTRA:         -12.093
REMARK INTER:                 -11.013
REMARK INTRA:                  -1.080
REMARK UNBOUND:                -1.188
REMARK  Name = 
REMARK  7 active torsions:
REMARK  status: ('A' for Active; 'I' for Inactive)
REMARK    1  A    between atoms: C_1  and  C_2
REMARK    2  A    between atoms: C_2  and  N_3
REMARK    3  A    between atoms: C_2  and  C_16
REMARK    4  A    between atoms: C_4  and  C_6
REMARK    5  A    between atoms: C_19  and  C_20
REMARK    6  A    between atoms: C_20  and  N_21
REMARK    7  A    between atoms: N_21  and  C_22
REMARK                            x       y       z     vdW  Elec       q    Type
REMARK                         _______ _______ _______ _____ _____    ______ ____
ROOT
ATOM      1  C   UNL     1      48.608   8.284  12.783  0.00  0.00    +0.000 C 
ATOM      2  C   UNL     1      48.431   6.855  13.310  0.00  0.00    +0.000 C 
ENDROOT
BRANCH   2   3
ATOM      3  C   UNL     1      47.228   6.197  12.641  0.00  0.00    +0.000 A 
ATOM      4  C   UNL     1      46.691   6.715  11.456  0.00  0.00    +0.000 A 
ATOM      5  C   UNL     1      45.593   6.100  10.841  0.00  0.00    +0.000 A 
ATOM      6  C   UNL     1      45.003   4.956  11.400  0.00  0.00    +0.000 A 
ATOM      7  C   UNL     1      45.552   4.423  12.572  0.00  0.00    +0.000 A 
ATOM      8  C   UNL     1      46.647   5.038  13.185  0.00  0.00    +0.000 A 
BRANCH   6   9
ATOM      9  C   UNL     1      43.798   4.311  10.751  0.00  0.00    +0.000 C 
BRANCH   9  10
ATOM     10  N   UNL     1      43.923   4.355   9.300  0.00  0.00    +0.000 N 
ATOM     11  H   UNL     1      44.006   5.308   8.954  0.00  0.00    +0.000 HD
BRANCH  10  12
ATOM     12  C   UNL     1      44.810   3.476   8.665  0.00  0.00    +0.000 A 
ATOM     13  C   UNL     1      45.765   3.880   7.728  0.00  0.00    +0.000 A 
ATOM     14  C   UNL     1      46.691   2.970   7.212  0.00  0.00    +0.000 A 
ATOM     15  C   UNL     1      46.654   1.664   7.663  0.00  0.00    +0.000 A 
ATOM     16  N   UNL     1      45.773   1.220   8.580  0.00  0.00    +0.000 NA
ATOM     17  C   UNL     1      44.896   2.137   9.064  0.00  0.00    +0.000 A 
ENDBRANCH  10  12
ENDBRANCH   9  10
ENDBRANCH   6   9
ENDBRANCH   2   3
BRANCH   2  18
ATOM     18  N   UNL     1      48.245   6.806  14.751  0.00  0.00    +0.000 N 
ATOM     19  C   UNL     1      49.272   6.766  15.660  0.00  0.00    +0.000 C 
ATOM     20  O   UNL     1      50.453   6.821  15.340  0.00  0.00    +0.000 OA
ATOM     21  H   UNL     1      47.354   6.420  15.047  0.00  0.00    +0.000 HD
BRANCH  19  22
ATOM     22  C   UNL     1      48.862   6.737  17.070  0.00  0.00    +0.000 A 
ATOM     23  C   UNL     1      48.363   7.883  17.672  0.00  0.00    +0.000 A 
ATOM     24  S   UNL     1      47.885   7.647  19.294  0.00  0.00    +0.000 S 
ATOM     25  C   UNL     1      48.379   6.018  19.261  0.00  0.00    +0.000 A 
ATOM     26  N   UNL     1      48.264   5.226  20.361  0.00  0.00    +0.000 NA
ATOM     27  C   UNL     1      48.703   4.022  20.199  0.00  0.00    +0.000 A 
ATOM     28  N   UNL     1      49.243   3.536  19.037  0.00  0.00    +0.000 N 
ATOM     29  C   UNL     1      49.350   4.291  17.894  0.00  0.00    +0.000 A 
ATOM     30  O   UNL     1      49.791   3.815  16.853  0.00  0.00    +0.000 OA
ATOM     31  C   UNL     1      48.881   5.656  18.026  0.00  0.00    +0.000 A 
ATOM     32  H   UNL     1      49.562   2.581  18.971  0.00  0.00    +0.000 HD
ENDBRANCH  19  22
ENDBRANCH   2  18
TORSDOF 6
ENDMDL
MODEL 4
REMARK VINA RESULT:    -7.393      2.587      3.557
REMARK INTER + INTRA:         -11.174
REMARK INTER:                  -9.946
REMARK INTRA:                  -1.228
REMARK UNBOUND:                -1.188
REMARK  Name = 
REMARK  7 active torsions:
REMARK  status: ('A' for Active; 'I' for Inactive)
REMARK    1  A    between atoms: C_1  and  C_2
REMARK    2  A    between atoms: C_2  and  N_3
REMARK    3  A    between atoms: C_2  and  C_16
REMARK    4  A    between atoms: C_4  and  C_6
REMARK    5  A    between atoms: C_19  and  C_20
REMARK    6  A    between atoms: C_20  and  N_21
REMARK    7  A    between atoms: N_21  and  C_22
REMARK                            x       y       z     vdW  Elec       q    Type
REMARK                         _______ _______ _______ _____ _____    ______ ____
ROOT
ATOM      1  C   UNL     1      49.356   7.631  12.938  0.00  0.00    +0.000 C 
ATOM      2  C   UNL     1      48.608   6.538  13.709  0.00  0.00    +0.000 C 
ENDROOT
BRANCH   2   3
ATOM      3  C   UNL     1      47.332   6.154  12.966  0.00  0.00    +0.000 A 
ATOM      4  C   UNL     1      46.568   5.053  13.371  0.00  0.00    +0.000 A 
ATOM      5  C   UNL     1      45.391   4.713  12.692  0.00  0.00    +0.000 A 
ATOM      6  C   UNL     1      44.953   5.463  11.589  0.00  0.00    +0.000 A 
ATOM      7  C   UNL     1      45.703   6.578  11.198  0.00  0.00    +0.000 A 
ATOM      8  C   UNL     1      46.877   6.916  11.875  0.00  0.00    +0.000 A 
BRANCH   6   9
ATOM      9  C   UNL     1      43.699   5.076  10.838  0.00  0.00    +0.000 C 
BRANCH   9  10
ATOM     10  N   UNL     1      43.747   3.666  10.469  0.00  0.00    +0.000 N 
ATOM     11  H   UNL     1      42.816   3.259  10.398  0.00  0.00    +0.000 HD
BRANCH  10  12
ATOM     12  C   UNL     1      44.589   3.263   9.425  0.00  0.00    +0.000 A 
ATOM     13  C   UNL     1      45.117   4.138   8.472  0.00  0.00    +0.000 A 
ATOM     14  C   UNL     1      46.037   3.689   7.521  0.00  0.00    +0.000 A 
ATOM     15  C   UNL     1      46.428   2.363   7.555  0.00  0.00    +0.000 A 
ATOM     16  N   UNL     1      45.971   1.478   8.462  0.00  0.00    +0.000 NA
ATOM     17  C   UNL     1      45.086   1.956   9.375  0.00  0.00    +0.000 A 
ENDBRANCH  10  12
ENDBRANCH   9  10
ENDBRANCH   6   9
ENDBRANCH   2   3
BRANCH   2  18
ATOM     18  N   UNL     1      48.255   6.944  15.059  0.00  0.00    +0.000 N 
ATOM     19  C   UNL     1      48.997   6.645  16.173  0.00  0.00    +0.000 C 
ATOM     20  O   UNL     1      50.065   6.047  16.127  0.00  0.00    +0.000 OA
ATOM     21  H   UNL     1      47.265   7.120  15.201  0.00  0.00    +0.000 HD
BRANCH  19  22
ATOM     22  C   UNL     1      48.469   7.168  17.441  0.00  0.00    +0.000 A 
ATOM     23  C   UNL     1      48.259   6.311  18.512  0.00  0.00    +0.000 A 
ATOM     24  S   UNL     1      47.698   7.102  19.916  0.00  0.00    +0.000 S 
ATOM     25  C   UNL     1      47.667   8.609  19.124  0.00  0.00    +0.000 A 
ATOM     26  N   UNL     1      47.254   9.734  19.767  0.00  0.00    +0.000 NA
ATOM     27  C   UNL     1      47.257  10.798  19.035  0.00  0.00    +0.000 A 
ATOM     28  N   UNL     1      47.640  10.841  17.720  0.00  0.00    +0.000 N 
ATOM     29  C   UNL     1      48.093   9.737  17.039  0.00  0.00    +0.000 A 
ATOM     30  O   UNL     1      48.476   9.815  15.877  0.00  0.00    +0.000 OA
ATOM     31  C   UNL     1      48.098   8.511  17.814  0.00  0.00    +0.000 A 
ATOM     32  H   UNL     1      47.627  11.708  17.202  0.00  0.00    +0.000 HD
ENDBRANCH  19  22
ENDBRANCH   2  18
TORSDOF 6
ENDMDL
MODEL 5
REMARK VINA RESULT:    -7.271      3.141      7.790
REMARK INTER + INTRA:         -11.010
REMARK INTER:                  -9.883
REMARK INTRA:                  -1.126
REMARK UNBOUND:                -1.188
REMARK  Name = 
REMARK  7 active torsions:
REMARK  status: ('A' for Active; 'I' for Inactive)
REMARK    1  A    between atoms: C_1  and  C_2
REMARK    2  A    between atoms: C_2  and  N_3
REMARK    3  A    between atoms: C_2  and  C_16
REMARK    4  A    between atoms: C_4  and  C_6
REMARK    5  A    between atoms: C_19  and  C_20
REMARK    6  A    between atoms: C_20  and  N_21
REMARK    7  A    between atoms: N_21  and  C_22
REMARK                            x       y       z     vdW  Elec       q    Type
REMARK                         _______ _______ _______ _____ _____    ______ ____
ROOT
ATOM      1  C   UNL     1      49.847   8.055  11.421  0.00  0.00    +0.000 C 
ATOM      2  C   UNL     1      48.586   7.777  12.247  0.00  0.00    +0.000 C 
ENDROOT
BRANCH   2   3
ATOM      3  C   UNL     1      48.971   7.330  13.654  0.00  0.00    +0.000 A 
ATOM      4  C   UNL     1      50.175   7.746  14.237  0.00  0.00    +0.000 A 
ATOM      5  C   UNL     1      50.517   7.340  15.533  0.00  0.00    +0.000 A 
ATOM      6  C   UNL     1      49.667   6.505  16.275  0.00  0.00    +0.000 A 
ATOM      7  C   UNL     1      48.454   6.107  15.702  0.00  0.00    +0.000 A 
ATOM      8  C   UNL     1      48.113   6.511  14.409  0.00  0.00    +0.000 A 
BRANCH   6   9
ATOM      9  C   UNL     1      50.053   6.043  17.662  0.00  0.00    +0.000 C 
BRANCH   9  10
ATOM     10  N   UNL     1      49.585   4.681  17.888  0.00  0.00    +0.000 N 
ATOM     11  H   UNL     1      48.679   4.513  17.456  0.00  0.00    +0.000 HD
BRANCH  10  12
ATOM     12  C   UNL     1      50.474   3.615  17.700  0.00  0.00    +0.000 A 
ATOM     13  C   UNL     1      51.809   3.635  18.112  0.00  0.00    +0.000 A 
ATOM     14  C   UNL     1      52.612   2.498  17.992  0.00  0.00    +0.000 A 
ATOM     15  C   UNL     1      52.052   1.346  17.473  0.00  0.00    +0.000 A 
ATOM     16  N   UNL     1      50.766   1.259  17.079  0.00  0.00    +0.000 NA
ATOM     17  C   UNL     1      50.017   2.382  17.221  0.00  0.00    +0.000 A 
ENDBRANCH  10  12
ENDBRANCH   9  10
ENDBRANCH   6   9
ENDBRANCH   2   3
BRANCH   2  18
ATOM     18  N   UNL     1      47.738   6.758  11.652  0.00  0.00    +0.000 N 
ATOM     19  C   UNL     1      46.384   6.888  11.475  0.00  0.00    +0.000 C 
ATOM     20  O   UNL     1      45.766   7.908  11.758  0.00  0.00    +0.000 OA
ATOM     21  H   UNL     1      48.102   5.813  11.722  0.00  0.00    +0.000 HD
BRANCH  19  22
ATOM     22  C   UNL     1      45.719   5.744  10.838  0.00  0.00    +0.000 A 
ATOM     23  C   UNL     1      45.849   5.537   9.472  0.00  0.00    +0.000 A 
ATOM     24  S   UNL     1      45.058   4.130   8.919  0.00  0.00    +0.000 S 
ATOM     25  C   UNL     1      44.472   3.778  10.477  0.00  0.00    +0.000 A 
ATOM     26  N   UNL     1      43.687   2.690  10.705  0.00  0.00    +0.000 NA
ATOM     27  C   UNL     1      43.293   2.564  11.929  0.00  0.00    +0.000 A 
ATOM     28  N   UNL     1      43.616   3.422  12.947  0.00  0.00    +0.000 N 
ATOM     29  C   UNL     1      44.430   4.515  12.769  0.00  0.00    +0.000 A 
ATOM     30  O   UNL     1      44.743   5.238  13.709  0.00  0.00    +0.000 OA
ATOM     31  C   UNL     1      44.890   4.709  11.408  0.00  0.00    +0.000 A 
ATOM     32  H   UNL     1      43.283   3.264  13.887  0.00  0.00    +0.000 HD
ENDBRANCH  19  22
ENDBRANCH   2  18
TORSDOF 6
ENDMDL
MODEL 6
REMARK VINA RESULT:    -6.914      4.200      9.772
REMARK INTER + INTRA:         -10.527
REMARK INTER:                  -9.314
REMARK INTRA:                  -1.213
REMARK UNBOUND:                -1.188
REMARK  Name = 
REMARK  7 active torsions:
REMARK  status: ('A' for Active; 'I' for Inactive)
REMARK    1  A    between atoms: C_1  and  C_2
REMARK    2  A    between atoms: C_2  and  N_3
REMARK    3  A    between atoms: C_2  and  C_16
REMARK    4  A    between atoms: C_4  and  C_6
REMARK    5  A    between atoms: C_19  and  C_20
REMARK    6  A    between atoms: C_20  and  N_21
REMARK    7  A    between atoms: N_21  and  C_22
REMARK                            x       y       z     vdW  Elec       q    Type
REMARK                         _______ _______ _______ _____ _____    ______ ____
ROOT
ATOM      1  C   UNL     1      47.954   3.143  16.730  0.00  0.00    +0.000 C 
ATOM      2  C   UNL     1      48.159   4.576  16.227  0.00  0.00    +0.000 C 
ENDROOT
BRANCH   2   3
ATOM      3  C   UNL     1      48.029   5.561  17.386  0.00  0.00    +0.000 A 
ATOM      4  C   UNL     1      48.655   6.813  17.339  0.00  0.00    +0.000 A 
ATOM      5  C   UNL     1      48.522   7.716  18.401  0.00  0.00    +0.000 A 
ATOM      6  C   UNL     1      47.766   7.387  19.537  0.00  0.00    +0.000 A 
ATOM      7  C   UNL     1      47.121   6.146  19.575  0.00  0.00    +0.000 A 
ATOM      8  C   UNL     1      47.254   5.245  18.516  0.00  0.00    +0.000 A 
BRANCH   6   9
ATOM      9  C   UNL     1      47.649   8.352  20.696  0.00  0.00    +0.000 C 
BRANCH   9  10
ATOM     10  N   UNL     1      47.902   9.715  20.245  0.00  0.00    +0.000 N 
ATOM     11  H   UNL     1      48.476   9.738  19.405  0.00  0.00    +0.000 HD
BRANCH  10  12
ATOM     12  C   UNL     1      46.837  10.623  20.189  0.00  0.00    +0.000 A 
ATOM     13  C   UNL     1      45.689  10.521  20.979  0.00  0.00    +0.000 A 
ATOM     14  C   UNL     1      44.712  11.520  20.953  0.00  0.00    +0.000 A 
ATOM     15  C   UNL     1      44.915  12.621  20.142  0.00  0.00    +0.000 A 
ATOM     16  N   UNL     1      46.010  12.785  19.375  0.00  0.00    +0.000 NA
ATOM     17  C   UNL     1      46.940  11.797  19.436  0.00  0.00    +0.000 A 
ENDBRANCH  10  12
ENDBRANCH   9  10
ENDBRANCH   6   9
ENDBRANCH   2   3
BRANCH   2  18
ATOM     18  N   UNL     1      47.209   4.951  15.193  0.00  0.00    +0.000 N 
ATOM     19  C   UNL     1      47.535   5.664  14.067  0.00  0.00    +0.000 C 
ATOM     20  O   UNL     1      48.680   6.012  13.802  0.00  0.00    +0.000 OA
ATOM     21  H   UNL     1      46.244   5.002  15.505  0.00  0.00    +0.000 HD
BRANCH  19  22
ATOM     22  C   UNL     1      46.425   5.921  13.140  0.00  0.00    +0.000 A 
ATOM     23  C   UNL     1      46.094   7.223  12.796  0.00  0.00    +0.000 A 
ATOM     24  S   UNL     1      44.820   7.325  11.665  0.00  0.00    +0.000 S 
ATOM     25  C   UNL     1      44.633   5.634  11.638  0.00  0.00    +0.000 A 
ATOM     26  N   UNL     1      43.677   5.043  10.870  0.00  0.00    +0.000 NA
ATOM     27  C   UNL     1      43.633   3.756  10.970  0.00  0.00    +0.000 A 
ATOM     28  N   UNL     1      44.460   3.005  11.763  0.00  0.00    +0.000 N 
ATOM     29  C   UNL     1      45.458   3.555  12.531  0.00  0.00    +0.000 A 
ATOM     30  O   UNL     1      46.216   2.854  13.192  0.00  0.00    +0.000 OA
ATOM     31  C   UNL     1      45.543   5.001  12.463  0.00  0.00    +0.000 A 
ATOM     32  H   UNL     1      44.381   1.999  11.792  0.00  0.00    +0.000 HD
ENDBRANCH  19  22
ENDBRANCH   2  18
TORSDOF 6
ENDMDL
MODEL 7
REMARK VINA RESULT:    -6.786      3.060      4.298
REMARK INTER + INTRA:         -10.354
REMARK INTER:                  -9.327
REMARK INTRA:                  -1.027
REMARK UNBOUND:                -1.188
REMARK  Name = 
REMARK  7 active torsions:
REMARK  status: ('A' for Active; 'I' for Inactive)
REMARK    1  A    between atoms: C_1  and  C_2
REMARK    2  A    between atoms: C_2  and  N_3
REMARK    3  A    between atoms: C_2  and  C_16
REMARK    4  A    between atoms: C_4  and  C_6
REMARK    5  A    between atoms: C_19  and  C_20
REMARK    6  A    between atoms: C_20  and  N_21
REMARK    7  A    between atoms: N_21  and  C_22
REMARK                            x       y       z     vdW  Elec       q    Type
REMARK                         _______ _______ _______ _____ _____    ______ ____
ROOT
ATOM      1  C   UNL     1      47.533   4.887  15.128  0.00  0.00    +0.000 C 
ATOM      2  C   UNL     1      47.268   5.988  14.095  0.00  0.00    +0.000 C 
ENDROOT
BRANCH   2   3
ATOM      3  C   UNL     1      46.391   5.448  12.969  0.00  0.00    +0.000 A 
ATOM      4  C   UNL     1      46.191   6.187  11.796  0.00  0.00    +0.000 A 
ATOM      5  C   UNL     1      45.394   5.680  10.762  0.00  0.00    +0.000 A 
ATOM      6  C   UNL     1      44.774   4.426  10.878  0.00  0.00    +0.000 A 
ATOM      7  C   UNL     1      44.992   3.677  12.039  0.00  0.00    +0.000 A 
ATOM      8  C   UNL     1      45.787   4.182  13.071  0.00  0.00    +0.000 A 
BRANCH   6   9
ATOM      9  C   UNL     1      43.888   3.895   9.773  0.00  0.00    +0.000 C 
BRANCH   9  10
ATOM     10  N   UNL     1      44.497   4.149   8.473  0.00  0.00    +0.000 N 
ATOM     11  H   UNL     1      44.822   5.110   8.386  0.00  0.00    +0.000 HD
BRANCH  10  12
ATOM     12  C   UNL     1      45.415   3.225   7.957  0.00  0.00    +0.000 A 
ATOM     13  C   UNL     1      46.393   3.549   7.013  0.00  0.00    +0.000 A 
ATOM     14  C   UNL     1      47.347   2.606   6.620  0.00  0.00    +0.000 A 
ATOM     15  C   UNL     1      47.313   1.352   7.200  0.00  0.00    +0.000 A 
ATOM     16  N   UNL     1      46.409   0.989   8.130  0.00  0.00    +0.000 NA
ATOM     17  C   UNL     1      45.506   1.936   8.492  0.00  0.00    +0.000 A 
ENDBRANCH  10  12
ENDBRANCH   9  10
ENDBRANCH   6   9
ENDBRANCH   2   3
BRANCH   2  18
ATOM     18  N   UNL     1      48.491   6.520  13.515  0.00  0.00    +0.000 N 
ATOM     19  C   UNL     1      48.882   7.832  13.612  0.00  0.00    +0.000 C 
ATOM     20  O   UNL     1      48.257   8.673  14.245  0.00  0.00    +0.000 OA
ATOM     21  H   UNL     1      48.848   5.992  12.725  0.00  0.00    +0.000 HD
BRANCH  19  22
ATOM     22  C   UNL     1      50.162   8.156  12.968  0.00  0.00    +0.000 A 
ATOM     23  C   UNL     1      50.230   8.296  11.589  0.00  0.00    +0.000 A 
ATOM     24  S   UNL     1      51.781   8.729  11.025  0.00  0.00    +0.000 S 
ATOM     25  C   UNL     1      52.426   8.693  12.599  0.00  0.00    +0.000 A 
ATOM     26  N   UNL     1      53.742   8.956  12.828  0.00  0.00    +0.000 NA
ATOM     27  C   UNL     1      54.096   8.865  14.066  0.00  0.00    +0.000 A 
ATOM     28  N   UNL     1      53.255   8.541  15.099  0.00  0.00    +0.000 N 
ATOM     29  C   UNL     1      51.915   8.297  14.919  0.00  0.00    +0.000 A 
ATOM     30  O   UNL     1      51.176   8.059  15.868  0.00  0.00    +0.000 OA
ATOM     31  C   UNL     1      51.467   8.375  13.542  0.00  0.00    +0.000 A 
ATOM     32  H   UNL     1      53.592   8.493  16.049  0.00  0.00    +0.000 HD
ENDBRANCH  19  22
ENDBRANCH   2  18
TORSDOF 6
ENDMDL
MODEL 8
REMARK VINA RESULT:    -6.760      2.665      4.430
REMARK INTER + INTRA:         -10.319
REMARK INTER:                  -9.060
REMARK INTRA:                  -1.259
REMARK UNBOUND:                -1.188
REMARK  Name = 
REMARK  7 active torsions:
REMARK  status: ('A' for Active; 'I' for Inactive)
REMARK    1  A    between atoms: C_1  and  C_2
REMARK    2  A    between atoms: C_2  and  N_3
REMARK    3  A    between atoms: C_2  and  C_16
REMARK    4  A    between atoms: C_4  and  C_6
REMARK    5  A    between atoms: C_19  and  C_20
REMARK    6  A    between atoms: C_20  and  N_21
REMARK    7  A    between atoms: N_21  and  C_22
REMARK                            x       y       z     vdW  Elec       q    Type
REMARK                         _______ _______ _______ _____ _____    ______ ____
ROOT
ATOM      1  C   UNL     1      47.399   4.447  14.963  0.00  0.00    +0.000 C 
ATOM      2  C   UNL     1      47.049   5.713  14.174  0.00  0.00    +0.000 C 
ENDROOT
BRANCH   2   3
ATOM      3  C   UNL     1      46.296   5.344  12.900  0.00  0.00    +0.000 A 
ATOM      4  C   UNL     1      46.397   6.137  11.749  0.00  0.00    +0.000 A 
ATOM      5  C   UNL     1      45.712   5.786  10.580  0.00  0.00    +0.000 A 
ATOM      6  C   UNL     1      44.904   4.639  10.533  0.00  0.00    +0.000 A 
ATOM      7  C   UNL     1      44.820   3.834  11.675  0.00  0.00    +0.000 A 
ATOM      8  C   UNL     1      45.504   4.184  12.842  0.00  0.00    +0.000 A 
BRANCH   6   9
ATOM      9  C   UNL     1      44.140   4.279   9.279  0.00  0.00    +0.000 C 
BRANCH   9  10
ATOM     10  N   UNL     1      44.404   2.894   8.908  0.00  0.00    +0.000 N 
ATOM     11  H   UNL     1      43.575   2.436   8.534  0.00  0.00    +0.000 HD
BRANCH  10  12
ATOM     12  C   UNL     1      45.560   2.592   8.177  0.00  0.00    +0.000 A 
ATOM     13  C   UNL     1      46.178   1.339   8.188  0.00  0.00    +0.000 A 
ATOM     14  C   UNL     1      47.266   1.071   7.352  0.00  0.00    +0.000 A 
ATOM     15  C   UNL     1      47.705   2.067   6.500  0.00  0.00    +0.000 A 
ATOM     16  N   UNL     1      47.136   3.286   6.429  0.00  0.00    +0.000 NA
ATOM     17  C   UNL     1      46.076   3.504   7.250  0.00  0.00    +0.000 A 
ENDBRANCH  10  12
ENDBRANCH   9  10
ENDBRANCH   6   9
ENDBRANCH   2   3
BRANCH   2  18
ATOM     18  N   UNL     1      48.223   6.490  13.810  0.00  0.00    +0.000 N 
ATOM     19  C   UNL     1      48.875   7.347  14.661  0.00  0.00    +0.000 C 
ATOM     20  O   UNL     1      48.556   7.499  15.833  0.00  0.00    +0.000 OA
ATOM     21  H   UNL     1      48.316   6.672  12.815  0.00  0.00    +0.000 HD
BRANCH  19  22
ATOM     22  C   UNL     1      50.051   8.021  14.095  0.00  0.00    +0.000 A 
ATOM     23  C   UNL     1      51.298   7.848  14.678  0.00  0.00    +0.000 A 
ATOM     24  S   UNL     1      52.553   8.659  13.854  0.00  0.00    +0.000 S 
ATOM     25  C   UNL     1      51.464   9.310  12.719  0.00  0.00    +0.000 A 
ATOM     26  N   UNL     1      51.893  10.134  11.725  0.00  0.00    +0.000 NA
ATOM     27  C   UNL     1      50.953  10.574  10.956  0.00  0.00    +0.000 A 
ATOM     28  N   UNL     1      49.625  10.264  11.087  0.00  0.00    +0.000 N 
ATOM     29  C   UNL     1      49.151   9.413  12.057  0.00  0.00    +0.000 A 
ATOM     30  O   UNL     1      47.964   9.113  12.119  0.00  0.00    +0.000 OA
ATOM     31  C   UNL     1      50.166   8.899  12.956  0.00  0.00    +0.000 A 
ATOM     32  H   UNL     1      48.938  10.635  10.447  0.00  0.00    +0.000 HD
ENDBRANCH  19  22
ENDBRANCH   2  18
TORSDOF 6
ENDMDL
MODEL 9
REMARK VINA RESULT:    -6.740      3.943      5.997
REMARK INTER + INTRA:         -10.293
REMARK INTER:                  -9.290
REMARK INTRA:                  -1.002
REMARK UNBOUND:                -1.188
REMARK  Name = 
REMARK  7 active torsions:
REMARK  status: ('A' for Active; 'I' for Inactive)
REMARK    1  A    between atoms: C_1  and  C_2
REMARK    2  A    between atoms: C_2  and  N_3
REMARK    3  A    between atoms: C_2  and  C_16
REMARK    4  A    between atoms: C_4  and  C_6
REMARK    5  A    between atoms: C_19  and  C_20
REMARK    6  A    between atoms: C_20  and  N_21
REMARK    7  A    between atoms: N_21  and  C_22
REMARK                            x       y       z     vdW  Elec       q    Type
REMARK                         _______ _______ _______ _____ _____    ______ ____
ROOT
ATOM      1  C   UNL     1      46.603   3.527  13.220  0.00  0.00    +0.000 C 
ATOM      2  C   UNL     1      46.475   4.611  14.297  0.00  0.00    +0.000 C 
ENDROOT
BRANCH   2   3
ATOM      3  C   UNL     1      46.340   5.983  13.644  0.00  0.00    +0.000 A 
ATOM      4  C   UNL     1      47.372   6.925  13.728  0.00  0.00    +0.000 A 
ATOM      5  C   UNL     1      47.246   8.179  13.117  0.00  0.00    +0.000 A 
ATOM      6  C   UNL     1      46.082   8.523  12.411  0.00  0.00    +0.000 A 
ATOM      7  C   UNL     1      45.059   7.574  12.306  0.00  0.00    +0.000 A 
ATOM      8  C   UNL     1      45.185   6.323  12.917  0.00  0.00    +0.000 A 
BRANCH   6   9
ATOM      9  C   UNL     1      45.935   9.888  11.778  0.00  0.00    +0.000 C 
BRANCH   9  10
ATOM     10  N   UNL     1      44.698  10.519  12.222  0.00  0.00    +0.000 N 
ATOM     11  H   UNL     1      44.872  11.282  12.874  0.00  0.00    +0.000 HD
BRANCH  10  12
ATOM     12  C   UNL     1      43.716  10.837  11.276  0.00  0.00    +0.000 A 
ATOM     13  C   UNL     1      43.928  10.795   9.895  0.00  0.00    +0.000 A 
ATOM     14  C   UNL     1      42.875  11.019   9.004  0.00  0.00    +0.000 A 
ATOM     15  C   UNL     1      41.615  11.265   9.517  0.00  0.00    +0.000 A 
ATOM     16  N   UNL     1      41.346  11.297  10.837  0.00  0.00    +0.000 NA
ATOM     17  C   UNL     1      42.393  11.065  11.670  0.00  0.00    +0.000 A 
ENDBRANCH  10  12
ENDBRANCH   9  10
ENDBRANCH   6   9
ENDBRANCH   2   3
BRANCH   2  18
ATOM     18  N   UNL     1      47.612   4.640  15.203  0.00  0.00    +0.000 N 
ATOM     19  C   UNL     1      47.588   4.152  16.485  0.00  0.00    +0.000 C 
ATOM     20  O   UNL     1      46.612   3.594  16.972  0.00  0.00    +0.000 OA
ATOM     21  H   UNL     1      48.294   5.363  15.000  0.00  0.00    +0.000 HD
BRANCH  19  22
ATOM     22  C   UNL     1      48.852   4.264  17.225  0.00  0.00    +0.000 A 
ATOM     23  C   UNL     1      49.126   5.408  17.961  0.00  0.00    +0.000 A 
ATOM     24  S   UNL     1      50.610   5.338  18.800  0.00  0.00    +0.000 S 
ATOM     25  C   UNL     1      50.961   3.798  18.166  0.00  0.00    +0.000 A 
ATOM     26  N   UNL     1      52.120   3.156  18.475  0.00  0.00    +0.000 NA
ATOM     27  C   UNL     1      52.264   2.009  17.900  0.00  0.00    +0.000 A 
ATOM     28  N   UNL     1      51.353   1.441  17.049  0.00  0.00    +0.000 N 
ATOM     29  C   UNL     1      50.156   2.038  16.732  0.00  0.00    +0.000 A 
ATOM     30  O   UNL     1      49.338   1.484  16.007  0.00  0.00    +0.000 OA
ATOM     31  C   UNL     1      49.951   3.337  17.343  0.00  0.00    +0.000 A 
ATOM     32  H   UNL     1      51.520   0.535  16.636  0.00  0.00    +0.000 HD
ENDBRANCH  19  22
ENDBRANCH   2  18
TORSDOF 6
ENDMDL
