MODEL 1
REMARK VINA RESULT:    -8.471      0.000      0.000
REMARK INTER + INTRA:         -15.656
REMARK INTER:                 -13.919
REMARK INTRA:                  -1.737
REMARK UNBOUND:                -1.737
REMARK  Name = 
REMARK  13 active torsions:
REMARK  status: ('A' for Active; 'I' for Inactive)
REMARK    1  A    between atoms: C_1  and  C_2
REMARK    2  A    between atoms: C_2  and  N_3
REMARK    3  A    between atoms: C_2  and  C_21
REMARK    4  A    between atoms: N_3  and  C_4
REMARK    5  A    between atoms: C_4  and  C_5
REMARK    6  A    between atoms: C_8  and  C_9
REMARK    7  A    between atoms: C_9  and  N_10
REMARK    8  A    between atoms: N_10  and  C_11
REMARK    9  A    between atoms: N_10  and  C_12
REMARK   10  A    between atoms: C_12  and  C_13
REMARK   11  A    between atoms: C_24  and  C_25
REMARK   12  A    between atoms: N_27  and  C_28
REMARK   13  A    between atoms: C_28  and  C_29
REMARK                            x       y       z     vdW  Elec       q    Type
REMARK                         _______ _______ _______ _____ _____    ______ ____
ROOT
ATOM      1  C   UNL     1      43.227   3.768  11.762  0.00  0.00    +0.000 C 
ATOM      2  C   UNL     1      43.487   4.520  10.450  0.00  0.00    +0.000 C 
ENDROOT
BRANCH   2   3
ATOM      3  C   UNL     1      44.515   3.823   9.561  0.00  0.00    +0.000 A 
ATOM      4  C   UNL     1      44.637   2.419   9.623  0.00  0.00    +0.000 A 
ATOM      5  C   UNL     1      45.439   1.722   8.716  0.00  0.00    +0.000 A 
ATOM      6  C   UNL     1      46.185   2.431   7.771  0.00  0.00    +0.000 A 
ATOM      7  C   UNL     1      46.083   3.824   7.708  0.00  0.00    +0.000 A 
ATOM      8  C   UNL     1      45.250   4.513   8.588  0.00  0.00    +0.000 A 
BRANCH   6   9
ATOM      9  C   UNL     1      47.082   1.755   6.802  0.00  0.00    +0.000 C 
ATOM     10  O   UNL     1      47.904   0.938   7.197  0.00  0.00    +0.000 OA
ATOM     11  N   UNL     1      46.891   2.065   5.474  0.00  0.00    +0.000 N 
ATOM     12  H   UNL     1      46.140   2.681   5.196  0.00  0.00    +0.000 HD
BRANCH  11  13
ATOM     13  C   UNL     1      47.645   1.410   4.431  0.00  0.00    +0.000 C 
BRANCH  13  14
ATOM     14  C   UNL     1      46.774   0.512   3.596  0.00  0.00    +0.000 A 
ATOM     15  C   UNL     1      45.776   1.019   2.762  0.00  0.00    +0.000 A 
ATOM     16  C   UNL     1      44.972   0.137   2.035  0.00  0.00    +0.000 A 
ATOM     17  C   UNL     1      45.200  -1.222   2.175  0.00  0.00    +0.000 A 
ATOM     18  N   UNL     1      46.156  -1.748   2.973  0.00  0.00    +0.000 NA
ATOM     19  C   UNL     1      46.913  -0.870   3.668  0.00  0.00    +0.000 A 
ENDBRANCH  13  14
ENDBRANCH  11  13
ENDBRANCH   6   9
ENDBRANCH   2   3
BRANCH   2  20
ATOM     20  N   UNL     1      43.882   5.905  10.772  0.00  0.00    +0.000 NA
ATOM     21  H   UNL     1      43.136   6.542  10.498  0.00  0.00    +0.000 HD
BRANCH  20  22
ATOM     22  C   UNL     1      44.137   6.078  12.203  0.00  0.00    +0.000 C 
BRANCH  22  23
ATOM     23  C   UNL     1      45.521   6.571  12.512  0.00  0.00    +0.000 A 
ATOM     24  C   UNL     1      45.702   7.900  12.930  0.00  0.00    +0.000 A 
ATOM     25  C   UNL     1      46.944   8.334  13.370  0.00  0.00    +0.000 A 
ATOM     26  C   UNL     1      48.026   7.443  13.407  0.00  0.00    +0.000 A 
ATOM     27  C   UNL     1      47.858   6.136  12.933  0.00  0.00    +0.000 A 
ATOM     28  C   UNL     1      46.611   5.702  12.484  0.00  0.00    +0.000 A 
BRANCH  26  29
ATOM     29  C   UNL     1      49.350   7.878  13.991  0.00  0.00    +0.000 C 
BRANCH  29  30
ATOM     30  N   UNL     1      49.887   6.918  14.979  0.00  0.00    +0.000 NA
ATOM     31  C   UNL     1      51.199   7.330  15.485  0.00  0.00    +0.000 C 
BRANCH  30  32
ATOM     32  C   UNL     1      48.941   6.777  16.108  0.00  0.00    +0.000 C 
BRANCH  32  33
ATOM     33  C   UNL     1      48.695   5.326  16.493  0.00  0.00    +0.000 A 
ATOM     34  C   UNL     1      47.424   4.776  16.336  0.00  0.00    +0.000 A 
ATOM     35  C   UNL     1      47.172   3.508  16.855  0.00  0.00    +0.000 A 
ATOM     36  C   UNL     1      48.196   2.826  17.500  0.00  0.00    +0.000 A 
ATOM     37  C   UNL     1      49.436   3.435  17.590  0.00  0.00    +0.000 A 
ATOM     38  N   UNL     1      49.710   4.663  17.105  0.00  0.00    +0.000 NA
ENDBRANCH  32  33
ENDBRANCH  30  32
ENDBRANCH  29  30
ENDBRANCH  26  29
ENDBRANCH  22  23
ENDBRANCH  20  22
ENDBRANCH   2  20
TORSDOF 11
ENDMDL
MODEL 2
REMARK VINA RESULT:    -7.920      1.203      1.811
REMARK INTER + INTRA:         -14.751
REMARK INTER:                 -12.760
REMARK INTRA:                  -1.991
REMARK UNBOUND:                -1.737
REMARK  Name = 
REMARK  13 active torsions:
REMARK  status: ('A' for Active; 'I' for Inactive)
REMARK    1  A    between atoms: C_1  and  C_2
REMARK    2  A    between atoms: C_2  and  N_3
REMARK    3  A    between atoms: C_2  and  C_21
REMARK    4  A    between atoms: N_3  and  C_4
REMARK    5  A    between atoms: C_4  and  C_5
REMARK    6  A    between atoms: C_8  and  C_9
REMARK    7  A    between atoms: C_9  and  N_10
REMARK    8  A    between atoms: N_10  and  C_11
REMARK    9  A    between atoms: N_10  and  C_12
REMARK   10  A    between atoms: C_12  and  C_13
REMARK   11  A    between atoms: C_24  and  C_25
REMARK   12  A    between atoms: N_27  and  C_28
REMARK   13  A    between atoms: C_28  and  C_29
REMARK                            x       y       z     vdW  Elec       q    Type
REMARK                         _______ _______ _______ _____ _____    ______ ____
ROOT
ATOM      1  C   UNL     1      43.645   3.395  12.272  0.00  0.00    +0.000 C 
ATOM      2  C   UNL     1      43.378   4.077  10.924  0.00  0.00    +0.000 C 
ENDROOT
BRANCH   2   3
ATOM      3  C   UNL     1      44.242   3.516   9.795  0.00  0.00    +0.000 A 
ATOM      4  C   UNL     1      44.853   4.409   8.891  0.00  0.00    +0.000 A 
ATOM      5  C   UNL     1      45.782   3.960   7.949  0.00  0.00    +0.000 A 
ATOM      6  C   UNL     1      46.063   2.595   7.856  0.00  0.00    +0.000 A 
ATOM      7  C   UNL     1      45.453   1.699   8.738  0.00  0.00    +0.000 A 
ATOM      8  C   UNL     1      44.557   2.155   9.705  0.00  0.00    +0.000 A 
BRANCH   6   9
ATOM      9  C   UNL     1      47.013   2.048   6.856  0.00  0.00    +0.000 C 
ATOM     10  O   UNL     1      47.990   1.411   7.225  0.00  0.00    +0.000 OA
ATOM     11  N   UNL     1      46.693   2.258   5.533  0.00  0.00    +0.000 N 
ATOM     12  H   UNL     1      45.828   2.716   5.282  0.00  0.00    +0.000 HD
BRANCH  11  13
ATOM     13  C   UNL     1      47.494   1.702   4.467  0.00  0.00    +0.000 C 
BRANCH  13  14
ATOM     14  C   UNL     1      46.717   0.708   3.649  0.00  0.00    +0.000 A 
ATOM     15  C   UNL     1      45.725   1.104   2.750  0.00  0.00    +0.000 A 
ATOM     16  C   UNL     1      45.010   0.135   2.043  0.00  0.00    +0.000 A 
ATOM     17  C   UNL     1      45.317  -1.197   2.265  0.00  0.00    +0.000 A 
ATOM     18  N   UNL     1      46.269  -1.618   3.127  0.00  0.00    +0.000 NA
ATOM     19  C   UNL     1      46.940  -0.657   3.802  0.00  0.00    +0.000 A 
ENDBRANCH  13  14
ENDBRANCH  11  13
ENDBRANCH   6   9
ENDBRANCH   2   3
BRANCH   2  20
ATOM     20  N   UNL     1      43.556   5.532  11.088  0.00  0.00    +0.000 NA
ATOM     21  H   UNL     1      42.646   5.988  11.078  0.00  0.00    +0.000 HD
BRANCH  20  22
ATOM     22  C   UNL     1      44.224   5.858  12.349  0.00  0.00    +0.000 C 
BRANCH  22  23
ATOM     23  C   UNL     1      45.433   6.733  12.181  0.00  0.00    +0.000 A 
ATOM     24  C   UNL     1      45.343   8.100  12.496  0.00  0.00    +0.000 A 
ATOM     25  C   UNL     1      46.479   8.896  12.498  0.00  0.00    +0.000 A 
ATOM     26  C   UNL     1      47.728   8.336  12.194  0.00  0.00    +0.000 A 
ATOM     27  C   UNL     1      47.806   6.987  11.821  0.00  0.00    +0.000 A 
ATOM     28  C   UNL     1      46.662   6.191  11.811  0.00  0.00    +0.000 A 
BRANCH  26  29
ATOM     29  C   UNL     1      48.983   9.169  12.306  0.00  0.00    +0.000 C 
BRANCH  29  30
ATOM     30  N   UNL     1      50.091   8.456  12.976  0.00  0.00    +0.000 NA
ATOM     31  C   UNL     1      51.394   8.810  12.406  0.00  0.00    +0.000 C 
BRANCH  30  32
ATOM     32  C   UNL     1      50.083   8.763  14.424  0.00  0.00    +0.000 C 
BRANCH  32  33
ATOM     33  C   UNL     1      50.048   7.514  15.291  0.00  0.00    +0.000 A 
ATOM     34  C   UNL     1      48.827   6.905  15.577  0.00  0.00    +0.000 A 
ATOM     35  C   UNL     1      48.793   5.873  16.511  0.00  0.00    +0.000 A 
ATOM     36  C   UNL     1      49.976   5.472  17.120  0.00  0.00    +0.000 A 
ATOM     37  C   UNL     1      51.149   6.114  16.759  0.00  0.00    +0.000 A 
ATOM     38  N   UNL     1      51.214   7.120  15.864  0.00  0.00    +0.000 NA
ENDBRANCH  32  33
ENDBRANCH  30  32
ENDBRANCH  29  30
ENDBRANCH  26  29
ENDBRANCH  22  23
ENDBRANCH  20  22
ENDBRANCH   2  20
TORSDOF 11
ENDMDL
MODEL 3
REMARK VINA RESULT:    -7.518      3.010      4.225
REMARK INTER + INTRA:         -14.090
REMARK INTER:                 -12.476
REMARK INTRA:                  -1.614
REMARK UNBOUND:                -1.737
REMARK  Name = 
REMARK  13 active torsions:
REMARK  status: ('A' for Active; 'I' for Inactive)
REMARK    1  A    between atoms: C_1  and  C_2
REMARK    2  A    between atoms: C_2  and  N_3
REMARK    3  A    between atoms: C_2  and  C_21
REMARK    4  A    between atoms: N_3  and  C_4
REMARK    5  A    between atoms: C_4  and  C_5
REMARK    6  A    between atoms: C_8  and  C_9
REMARK    7  A    between atoms: C_9  and  N_10
REMARK    8  A    between atoms: N_10  and  C_11
REMARK    9  A    between atoms: N_10  and  C_12
REMARK   10  A    between atoms: C_12  and  C_13
REMARK   11  A    between atoms: C_24  and  C_25
REMARK   12  A    between atoms: N_27  and  C_28
REMARK   13  A    between atoms: C_28  and  C_29
REMARK                            x       y       z     vdW  Elec       q    Type
REMARK                         _______ _______ _______ _____ _____    ______ ____
ROOT
ATOM      1  C   UNL     1      43.567   3.584  12.075  0.00  0.00    +0.000 C 
ATOM      2  C   UNL     1      43.511   4.335  10.738  0.00  0.00    +0.000 C 
ENDROOT
BRANCH   2   3
ATOM      3  C   UNL     1      44.361   3.676   9.652  0.00  0.00    +0.000 A 
ATOM      4  C   UNL     1      45.069   4.492   8.745  0.00  0.00    +0.000 A 
ATOM      5  C   UNL     1      45.986   3.945   7.845  0.00  0.00    +0.000 A 
ATOM      6  C   UNL     1      46.160   2.559   7.796  0.00  0.00    +0.000 A 
ATOM      7  C   UNL     1      45.454   1.739   8.682  0.00  0.00    +0.000 A 
ATOM      8  C   UNL     1      44.569   2.292   9.607  0.00  0.00    +0.000 A 
BRANCH   6   9
ATOM      9  C   UNL     1      47.092   1.911   6.841  0.00  0.00    +0.000 C 
ATOM     10  O   UNL     1      48.018   1.228   7.259  0.00  0.00    +0.000 OA
ATOM     11  N   UNL     1      46.814   2.086   5.504  0.00  0.00    +0.000 N 
ATOM     12  H   UNL     1      45.986   2.587   5.215  0.00  0.00    +0.000 HD
BRANCH  11  13
ATOM     13  C   UNL     1      47.599   1.436   4.480  0.00  0.00    +0.000 C 
BRANCH  13  14
ATOM     14  C   UNL     1      46.759   0.515   3.638  0.00  0.00    +0.000 A 
ATOM     15  C   UNL     1      45.780   0.997   2.767  0.00  0.00    +0.000 A 
ATOM     16  C   UNL     1      45.005   0.095   2.035  0.00  0.00    +0.000 A 
ATOM     17  C   UNL     1      45.241  -1.259   2.206  0.00  0.00    +0.000 A 
ATOM     18  N   UNL     1      46.178  -1.762   3.039  0.00  0.00    +0.000 NA
ATOM     19  C   UNL     1      46.908  -0.864   3.739  0.00  0.00    +0.000 A 
ENDBRANCH  13  14
ENDBRANCH  11  13
ENDBRANCH   6   9
ENDBRANCH   2   3
BRANCH   2  20
ATOM     20  N   UNL     1      43.900   5.740  10.971  0.00  0.00    +0.000 NA
ATOM     21  H   UNL     1      43.063   6.315  11.043  0.00  0.00    +0.000 HD
BRANCH  20  22
ATOM     22  C   UNL     1      44.676   5.891  12.202  0.00  0.00    +0.000 C 
BRANCH  22  23
ATOM     23  C   UNL     1      45.761   6.925  12.106  0.00  0.00    +0.000 A 
ATOM     24  C   UNL     1      45.482   8.252  12.471  0.00  0.00    +0.000 A 
ATOM     25  C   UNL     1      46.501   9.191  12.540  0.00  0.00    +0.000 A 
ATOM     26  C   UNL     1      47.821   8.815  12.254  0.00  0.00    +0.000 A 
ATOM     27  C   UNL     1      48.088   7.506  11.832  0.00  0.00    +0.000 A 
ATOM     28  C   UNL     1      47.061   6.566  11.755  0.00  0.00    +0.000 A 
BRANCH  26  29
ATOM     29  C   UNL     1      48.950   9.801  12.438  0.00  0.00    +0.000 C 
BRANCH  29  30
ATOM     30  N   UNL     1      49.710  10.047  11.194  0.00  0.00    +0.000 NA
ATOM     31  C   UNL     1      49.227  11.232  10.482  0.00  0.00    +0.000 C 
BRANCH  30  32
ATOM     32  C   UNL     1      51.148  10.209  11.509  0.00  0.00    +0.000 C 
BRANCH  32  33
ATOM     33  C   UNL     1      52.024   9.182  10.808  0.00  0.00    +0.000 A 
ATOM     34  C   UNL     1      51.530   7.901  10.569  0.00  0.00    +0.000 A 
ATOM     35  C   UNL     1      52.400   6.924  10.089  0.00  0.00    +0.000 A 
ATOM     36  C   UNL     1      53.727   7.258   9.851  0.00  0.00    +0.000 A 
ATOM     37  C   UNL     1      54.129   8.562  10.092  0.00  0.00    +0.000 A 
ATOM     38  N   UNL     1      53.314   9.527  10.562  0.00  0.00    +0.000 NA
ENDBRANCH  32  33
ENDBRANCH  30  32
ENDBRANCH  29  30
ENDBRANCH  26  29
ENDBRANCH  22  23
ENDBRANCH  20  22
ENDBRANCH   2  20
TORSDOF 11
ENDMDL
MODEL 4
REMARK VINA RESULT:    -7.350      2.679      5.727
REMARK INTER + INTRA:         -13.813
REMARK INTER:                 -11.583
REMARK INTRA:                  -2.231
REMARK UNBOUND:                -1.737
REMARK  Name = 
REMARK  13 active torsions:
REMARK  status: ('A' for Active; 'I' for Inactive)
REMARK    1  A    between atoms: C_1  and  C_2
REMARK    2  A    between atoms: C_2  and  N_3
REMARK    3  A    between atoms: C_2  and  C_21
REMARK    4  A    between atoms: N_3  and  C_4
REMARK    5  A    between atoms: C_4  and  C_5
REMARK    6  A    between atoms: C_8  and  C_9
REMARK    7  A    between atoms: C_9  and  N_10
REMARK    8  A    between atoms: N_10  and  C_11
REMARK    9  A    between atoms: N_10  and  C_12
REMARK   10  A    between atoms: C_12  and  C_13
REMARK   11  A    between atoms: C_24  and  C_25
REMARK   12  A    between atoms: N_27  and  C_28
REMARK   13  A    between atoms: C_28  and  C_29
REMARK                            x       y       z     vdW  Elec       q    Type
REMARK                         _______ _______ _______ _____ _____    ______ ____
ROOT
ATOM      1  C   UNL     1      49.633   9.052  14.169  0.00  0.00    +0.000 C 
ATOM      2  C   UNL     1      48.428   8.312  14.766  0.00  0.00    +0.000 C 
ENDROOT
BRANCH   2   3
ATOM      3  C   UNL     1      47.694   7.450  13.740  0.00  0.00    +0.000 A 
ATOM      4  C   UNL     1      47.744   6.046  13.862  0.00  0.00    +0.000 A 
ATOM      5  C   UNL     1      46.958   5.222  13.054  0.00  0.00    +0.000 A 
ATOM      6  C   UNL     1      46.156   5.792  12.063  0.00  0.00    +0.000 A 
ATOM      7  C   UNL     1      46.108   7.182  11.923  0.00  0.00    +0.000 A 
ATOM      8  C   UNL     1      46.863   8.005  12.759  0.00  0.00    +0.000 A 
BRANCH   6   9
ATOM      9  C   UNL     1      45.324   4.973  11.148  0.00  0.00    +0.000 C 
ATOM     10  O   UNL     1      44.367   4.346  11.588  0.00  0.00    +0.000 OA
ATOM     11  N   UNL     1      45.663   5.012   9.814  0.00  0.00    +0.000 N 
ATOM     12  H   UNL     1      46.408   5.615   9.494  0.00  0.00    +0.000 HD
BRANCH  11  13
ATOM     13  C   UNL     1      44.877   4.323   8.816  0.00  0.00    +0.000 C 
BRANCH  13  14
ATOM     14  C   UNL     1      45.662   3.226   8.152  0.00  0.00    +0.000 A 
ATOM     15  C   UNL     1      46.389   3.442   6.980  0.00  0.00    +0.000 A 
ATOM     16  C   UNL     1      47.072   2.377   6.387  0.00  0.00    +0.000 A 
ATOM     17  C   UNL     1      46.997   1.134   6.992  0.00  0.00    +0.000 A 
ATOM     18  N   UNL     1      46.304   0.887   8.125  0.00  0.00    +0.000 NA
ATOM     19  C   UNL     1      45.648   1.936   8.673  0.00  0.00    +0.000 A 
ENDBRANCH  13  14
ENDBRANCH  11  13
ENDBRANCH   6   9
ENDBRANCH   2   3
BRANCH   2  20
ATOM     20  N   UNL     1      47.535   9.302  15.399  0.00  0.00    +0.000 NA
ATOM     21  H   UNL     1      46.778   8.817  15.877  0.00  0.00    +0.000 HD
BRANCH  20  22
ATOM     22  C   UNL     1      48.246  10.130  16.374  0.00  0.00    +0.000 C 
BRANCH  22  23
ATOM     23  C   UNL     1      48.583   9.407  17.645  0.00  0.00    +0.000 A 
ATOM     24  C   UNL     1      47.546   8.878  18.432  0.00  0.00    +0.000 A 
ATOM     25  C   UNL     1      47.834   8.074  19.526  0.00  0.00    +0.000 A 
ATOM     26  C   UNL     1      49.167   7.778  19.846  0.00  0.00    +0.000 A 
ATOM     27  C   UNL     1      50.201   8.356  19.097  0.00  0.00    +0.000 A 
ATOM     28  C   UNL     1      49.909   9.170  18.003  0.00  0.00    +0.000 A 
BRANCH  26  29
ATOM     29  C   UNL     1      49.484   6.813  20.964  0.00  0.00    +0.000 C 
BRANCH  29  30
ATOM     30  N   UNL     1      49.910   5.484  20.475  0.00  0.00    +0.000 NA
ATOM     31  C   UNL     1      50.868   4.848  21.383  0.00  0.00    +0.000 C 
BRANCH  30  32
ATOM     32  C   UNL     1      48.728   4.609  20.309  0.00  0.00    +0.000 C 
BRANCH  32  33
ATOM     33  C   UNL     1      48.505   4.188  18.865  0.00  0.00    +0.000 A 
ATOM     34  C   UNL     1      47.392   4.661  18.171  0.00  0.00    +0.000 A 
ATOM     35  C   UNL     1      47.108   4.130  16.915  0.00  0.00    +0.000 A 
ATOM     36  C   UNL     1      47.946   3.157  16.386  0.00  0.00    +0.000 A 
ATOM     37  C   UNL     1      49.045   2.762  17.131  0.00  0.00    +0.000 A 
ATOM     38  N   UNL     1      49.344   3.252  18.351  0.00  0.00    +0.000 NA
ENDBRANCH  32  33
ENDBRANCH  30  32
ENDBRANCH  29  30
ENDBRANCH  26  29
ENDBRANCH  22  23
ENDBRANCH  20  22
ENDBRANCH   2  20
TORSDOF 11
ENDMDL
MODEL 5
REMARK VINA RESULT:    -7.165      2.425      4.479
REMARK INTER + INTRA:         -13.510
REMARK INTER:                 -11.513
REMARK INTRA:                  -1.997
REMARK UNBOUND:                -1.737
REMARK  Name = 
REMARK  13 active torsions:
REMARK  status: ('A' for Active; 'I' for Inactive)
REMARK    1  A    between atoms: C_1  and  C_2
REMARK    2  A    between atoms: C_2  and  N_3
REMARK    3  A    between atoms: C_2  and  C_21
REMARK    4  A    between atoms: N_3  and  C_4
REMARK    5  A    between atoms: C_4  and  C_5
REMARK    6  A    between atoms: C_8  and  C_9
REMARK    7  A    between atoms: C_9  and  N_10
REMARK    8  A    between atoms: N_10  and  C_11
REMARK    9  A    between atoms: N_10  and  C_12
REMARK   10  A    between atoms: C_12  and  C_13
REMARK   11  A    between atoms: C_24  and  C_25
REMARK   12  A    between atoms: N_27  and  C_28
REMARK   13  A    between atoms: C_28  and  C_29
REMARK                            x       y       z     vdW  Elec       q    Type
REMARK                         _______ _______ _______ _____ _____    ______ ____
ROOT
ATOM      1  C   UNL     1      43.330   2.715  12.286  0.00  0.00    +0.000 C 
ATOM      2  C   UNL     1      43.505   3.960  11.406  0.00  0.00    +0.000 C 
ENDROOT
BRANCH   2   3
ATOM      3  C   UNL     1      44.392   3.705  10.189  0.00  0.00    +0.000 A 
ATOM      4  C   UNL     1      44.674   2.376   9.811  0.00  0.00    +0.000 A 
ATOM      5  C   UNL     1      45.338   2.090   8.616  0.00  0.00    +0.000 A 
ATOM      6  C   UNL     1      45.789   3.139   7.810  0.00  0.00    +0.000 A 
ATOM      7  C   UNL     1      45.527   4.461   8.181  0.00  0.00    +0.000 A 
ATOM      8  C   UNL     1      44.828   4.743   9.354  0.00  0.00    +0.000 A 
BRANCH   6   9
ATOM      9  C   UNL     1      46.531   2.905   6.547  0.00  0.00    +0.000 C 
ATOM     10  O   UNL     1      46.775   3.843   5.799  0.00  0.00    +0.000 OA
ATOM     11  N   UNL     1      46.952   1.615   6.317  0.00  0.00    +0.000 N 
ATOM     12  H   UNL     1      46.799   0.895   7.010  0.00  0.00    +0.000 HD
BRANCH  11  13
ATOM     13  C   UNL     1      47.755   1.278   5.164  0.00  0.00    +0.000 C 
BRANCH  13  14
ATOM     14  C   UNL     1      46.942   0.591   4.103  0.00  0.00    +0.000 A 
ATOM     15  C   UNL     1      46.066   1.292   3.272  0.00  0.00    +0.000 A 
ATOM     16  C   UNL     1      45.309   0.597   2.326  0.00  0.00    +0.000 A 
ATOM     17  C   UNL     1      45.458  -0.777   2.250  0.00  0.00    +0.000 A 
ATOM     18  N   UNL     1      46.294  -1.490   3.037  0.00  0.00    +0.000 NA
ATOM     19  C   UNL     1      47.009  -0.790   3.947  0.00  0.00    +0.000 A 
ENDBRANCH  13  14
ENDBRANCH  11  13
ENDBRANCH   6   9
ENDBRANCH   2   3
BRANCH   2  20
ATOM     20  N   UNL     1      44.016   5.061  12.245  0.00  0.00    +0.000 NA
ATOM     21  H   UNL     1      43.275   5.389  12.862  0.00  0.00    +0.000 HD
BRANCH  20  22
ATOM     22  C   UNL     1      45.151   4.637  13.066  0.00  0.00    +0.000 C 
BRANCH  22  23
ATOM     23  C   UNL     1      46.349   5.533  12.946  0.00  0.00    +0.000 A 
ATOM     24  C   UNL     1      46.453   6.402  11.846  0.00  0.00    +0.000 A 
ATOM     25  C   UNL     1      47.466   7.347  11.791  0.00  0.00    +0.000 A 
ATOM     26  C   UNL     1      48.390   7.447  12.841  0.00  0.00    +0.000 A 
ATOM     27  C   UNL     1      48.322   6.540  13.907  0.00  0.00    +0.000 A 
ATOM     28  C   UNL     1      47.307   5.585  13.957  0.00  0.00    +0.000 A 
BRANCH  26  29
ATOM     29  C   UNL     1      49.425   8.547  12.842  0.00  0.00    +0.000 C 
BRANCH  29  30
ATOM     30  N   UNL     1      48.843   9.886  13.077  0.00  0.00    +0.000 NA
ATOM     31  C   UNL     1      49.407  10.526  14.268  0.00  0.00    +0.000 C 
BRANCH  30  32
ATOM     32  C   UNL     1      49.073  10.747  11.895  0.00  0.00    +0.000 C 
BRANCH  32  33
ATOM     33  C   UNL     1      47.779  11.207  11.241  0.00  0.00    +0.000 A 
ATOM     34  C   UNL     1      46.555  10.844  11.800  0.00  0.00    +0.000 A 
ATOM     35  C   UNL     1      45.386  11.121  11.095  0.00  0.00    +0.000 A 
ATOM     36  C   UNL     1      45.473  11.762   9.866  0.00  0.00    +0.000 A 
ATOM     37  C   UNL     1      46.728  12.111   9.395  0.00  0.00    +0.000 A 
ATOM     38  N   UNL     1      47.878  11.851  10.050  0.00  0.00    +0.000 NA
ENDBRANCH  32  33
ENDBRANCH  30  32
ENDBRANCH  29  30
ENDBRANCH  26  29
ENDBRANCH  22  23
ENDBRANCH  20  22
ENDBRANCH   2  20
TORSDOF 11
ENDMDL
MODEL 6
REMARK VINA RESULT:    -7.161      1.914      2.960
REMARK INTER + INTRA:         -13.504
REMARK INTER:                 -12.097
REMARK INTRA:                  -1.407
REMARK UNBOUND:                -1.737
REMARK  Name = 
REMARK  13 active torsions:
REMARK  status: ('A' for Active; 'I' for Inactive)
REMARK    1  A    between atoms: C_1  and  C_2
REMARK    2  A    between atoms: C_2  and  N_3
REMARK    3  A    between atoms: C_2  and  C_21
REMARK    4  A    between atoms: N_3  and  C_4
REMARK    5  A    between atoms: C_4  and  C_5
REMARK    6  A    between atoms: C_8  and  C_9
REMARK    7  A    between atoms: C_9  and  N_10
REMARK    8  A    between atoms: N_10  and  C_11
REMARK    9  A    between atoms: N_10  and  C_12
REMARK   10  A    between atoms: C_12  and  C_13
REMARK   11  A    between atoms: C_24  and  C_25
REMARK   12  A    between atoms: N_27  and  C_28
REMARK   13  A    between atoms: C_28  and  C_29
REMARK                            x       y       z     vdW  Elec       q    Type
REMARK                         _______ _______ _______ _____ _____    ______ ____
ROOT
ATOM      1  C   UNL     1      43.232   3.325  11.804  0.00  0.00    +0.000 C 
ATOM      2  C   UNL     1      43.653   4.339  10.731  0.00  0.00    +0.000 C 
ENDROOT
BRANCH   2   3
ATOM      3  C   UNL     1      44.488   3.709   9.617  0.00  0.00    +0.000 A 
ATOM      4  C   UNL     1      45.231   4.547   8.759  0.00  0.00    +0.000 A 
ATOM      5  C   UNL     1      46.136   4.017   7.837  0.00  0.00    +0.000 A 
ATOM      6  C   UNL     1      46.262   2.631   7.715  0.00  0.00    +0.000 A 
ATOM      7  C   UNL     1      45.521   1.790   8.551  0.00  0.00    +0.000 A 
ATOM      8  C   UNL     1      44.649   2.323   9.499  0.00  0.00    +0.000 A 
BRANCH   6   9
ATOM      9  C   UNL     1      47.179   2.002   6.732  0.00  0.00    +0.000 C 
ATOM     10  O   UNL     1      48.182   1.417   7.120  0.00  0.00    +0.000 OA
ATOM     11  N   UNL     1      46.801   2.078   5.411  0.00  0.00    +0.000 N 
ATOM     12  H   UNL     1      45.918   2.497   5.154  0.00  0.00    +0.000 HD
BRANCH  11  13
ATOM     13  C   UNL     1      47.567   1.433   4.370  0.00  0.00    +0.000 C 
BRANCH  13  14
ATOM     14  C   UNL     1      46.714   0.509   3.545  0.00  0.00    +0.000 A 
ATOM     15  C   UNL     1      45.665   0.980   2.753  0.00  0.00    +0.000 A 
ATOM     16  C   UNL     1      44.883   0.073   2.035  0.00  0.00    +0.000 A 
ATOM     17  C   UNL     1      45.182  -1.275   2.140  0.00  0.00    +0.000 A 
ATOM     18  N   UNL     1      46.187  -1.768   2.896  0.00  0.00    +0.000 NA
ATOM     19  C   UNL     1      46.923  -0.866   3.584  0.00  0.00    +0.000 A 
ENDBRANCH  13  14
ENDBRANCH  11  13
ENDBRANCH   6   9
ENDBRANCH   2   3
BRANCH   2  20
ATOM     20  N   UNL     1      44.358   5.455  11.390  0.00  0.00    +0.000 NA
ATOM     21  H   UNL     1      43.677   6.131  11.732  0.00  0.00    +0.000 HD
BRANCH  20  22
ATOM     22  C   UNL     1      45.166   4.996  12.521  0.00  0.00    +0.000 C 
BRANCH  22  23
ATOM     23  C   UNL     1      46.467   5.729  12.668  0.00  0.00    +0.000 A 
ATOM     24  C   UNL     1      46.884   6.604  11.650  0.00  0.00    +0.000 A 
ATOM     25  C   UNL     1      47.999   7.409  11.829  0.00  0.00    +0.000 A 
ATOM     26  C   UNL     1      48.714   7.359  13.035  0.00  0.00    +0.000 A 
ATOM     27  C   UNL     1      48.333   6.443  14.024  0.00  0.00    +0.000 A 
ATOM     28  C   UNL     1      47.215   5.629  13.839  0.00  0.00    +0.000 A 
BRANCH  26  29
ATOM     29  C   UNL     1      49.859   8.314  13.280  0.00  0.00    +0.000 C 
BRANCH  29  30
ATOM     30  N   UNL     1      50.068   8.606  14.714  0.00  0.00    +0.000 NA
ATOM     31  C   UNL     1      51.490   8.616  15.070  0.00  0.00    +0.000 C 
BRANCH  30  32
ATOM     32  C   UNL     1      49.463   9.915  15.053  0.00  0.00    +0.000 C 
BRANCH  32  33
ATOM     33  C   UNL     1      49.243  10.093  16.546  0.00  0.00    +0.000 A 
ATOM     34  C   UNL     1      48.008   9.770  17.106  0.00  0.00    +0.000 A 
ATOM     35  C   UNL     1      47.765  10.104  18.437  0.00  0.00    +0.000 A 
ATOM     36  C   UNL     1      48.763  10.736  19.168  0.00  0.00    +0.000 A 
ATOM     37  C   UNL     1      49.970  10.998  18.542  0.00  0.00    +0.000 A 
ATOM     38  N   UNL     1      50.233  10.694  17.256  0.00  0.00    +0.000 NA
ENDBRANCH  32  33
ENDBRANCH  30  32
ENDBRANCH  29  30
ENDBRANCH  26  29
ENDBRANCH  22  23
ENDBRANCH  20  22
ENDBRANCH   2  20
TORSDOF 11
ENDMDL
MODEL 7
REMARK VINA RESULT:    -7.105      3.556     10.229
REMARK INTER + INTRA:         -13.411
REMARK INTER:                 -11.274
REMARK INTRA:                  -2.137
REMARK UNBOUND:                -1.737
REMARK  Name = 
REMARK  13 active torsions:
REMARK  status: ('A' for Active; 'I' for Inactive)
REMARK    1  A    between atoms: C_1  and  C_2
REMARK    2  A    between atoms: C_2  and  N_3
REMARK    3  A    between atoms: C_2  and  C_21
REMARK    4  A    between atoms: N_3  and  C_4
REMARK    5  A    between atoms: C_4  and  C_5
REMARK    6  A    between atoms: C_8  and  C_9
REMARK    7  A    between atoms: C_9  and  N_10
REMARK    8  A    between atoms: N_10  and  C_11
REMARK    9  A    between atoms: N_10  and  C_12
REMARK   10  A    between atoms: C_12  and  C_13
REMARK   11  A    between atoms: C_24  and  C_25
REMARK   12  A    between atoms: N_27  and  C_28
REMARK   13  A    between atoms: C_28  and  C_29
REMARK                            x       y       z     vdW  Elec       q    Type
REMARK                         _______ _______ _______ _____ _____    ______ ____
ROOT
ATOM      1  C   UNL     1      50.911  10.856  12.401  0.00  0.00    +0.000 C 
ATOM      2  C   UNL     1      49.822  11.137  13.444  0.00  0.00    +0.000 C 
ENDROOT
BRANCH   2   3
ATOM      3  C   UNL     1      49.681  10.014  14.470  0.00  0.00    +0.000 A 
ATOM      4  C   UNL     1      48.799  10.184  15.558  0.00  0.00    +0.000 A 
ATOM      5  C   UNL     1      48.510   9.129  16.426  0.00  0.00    +0.000 A 
ATOM      6  C   UNL     1      49.153   7.901  16.255  0.00  0.00    +0.000 A 
ATOM      7  C   UNL     1      50.039   7.724  15.189  0.00  0.00    +0.000 A 
ATOM      8  C   UNL     1      50.295   8.767  14.299  0.00  0.00    +0.000 A 
BRANCH   6   9
ATOM      9  C   UNL     1      48.917   6.751  17.162  0.00  0.00    +0.000 C 
ATOM     10  O   UNL     1      48.597   6.947  18.327  0.00  0.00    +0.000 OA
ATOM     11  N   UNL     1      49.029   5.499  16.601  0.00  0.00    +0.000 N 
ATOM     12  H   UNL     1      49.210   5.396  15.612  0.00  0.00    +0.000 HD
BRANCH  11  13
ATOM     13  C   UNL     1      48.741   4.304  17.360  0.00  0.00    +0.000 C 
BRANCH  13  14
ATOM     14  C   UNL     1      49.952   3.421  17.486  0.00  0.00    +0.000 A 
ATOM     15  C   UNL     1      51.156   3.887  18.018  0.00  0.00    +0.000 A 
ATOM     16  C   UNL     1      52.259   3.033  18.078  0.00  0.00    +0.000 A 
ATOM     17  C   UNL     1      52.113   1.741  17.601  0.00  0.00    +0.000 A 
ATOM     18  N   UNL     1      50.966   1.255  17.079  0.00  0.00    +0.000 NA
ATOM     19  C   UNL     1      49.917   2.108  17.028  0.00  0.00    +0.000 A 
ENDBRANCH  13  14
ENDBRANCH  11  13
ENDBRANCH   6   9
ENDBRANCH   2   3
BRANCH   2  20
ATOM     20  N   UNL     1      48.554  11.407  12.739  0.00  0.00    +0.000 NA
ATOM     21  H   UNL     1      48.553  12.367  12.399  0.00  0.00    +0.000 HD
BRANCH  20  22
ATOM     22  C   UNL     1      48.365  10.510  11.598  0.00  0.00    +0.000 C 
BRANCH  22  23
ATOM     23  C   UNL     1      47.413   9.381  11.872  0.00  0.00    +0.000 A 
ATOM     24  C   UNL     1      46.056   9.664  12.101  0.00  0.00    +0.000 A 
ATOM     25  C   UNL     1      45.131   8.635  12.201  0.00  0.00    +0.000 A 
ATOM     26  C   UNL     1      45.547   7.303  12.065  0.00  0.00    +0.000 A 
ATOM     27  C   UNL     1      46.910   7.020  11.899  0.00  0.00    +0.000 A 
ATOM     28  C   UNL     1      47.839   8.056  11.805  0.00  0.00    +0.000 A 
BRANCH  26  29
ATOM     29  C   UNL     1      44.531   6.186  12.059  0.00  0.00    +0.000 C 
BRANCH  29  30
ATOM     30  N   UNL     1      45.070   4.918  11.523  0.00  0.00    +0.000 NA
ATOM     31  C   UNL     1      45.265   3.917  12.576  0.00  0.00    +0.000 C 
BRANCH  30  32
ATOM     32  C   UNL     1      44.156   4.380  10.490  0.00  0.00    +0.000 C 
BRANCH  32  33
ATOM     33  C   UNL     1      44.893   3.695   9.351  0.00  0.00    +0.000 A 
ATOM     34  C   UNL     1      44.984   2.304   9.324  0.00  0.00    +0.000 A 
ATOM     35  C   UNL     1      45.808   1.703   8.375  0.00  0.00    +0.000 A 
ATOM     36  C   UNL     1      46.503   2.504   7.478  0.00  0.00    +0.000 A 
ATOM     37  C   UNL     1      46.335   3.876   7.557  0.00  0.00    +0.000 A 
ATOM     38  N   UNL     1      45.551   4.488   8.467  0.00  0.00    +0.000 NA
ENDBRANCH  32  33
ENDBRANCH  30  32
ENDBRANCH  29  30
ENDBRANCH  26  29
ENDBRANCH  22  23
ENDBRANCH  20  22
ENDBRANCH   2  20
TORSDOF 11
ENDMDL
MODEL 8
REMARK VINA RESULT:    -6.998      3.555      7.002
REMARK INTER + INTRA:         -13.236
REMARK INTER:                 -10.183
REMARK INTRA:                  -3.053
REMARK UNBOUND:                -1.737
REMARK  Name = 
REMARK  13 active torsions:
REMARK  status: ('A' for Active; 'I' for Inactive)
REMARK    1  A    between atoms: C_1  and  C_2
REMARK    2  A    between atoms: C_2  and  N_3
REMARK    3  A    between atoms: C_2  and  C_21
REMARK    4  A    between atoms: N_3  and  C_4
REMARK    5  A    between atoms: C_4  and  C_5
REMARK    6  A    between atoms: C_8  and  C_9
REMARK    7  A    between atoms: C_9  and  N_10
REMARK    8  A    between atoms: N_10  and  C_11
REMARK    9  A    between atoms: N_10  and  C_12
REMARK   10  A    between atoms: C_12  and  C_13
REMARK   11  A    between atoms: C_24  and  C_25
REMARK   12  A    between atoms: N_27  and  C_28
REMARK   13  A    between atoms: C_28  and  C_29
REMARK                            x       y       z     vdW  Elec       q    Type
REMARK                         _______ _______ _______ _____ _____    ______ ____
ROOT
ATOM      1  C   UNL     1      52.290   9.077  13.245  0.00  0.00    +0.000 C 
ATOM      2  C   UNL     1      51.280   8.915  14.388  0.00  0.00    +0.000 C 
ENDROOT
BRANCH   2   3
ATOM      3  C   UNL     1      50.185   7.898  14.071  0.00  0.00    +0.000 A 
ATOM      4  C   UNL     1      49.561   7.208  15.131  0.00  0.00    +0.000 A 
ATOM      5  C   UNL     1      48.446   6.396  14.909  0.00  0.00    +0.000 A 
ATOM      6  C   UNL     1      47.979   6.211  13.606  0.00  0.00    +0.000 A 
ATOM      7  C   UNL     1      48.598   6.878  12.545  0.00  0.00    +0.000 A 
ATOM      8  C   UNL     1      49.685   7.721  12.775  0.00  0.00    +0.000 A 
BRANCH   6   9
ATOM      9  C   UNL     1      46.822   5.335  13.296  0.00  0.00    +0.000 C 
ATOM     10  O   UNL     1      46.610   4.339  13.977  0.00  0.00    +0.000 OA
ATOM     11  N   UNL     1      46.009   5.740  12.262  0.00  0.00    +0.000 N 
ATOM     12  H   UNL     1      46.181   6.617  11.790  0.00  0.00    +0.000 HD
BRANCH  11  13
ATOM     13  C   UNL     1      44.806   5.017  11.921  0.00  0.00    +0.000 C 
BRANCH  13  14
ATOM     14  C   UNL     1      44.897   4.403  10.551  0.00  0.00    +0.000 A 
ATOM     15  C   UNL     1      44.409   3.123  10.280  0.00  0.00    +0.000 A 
ATOM     16  C   UNL     1      44.552   2.589   8.998  0.00  0.00    +0.000 A 
ATOM     17  C   UNL     1      45.182   3.358   8.034  0.00  0.00    +0.000 A 
ATOM     18  N   UNL     1      45.668   4.599   8.260  0.00  0.00    +0.000 NA
ATOM     19  C   UNL     1      45.520   5.087   9.512  0.00  0.00    +0.000 A 
ENDBRANCH  13  14
ENDBRANCH  11  13
ENDBRANCH   6   9
ENDBRANCH   2   3
BRANCH   2  20
ATOM     20  N   UNL     1      50.725  10.242  14.717  0.00  0.00    +0.000 NA
ATOM     21  H   UNL     1      49.711  10.216  14.632  0.00  0.00    +0.000 HD
BRANCH  20  22
ATOM     22  C   UNL     1      51.067  10.651  16.081  0.00  0.00    +0.000 C 
BRANCH  22  23
ATOM     23  C   UNL     1      50.139  10.100  17.124  0.00  0.00    +0.000 A 
ATOM     24  C   UNL     1      48.756  10.315  16.999  0.00  0.00    +0.000 A 
ATOM     25  C   UNL     1      47.867   9.688  17.859  0.00  0.00    +0.000 A 
ATOM     26  C   UNL     1      48.346   8.827  18.857  0.00  0.00    +0.000 A 
ATOM     27  C   UNL     1      49.728   8.662  19.019  0.00  0.00    +0.000 A 
ATOM     28  C   UNL     1      50.620   9.299  18.158  0.00  0.00    +0.000 A 
BRANCH  26  29
ATOM     29  C   UNL     1      47.379   8.053  19.722  0.00  0.00    +0.000 C 
BRANCH  29  30
ATOM     30  N   UNL     1      47.713   6.616  19.817  0.00  0.00    +0.000 NA
ATOM     31  C   UNL     1      47.413   6.070  21.144  0.00  0.00    +0.000 C 
BRANCH  30  32
ATOM     32  C   UNL     1      46.965   5.858  18.788  0.00  0.00    +0.000 C 
BRANCH  32  33
ATOM     33  C   UNL     1      47.759   4.691  18.224  0.00  0.00    +0.000 A 
ATOM     34  C   UNL     1      49.151   4.722  18.255  0.00  0.00    +0.000 A 
ATOM     35  C   UNL     1      49.862   3.732  17.579  0.00  0.00    +0.000 A 
ATOM     36  C   UNL     1      49.162   2.739  16.906  0.00  0.00    +0.000 A 
ATOM     37  C   UNL     1      47.778   2.768  16.946  0.00  0.00    +0.000 A 
ATOM     38  N   UNL     1      47.063   3.714  17.586  0.00  0.00    +0.000 NA
ENDBRANCH  32  33
ENDBRANCH  30  32
ENDBRANCH  29  30
ENDBRANCH  26  29
ENDBRANCH  22  23
ENDBRANCH  20  22
ENDBRANCH   2  20
TORSDOF 11
ENDMDL
MODEL 9
REMARK VINA RESULT:    -6.748      1.943      3.106
REMARK INTER + INTRA:         -12.824
REMARK INTER:                 -12.012
REMARK INTRA:                  -0.812
REMARK UNBOUND:                -1.737
REMARK  Name = 
REMARK  13 active torsions:
REMARK  status: ('A' for Active; 'I' for Inactive)
REMARK    1  A    between atoms: C_1  and  C_2
REMARK    2  A    between atoms: C_2  and  N_3
REMARK    3  A    between atoms: C_2  and  C_21
REMARK    4  A    between atoms: N_3  and  C_4
REMARK    5  A    between atoms: C_4  and  C_5
REMARK    6  A    between atoms: C_8  and  C_9
REMARK    7  A    between atoms: C_9  and  N_10
REMARK    8  A    between atoms: N_10  and  C_11
REMARK    9  A    between atoms: N_10  and  C_12
REMARK   10  A    between atoms: C_12  and  C_13
REMARK   11  A    between atoms: C_24  and  C_25
REMARK   12  A    between atoms: N_27  and  C_28
REMARK   13  A    between atoms: C_28  and  C_29
REMARK                            x       y       z     vdW  Elec       q    Type
REMARK                         _______ _______ _______ _____ _____    ______ ____
ROOT
ATOM      1  C   UNL     1      43.240   3.135  11.600  0.00  0.00    +0.000 C 
ATOM      2  C   UNL     1      43.834   4.240  10.717  0.00  0.00    +0.000 C 
ENDROOT
BRANCH   2   3
ATOM      3  C   UNL     1      44.830   3.706   9.689  0.00  0.00    +0.000 A 
ATOM      4  C   UNL     1      45.028   2.314   9.584  0.00  0.00    +0.000 A 
ATOM      5  C   UNL     1      45.797   1.769   8.554  0.00  0.00    +0.000 A 
ATOM      6  C   UNL     1      46.436   2.619   7.648  0.00  0.00    +0.000 A 
ATOM      7  C   UNL     1      46.258   4.002   7.750  0.00  0.00    +0.000 A 
ATOM      8  C   UNL     1      45.456   4.541   8.755  0.00  0.00    +0.000 A 
BRANCH   6   9
ATOM      9  C   UNL     1      47.295   2.107   6.552  0.00  0.00    +0.000 C 
ATOM     10  O   UNL     1      48.409   1.666   6.803  0.00  0.00    +0.000 OA
ATOM     11  N   UNL     1      46.744   2.117   5.290  0.00  0.00    +0.000 N 
ATOM     12  H   UNL     1      45.787   2.410   5.152  0.00  0.00    +0.000 HD
BRANCH  11  13
ATOM     13  C   UNL     1      47.450   1.567   4.155  0.00  0.00    +0.000 C 
BRANCH  13  14
ATOM     14  C   UNL     1      46.613   0.560   3.416  0.00  0.00    +0.000 A 
ATOM     15  C   UNL     1      45.491   0.934   2.674  0.00  0.00    +0.000 A 
ATOM     16  C   UNL     1      44.729  -0.048   2.035  0.00  0.00    +0.000 A 
ATOM     17  C   UNL     1      45.122  -1.369   2.167  0.00  0.00    +0.000 A 
ATOM     18  N   UNL     1      46.200  -1.768   2.876  0.00  0.00    +0.000 NA
ATOM     19  C   UNL     1      46.914  -0.796   3.488  0.00  0.00    +0.000 A 
ENDBRANCH  13  14
ENDBRANCH  11  13
ENDBRANCH   6   9
ENDBRANCH   2   3
BRANCH   2  20
ATOM     20  N   UNL     1      44.435   5.267  11.590  0.00  0.00    +0.000 NA
ATOM     21  H   UNL     1      44.101   5.138  12.544  0.00  0.00    +0.000 HD
BRANCH  20  22
ATOM     22  C   UNL     1      45.897   5.188  11.595  0.00  0.00    +0.000 C 
BRANCH  22  23
ATOM     23  C   UNL     1      46.501   5.309  12.964  0.00  0.00    +0.000 A 
ATOM     24  C   UNL     1      46.485   4.198  13.824  0.00  0.00    +0.000 A 
ATOM     25  C   UNL     1      47.171   4.233  15.029  0.00  0.00    +0.000 A 
ATOM     26  C   UNL     1      47.894   5.379  15.392  0.00  0.00    +0.000 A 
ATOM     27  C   UNL     1      47.858   6.507  14.561  0.00  0.00    +0.000 A 
ATOM     28  C   UNL     1      47.162   6.472  13.353  0.00  0.00    +0.000 A 
BRANCH  26  29
ATOM     29  C   UNL     1      48.735   5.383  16.646  0.00  0.00    +0.000 C 
BRANCH  29  30
ATOM     30  N   UNL     1      48.032   5.964  17.810  0.00  0.00    +0.000 NA
ATOM     31  C   UNL     1      47.459   4.929  18.675  0.00  0.00    +0.000 C 
BRANCH  30  32
ATOM     32  C   UNL     1      48.967   6.803  18.593  0.00  0.00    +0.000 C 
BRANCH  32  33
ATOM     33  C   UNL     1      48.582   8.274  18.590  0.00  0.00    +0.000 A 
ATOM     34  C   UNL     1      48.093   8.862  19.755  0.00  0.00    +0.000 A 
ATOM     35  C   UNL     1      47.580  10.156  19.691  0.00  0.00    +0.000 A 
ATOM     36  C   UNL     1      47.583  10.825  18.473  0.00  0.00    +0.000 A 
ATOM     37  C   UNL     1      48.111  10.176  17.369  0.00  0.00    +0.000 A 
ATOM     38  N   UNL     1      48.608   8.923  17.398  0.00  0.00    +0.000 NA
ENDBRANCH  32  33
ENDBRANCH  30  32
ENDBRANCH  29  30
ENDBRANCH  26  29
ENDBRANCH  22  23
ENDBRANCH  20  22
ENDBRANCH   2  20
TORSDOF 11
ENDMDL
