MODEL 1
REMARK VINA RESULT:    -8.391      0.000      0.000
REMARK INTER + INTRA:         -12.031
REMARK INTER:                 -11.089
REMARK INTRA:                  -0.942
REMARK UNBOUND:                -0.942
REMARK  Name = 
REMARK  6 active torsions:
REMARK  status: ('A' for Active; 'I' for Inactive)
REMARK    1  A    between atoms: C_2  and  C_19
REMARK    2  A    between atoms: N_3  and  C_4
REMARK    3  A    between atoms: C_4  and  C_5
REMARK    4  A    between atoms: C_8  and  C_9
REMARK    5  A    between atoms: C_9  and  O_10
REMARK    6  A    between atoms: C_9  and  C_11
REMARK                            x       y       z     vdW  Elec       q    Type
REMARK                         _______ _______ _______ _____ _____    ______ ____
ROOT
ATOM      1  C   UNL     1      46.878   7.720  13.173  0.00  0.00    +0.000 C 
ENDROOT
BRANCH   1   2
ATOM      2  C   UNL     1      46.283   6.713  12.223  0.00  0.00    +0.000 A 
ATOM      3  C   UNL     1      45.363   5.768  12.691  0.00  0.00    +0.000 A 
ATOM      4  C   UNL     1      44.774   4.848  11.819  0.00  0.00    +0.000 A 
ATOM      5  C   UNL     1      45.091   4.853  10.453  0.00  0.00    +0.000 A 
ATOM      6  C   UNL     1      46.049   5.774   9.995  0.00  0.00    +0.000 A 
ATOM      7  C   UNL     1      46.641   6.691  10.870  0.00  0.00    +0.000 A 
BRANCH   5   8
ATOM      8  C   UNL     1      44.408   3.887   9.491  0.00  0.00    +0.000 C 
BRANCH   8   9
ATOM      9  C   UNL     1      45.378   3.137   8.590  0.00  0.00    +0.000 A 
ATOM     10  C   UNL     1      45.549   1.753   8.750  0.00  0.00    +0.000 A 
ATOM     11  C   UNL     1      46.501   1.056   8.001  0.00  0.00    +0.000 A 
ATOM     12  C   UNL     1      47.277   1.729   7.061  0.00  0.00    +0.000 A 
ATOM     13  C   UNL     1      47.087   3.092   6.851  0.00  0.00    +0.000 A 
ATOM     14  C   UNL     1      46.143   3.790   7.606  0.00  0.00    +0.000 A 
ENDBRANCH   8   9
BRANCH   8  15
ATOM     15  O   UNL     1      43.451   4.604   8.704  0.00  0.00    +0.000 OA
ATOM     16  H   UNL     1      42.833   3.953   8.343  0.00  0.00    +0.000 HD
ENDBRANCH   8  15
ENDBRANCH   5   8
ENDBRANCH   1   2
BRANCH   1  19
ATOM     17  O   UNL     1      49.494   6.846  13.758  0.00  0.00    +0.000 OA
ATOM     18  C   UNL     1      48.623   6.761  14.617  0.00  0.00    +0.000 C 
ATOM     19  N   UNL     1      47.315   7.110  14.398  0.00  0.00    +0.000 N 
ATOM     20  H   UNL     1      46.694   7.226  15.189  0.00  0.00    +0.000 HD
BRANCH  18  21
ATOM     21  C   UNL     1      48.914   6.228  15.949  0.00  0.00    +0.000 A 
ATOM     22  C   UNL     1      49.739   6.915  16.829  0.00  0.00    +0.000 A 
ATOM     23  S   UNL     1      49.929   6.127  18.332  0.00  0.00    +0.000 S 
ATOM     24  C   UNL     1      48.899   4.848  17.860  0.00  0.00    +0.000 A 
ATOM     25  N   UNL     1      48.595   3.830  18.700  0.00  0.00    +0.000 NA
ATOM     26  C   UNL     1      47.774   2.963  18.217  0.00  0.00    +0.000 A 
ATOM     27  N   UNL     1      47.227   3.015  16.960  0.00  0.00    +0.000 N 
ATOM     28  C   UNL     1      47.561   3.981  16.047  0.00  0.00    +0.000 A 
ATOM     29  O   UNL     1      47.176   3.907  14.889  0.00  0.00    +0.000 OA
ATOM     30  C   UNL     1      48.439   5.019  16.567  0.00  0.00    +0.000 A 
ATOM     31  H   UNL     1      46.624   2.283  16.619  0.00  0.00    +0.000 HD
ENDBRANCH  18  21
ENDBRANCH   1  19
TORSDOF 6
ENDMDL
MODEL 2
REMARK VINA RESULT:    -8.274      1.705      2.372
REMARK INTER + INTRA:         -11.876
REMARK INTER:                 -10.935
REMARK INTRA:                  -0.941
REMARK UNBOUND:                -0.942
REMARK  Name = 
REMARK  6 active torsions:
REMARK  status: ('A' for Active; 'I' for Inactive)
REMARK    1  A    between atoms: C_2  and  C_19
REMARK    2  A    between atoms: N_3  and  C_4
REMARK    3  A    between atoms: C_4  and  C_5
REMARK    4  A    between atoms: C_8  and  C_9
REMARK    5  A    between atoms: C_9  and  O_10
REMARK    6  A    between atoms: C_9  and  C_11
REMARK                            x       y       z     vdW  Elec       q    Type
REMARK                         _______ _______ _______ _____ _____    ______ ____
ROOT
ATOM      1  C   UNL     1      47.338   6.635  13.686  0.00  0.00    +0.000 C 
ENDROOT
BRANCH   1   2
ATOM      2  C   UNL     1      46.547   5.904  12.632  0.00  0.00    +0.000 A 
ATOM      3  C   UNL     1      46.355   6.485  11.372  0.00  0.00    +0.000 A 
ATOM      4  C   UNL     1      45.654   5.808  10.370  0.00  0.00    +0.000 A 
ATOM      5  C   UNL     1      45.127   4.529  10.605  0.00  0.00    +0.000 A 
ATOM      6  C   UNL     1      45.283   3.970  11.884  0.00  0.00    +0.000 A 
ATOM      7  C   UNL     1      45.981   4.650  12.887  0.00  0.00    +0.000 A 
BRANCH   5   8
ATOM      8  C   UNL     1      44.411   3.767   9.495  0.00  0.00    +0.000 C 
BRANCH   8   9
ATOM      9  C   UNL     1      45.356   3.041   8.549  0.00  0.00    +0.000 A 
ATOM     10  C   UNL     1      45.591   1.667   8.719  0.00  0.00    +0.000 A 
ATOM     11  C   UNL     1      46.525   0.996   7.925  0.00  0.00    +0.000 A 
ATOM     12  C   UNL     1      47.216   1.682   6.930  0.00  0.00    +0.000 A 
ATOM     13  C   UNL     1      46.959   3.032   6.711  0.00  0.00    +0.000 A 
ATOM     14  C   UNL     1      46.034   3.706   7.512  0.00  0.00    +0.000 A 
ENDBRANCH   8   9
BRANCH   8  15
ATOM     15  O   UNL     1      43.576   4.672   8.766  0.00  0.00    +0.000 OA
ATOM     16  H   UNL     1      42.702   4.260   8.694  0.00  0.00    +0.000 HD
ENDBRANCH   8  15
ENDBRANCH   5   8
ENDBRANCH   1   2
BRANCH   1  19
ATOM     17  O   UNL     1      49.613   6.527  15.350  0.00  0.00    +0.000 OA
ATOM     18  C   UNL     1      48.602   5.909  15.667  0.00  0.00    +0.000 C 
ATOM     19  N   UNL     1      47.475   5.863  14.889  0.00  0.00    +0.000 N 
ATOM     20  H   UNL     1      46.609   5.526  15.291  0.00  0.00    +0.000 HD
BRANCH  18  21
ATOM     21  C   UNL     1      48.544   5.125  16.901  0.00  0.00    +0.000 A 
ATOM     22  C   UNL     1      48.523   3.738  16.866  0.00  0.00    +0.000 A 
ATOM     23  S   UNL     1      48.472   3.023  18.416  0.00  0.00    +0.000 S 
ATOM     24  C   UNL     1      48.495   4.548  19.187  0.00  0.00    +0.000 A 
ATOM     25  N   UNL     1      48.503   4.665  20.536  0.00  0.00    +0.000 NA
ATOM     26  C   UNL     1      48.562   5.877  20.969  0.00  0.00    +0.000 A 
ATOM     27  N   UNL     1      48.608   6.993  20.173  0.00  0.00    +0.000 N 
ATOM     28  C   UNL     1      48.526   6.932  18.806  0.00  0.00    +0.000 A 
ATOM     29  O   UNL     1      48.412   7.950  18.140  0.00  0.00    +0.000 OA
ATOM     30  C   UNL     1      48.519   5.580  18.267  0.00  0.00    +0.000 A 
ATOM     31  H   UNL     1      48.609   7.921  20.568  0.00  0.00    +0.000 HD
ENDBRANCH  18  21
ENDBRANCH   1  19
TORSDOF 6
ENDMDL
MODEL 3
REMARK VINA RESULT:    -8.029      2.533      4.458
REMARK INTER + INTRA:         -11.552
REMARK INTER:                 -10.241
REMARK INTRA:                  -1.312
REMARK UNBOUND:                -0.942
REMARK  Name = 
REMARK  6 active torsions:
REMARK  status: ('A' for Active; 'I' for Inactive)
REMARK    1  A    between atoms: C_2  and  C_19
REMARK    2  A    between atoms: N_3  and  C_4
REMARK    3  A    between atoms: C_4  and  C_5
REMARK    4  A    between atoms: C_8  and  C_9
REMARK    5  A    between atoms: C_9  and  O_10
REMARK    6  A    between atoms: C_9  and  C_11
REMARK                            x       y       z     vdW  Elec       q    Type
REMARK                         _______ _______ _______ _____ _____    ______ ____
ROOT
ATOM      1  C   UNL     1      47.229   5.336  14.476  0.00  0.00    +0.000 C 
ENDROOT
BRANCH   1   2
ATOM      2  C   UNL     1      46.455   4.881  13.266  0.00  0.00    +0.000 A 
ATOM      3  C   UNL     1      46.175   5.785  12.234  0.00  0.00    +0.000 A 
ATOM      4  C   UNL     1      45.489   5.375  11.087  0.00  0.00    +0.000 A 
ATOM      5  C   UNL     1      45.067   4.045  10.944  0.00  0.00    +0.000 A 
ATOM      6  C   UNL     1      45.311   3.152  12.001  0.00  0.00    +0.000 A 
ATOM      7  C   UNL     1      45.993   3.565  13.150  0.00  0.00    +0.000 A 
BRANCH   5   8
ATOM      8  C   UNL     1      44.369   3.582   9.669  0.00  0.00    +0.000 C 
BRANCH   8   9
ATOM      9  C   UNL     1      45.320   3.009   8.629  0.00  0.00    +0.000 A 
ATOM     10  C   UNL     1      45.630   1.640   8.649  0.00  0.00    +0.000 A 
ATOM     11  C   UNL     1      46.572   1.105   7.766  0.00  0.00    +0.000 A 
ATOM     12  C   UNL     1      47.196   1.926   6.830  0.00  0.00    +0.000 A 
ATOM     13  C   UNL     1      46.864   3.276   6.760  0.00  0.00    +0.000 A 
ATOM     14  C   UNL     1      45.930   3.813   7.650  0.00  0.00    +0.000 A 
ENDBRANCH   8   9
BRANCH   8  15
ATOM     15  O   UNL     1      43.627   4.675   9.117  0.00  0.00    +0.000 OA
ATOM     16  H   UNL     1      44.006   5.489   9.478  0.00  0.00    +0.000 HD
ENDBRANCH   8  15
ENDBRANCH   5   8
ENDBRANCH   1   2
BRANCH   1  19
ATOM     17  O   UNL     1      49.638   6.531  15.324  0.00  0.00    +0.000 OA
ATOM     18  C   UNL     1      48.772   7.224  14.802  0.00  0.00    +0.000 C 
ATOM     19  N   UNL     1      47.551   6.734  14.413  0.00  0.00    +0.000 N 
ATOM     20  H   UNL     1      46.967   7.289  13.801  0.00  0.00    +0.000 HD
BRANCH  18  21
ATOM     21  C   UNL     1      48.965   8.660  14.594  0.00  0.00    +0.000 A 
ATOM     22  C   UNL     1      49.051   9.532  15.671  0.00  0.00    +0.000 A 
ATOM     23  S   UNL     1      49.294  11.157  15.206  0.00  0.00    +0.000 S 
ATOM     24  C   UNL     1      49.310  10.744  13.548  0.00  0.00    +0.000 A 
ATOM     25  N   UNL     1      49.513  11.673  12.584  0.00  0.00    +0.000 NA
ATOM     26  C   UNL     1      49.538  11.204  11.384  0.00  0.00    +0.000 A 
ATOM     27  N   UNL     1      49.373   9.883  11.054  0.00  0.00    +0.000 N 
ATOM     28  C   UNL     1      49.090   8.918  11.985  0.00  0.00    +0.000 A 
ATOM     29  O   UNL     1      48.794   7.783  11.639  0.00  0.00    +0.000 OA
ATOM     30  C   UNL     1      49.111   9.389  13.362  0.00  0.00    +0.000 A 
ATOM     31  H   UNL     1      49.359   9.579  10.093  0.00  0.00    +0.000 HD
ENDBRANCH  18  21
ENDBRANCH   1  19
TORSDOF 6
ENDMDL
MODEL 4
REMARK VINA RESULT:    -7.681      2.734      4.044
REMARK INTER + INTRA:         -11.092
REMARK INTER:                 -10.070
REMARK INTRA:                  -1.021
REMARK UNBOUND:                -0.942
REMARK  Name = 
REMARK  6 active torsions:
REMARK  status: ('A' for Active; 'I' for Inactive)
REMARK    1  A    between atoms: C_2  and  C_19
REMARK    2  A    between atoms: N_3  and  C_4
REMARK    3  A    between atoms: C_4  and  C_5
REMARK    4  A    between atoms: C_8  and  C_9
REMARK    5  A    between atoms: C_9  and  O_10
REMARK    6  A    between atoms: C_9  and  C_11
REMARK                            x       y       z     vdW  Elec       q    Type
REMARK                         _______ _______ _______ _____ _____    ______ ____
ROOT
ATOM      1  C   UNL     1      47.034   5.347  14.511  0.00  0.00    +0.000 C 
ENDROOT
BRANCH   1   2
ATOM      2  C   UNL     1      46.394   4.891  13.225  0.00  0.00    +0.000 A 
ATOM      3  C   UNL     1      45.930   3.576  13.103  0.00  0.00    +0.000 A 
ATOM      4  C   UNL     1      45.302   3.143  11.931  0.00  0.00    +0.000 A 
ATOM      5  C   UNL     1      45.121   4.020  10.851  0.00  0.00    +0.000 A 
ATOM      6  C   UNL     1      45.628   5.326  10.962  0.00  0.00    +0.000 A 
ATOM      7  C   UNL     1      46.260   5.756  12.133  0.00  0.00    +0.000 A 
BRANCH   5   8
ATOM      8  C   UNL     1      44.386   3.565   9.595  0.00  0.00    +0.000 C 
BRANCH   8   9
ATOM      9  C   UNL     1      45.304   2.974   8.534  0.00  0.00    +0.000 A 
ATOM     10  C   UNL     1      45.682   1.624   8.615  0.00  0.00    +0.000 A 
ATOM     11  C   UNL     1      46.598   1.081   7.710  0.00  0.00    +0.000 A 
ATOM     12  C   UNL     1      47.127   1.871   6.694  0.00  0.00    +0.000 A 
ATOM     13  C   UNL     1      46.725   3.198   6.565  0.00  0.00    +0.000 A 
ATOM     14  C   UNL     1      45.818   3.744   7.476  0.00  0.00    +0.000 A 
ENDBRANCH   8   9
BRANCH   8  15
ATOM     15  O   UNL     1      43.649   4.667   9.056  0.00  0.00    +0.000 OA
ATOM     16  H   UNL     1      43.597   4.535   8.098  0.00  0.00    +0.000 HD
ENDBRANCH   8  15
ENDBRANCH   5   8
ENDBRANCH   1   2
BRANCH   1  19
ATOM     17  O   UNL     1      49.476   6.219  15.620  0.00  0.00    +0.000 OA
ATOM     18  C   UNL     1      48.821   6.987  14.924  0.00  0.00    +0.000 C 
ATOM     19  N   UNL     1      47.598   6.663  14.394  0.00  0.00    +0.000 N 
ATOM     20  H   UNL     1      47.208   7.241  13.661  0.00  0.00    +0.000 HD
BRANCH  18  21
ATOM     21  C   UNL     1      49.285   8.346  14.642  0.00  0.00    +0.000 A 
ATOM     22  C   UNL     1      50.034   8.624  13.507  0.00  0.00    +0.000 A 
ATOM     23  S   UNL     1      50.456  10.272  13.361  0.00  0.00    +0.000 S 
ATOM     24  C   UNL     1      49.633  10.672  14.804  0.00  0.00    +0.000 A 
ATOM     25  N   UNL     1      49.565  11.946  15.257  0.00  0.00    +0.000 NA
ATOM     26  C   UNL     1      48.876  12.097  16.335  0.00  0.00    +0.000 A 
ATOM     27  N   UNL     1      48.248  11.084  17.013  0.00  0.00    +0.000 N 
ATOM     28  C   UNL     1      48.349   9.769  16.639  0.00  0.00    +0.000 A 
ATOM     29  O   UNL     1      47.909   8.880  17.353  0.00  0.00    +0.000 OA
ATOM     30  C   UNL     1      49.067   9.555  15.391  0.00  0.00    +0.000 A 
ATOM     31  H   UNL     1      47.759  11.254  17.878  0.00  0.00    +0.000 HD
ENDBRANCH  18  21
ENDBRANCH   1  19
TORSDOF 6
ENDMDL
MODEL 5
REMARK VINA RESULT:    -7.322      4.274      9.715
REMARK INTER + INTRA:         -10.618
REMARK INTER:                  -9.371
REMARK INTRA:                  -1.247
REMARK UNBOUND:                -0.942
REMARK  Name = 
REMARK  6 active torsions:
REMARK  status: ('A' for Active; 'I' for Inactive)
REMARK    1  A    between atoms: C_2  and  C_19
REMARK    2  A    between atoms: N_3  and  C_4
REMARK    3  A    between atoms: C_4  and  C_5
REMARK    4  A    between atoms: C_8  and  C_9
REMARK    5  A    between atoms: C_9  and  O_10
REMARK    6  A    between atoms: C_9  and  C_11
REMARK                            x       y       z     vdW  Elec       q    Type
REMARK                         _______ _______ _______ _____ _____    ______ ____
ROOT
ATOM      1  C   UNL     1      47.921   4.483  16.293  0.00  0.00    +0.000 C 
ENDROOT
BRANCH   1   2
ATOM      2  C   UNL     1      48.043   5.484  17.413  0.00  0.00    +0.000 A 
ATOM      3  C   UNL     1      47.201   5.392  18.528  0.00  0.00    +0.000 A 
ATOM      4  C   UNL     1      47.320   6.289  19.593  0.00  0.00    +0.000 A 
ATOM      5  C   UNL     1      48.291   7.301  19.570  0.00  0.00    +0.000 A 
ATOM      6  C   UNL     1      49.105   7.417  18.430  0.00  0.00    +0.000 A 
ATOM      7  C   UNL     1      48.981   6.522  17.363  0.00  0.00    +0.000 A 
BRANCH   5   8
ATOM      8  C   UNL     1      48.461   8.245  20.756  0.00  0.00    +0.000 C 
BRANCH   8   9
ATOM      9  C   UNL     1      47.303   9.218  20.928  0.00  0.00    +0.000 A 
ATOM     10  C   UNL     1      46.959  10.082  19.876  0.00  0.00    +0.000 A 
ATOM     11  C   UNL     1      45.963  11.049  20.040  0.00  0.00    +0.000 A 
ATOM     12  C   UNL     1      45.278  11.147  21.248  0.00  0.00    +0.000 A 
ATOM     13  C   UNL     1      45.569  10.266  22.285  0.00  0.00    +0.000 A 
ATOM     14  C   UNL     1      46.571   9.306  22.125  0.00  0.00    +0.000 A 
ENDBRANCH   8   9
BRANCH   8  15
ATOM     15  O   UNL     1      49.694   8.959  20.617  0.00  0.00    +0.000 OA
ATOM     16  H   UNL     1      49.493   9.900  20.726  0.00  0.00    +0.000 HD
ENDBRANCH   8  15
ENDBRANCH   5   8
ENDBRANCH   1   2
BRANCH   1  19
ATOM     17  O   UNL     1      48.541   5.964  13.975  0.00  0.00    +0.000 OA
ATOM     18  C   UNL     1      47.390   5.588  14.161  0.00  0.00    +0.000 C 
ATOM     19  N   UNL     1      46.992   4.913  15.287  0.00  0.00    +0.000 N 
ATOM     20  H   UNL     1      46.095   4.443  15.291  0.00  0.00    +0.000 HD
BRANCH  18  21
ATOM     21  C   UNL     1      46.327   5.879  13.198  0.00  0.00    +0.000 A 
ATOM     22  C   UNL     1      45.990   7.187  12.878  0.00  0.00    +0.000 A 
ATOM     23  S   UNL     1      44.739   7.300  11.721  0.00  0.00    +0.000 S 
ATOM     24  C   UNL     1      44.619   5.600  11.597  0.00  0.00    +0.000 A 
ATOM     25  N   UNL     1      43.751   5.008  10.743  0.00  0.00    +0.000 NA
ATOM     26  C   UNL     1      43.804   3.720  10.731  0.00  0.00    +0.000 A 
ATOM     27  N   UNL     1      44.647   2.963  11.503  0.00  0.00    +0.000 N 
ATOM     28  C   UNL     1      45.489   3.510  12.436  0.00  0.00    +0.000 A 
ATOM     29  O   UNL     1      46.109   2.799  13.213  0.00  0.00    +0.000 OA
ATOM     30  C   UNL     1      45.509   4.966  12.443  0.00  0.00    +0.000 A 
ATOM     31  H   UNL     1      44.614   1.955  11.485  0.00  0.00    +0.000 HD
ENDBRANCH  18  21
ENDBRANCH   1  19
TORSDOF 6
ENDMDL
MODEL 6
REMARK VINA RESULT:    -7.115      2.091      2.613
REMARK INTER + INTRA:         -10.345
REMARK INTER:                  -9.068
REMARK INTRA:                  -1.276
REMARK UNBOUND:                -0.942
REMARK  Name = 
REMARK  6 active torsions:
REMARK  status: ('A' for Active; 'I' for Inactive)
REMARK    1  A    between atoms: C_2  and  C_19
REMARK    2  A    between atoms: N_3  and  C_4
REMARK    3  A    between atoms: C_4  and  C_5
REMARK    4  A    between atoms: C_8  and  C_9
REMARK    5  A    between atoms: C_9  and  O_10
REMARK    6  A    between atoms: C_9  and  C_11
REMARK                            x       y       z     vdW  Elec       q    Type
REMARK                         _______ _______ _______ _____ _____    ______ ____
ROOT
ATOM      1  C   UNL     1      47.713   8.893  13.170  0.00  0.00    +0.000 C 
ENDROOT
BRANCH   1   2
ATOM      2  C   UNL     1      46.789   7.832  12.631  0.00  0.00    +0.000 A 
ATOM      3  C   UNL     1      45.607   8.200  11.977  0.00  0.00    +0.000 A 
ATOM      4  C   UNL     1      44.754   7.232  11.440  0.00  0.00    +0.000 A 
ATOM      5  C   UNL     1      45.065   5.868  11.542  0.00  0.00    +0.000 A 
ATOM      6  C   UNL     1      46.230   5.502  12.238  0.00  0.00    +0.000 A 
ATOM      7  C   UNL     1      47.080   6.471  12.779  0.00  0.00    +0.000 A 
BRANCH   5   8
ATOM      8  C   UNL     1      44.164   4.814  10.907  0.00  0.00    +0.000 C 
BRANCH   8   9
ATOM      9  C   UNL     1      44.835   4.041   9.780  0.00  0.00    +0.000 A 
ATOM     10  C   UNL     1      44.762   2.638   9.760  0.00  0.00    +0.000 A 
ATOM     11  C   UNL     1      45.446   1.899   8.792  0.00  0.00    +0.000 A 
ATOM     12  C   UNL     1      46.190   2.552   7.813  0.00  0.00    +0.000 A 
ATOM     13  C   UNL     1      46.232   3.943   7.785  0.00  0.00    +0.000 A 
ATOM     14  C   UNL     1      45.557   4.682   8.759  0.00  0.00    +0.000 A 
ENDBRANCH   8   9
BRANCH   8  15
ATOM     15  O   UNL     1      42.967   5.441  10.436  0.00  0.00    +0.000 OA
ATOM     16  H   UNL     1      42.226   5.032  10.907  0.00  0.00    +0.000 HD
ENDBRANCH   8  15
ENDBRANCH   5   8
ENDBRANCH   1   2
BRANCH   1  19
ATOM     17  O   UNL     1      49.118   9.885  15.406  0.00  0.00    +0.000 OA
ATOM     18  C   UNL     1      49.493   8.849  14.868  0.00  0.00    +0.000 C 
ATOM     19  N   UNL     1      48.903   8.330  13.744  0.00  0.00    +0.000 N 
ATOM     20  H   UNL     1      49.108   7.376  13.473  0.00  0.00    +0.000 HD
BRANCH  18  21
ATOM     21  C   UNL     1      50.649   8.105  15.369  0.00  0.00    +0.000 A 
ATOM     22  C   UNL     1      51.940   8.583  15.189  0.00  0.00    +0.000 A 
ATOM     23  S   UNL     1      53.137   7.570  15.865  0.00  0.00    +0.000 S 
ATOM     24  C   UNL     1      51.965   6.466  16.437  0.00  0.00    +0.000 A 
ATOM     25  N   UNL     1      52.309   5.365  17.147  0.00  0.00    +0.000 NA
ATOM     26  C   UNL     1      51.313   4.650  17.545  0.00  0.00    +0.000 A 
ATOM     27  N   UNL     1      49.995   4.932  17.293  0.00  0.00    +0.000 N 
ATOM     28  C   UNL     1      49.599   5.989  16.516  0.00  0.00    +0.000 A 
ATOM     29  O   UNL     1      48.430   6.119  16.183  0.00  0.00    +0.000 OA
ATOM     30  C   UNL     1      50.686   6.862  16.094  0.00  0.00    +0.000 A 
ATOM     31  H   UNL     1      49.258   4.311  17.591  0.00  0.00    +0.000 HD
ENDBRANCH  18  21
ENDBRANCH   1  19
TORSDOF 6
ENDMDL
MODEL 7
REMARK VINA RESULT:    -6.808      4.829      7.392
REMARK INTER + INTRA:          -9.938
REMARK INTER:                  -8.855
REMARK INTRA:                  -1.083
REMARK UNBOUND:                -0.942
REMARK  Name = 
REMARK  6 active torsions:
REMARK  status: ('A' for Active; 'I' for Inactive)
REMARK    1  A    between atoms: C_2  and  C_19
REMARK    2  A    between atoms: N_3  and  C_4
REMARK    3  A    between atoms: C_4  and  C_5
REMARK    4  A    between atoms: C_8  and  C_9
REMARK    5  A    between atoms: C_9  and  O_10
REMARK    6  A    between atoms: C_9  and  C_11
REMARK                            x       y       z     vdW  Elec       q    Type
REMARK                         _______ _______ _______ _____ _____    ______ ____
ROOT
ATOM      1  C   UNL     1      46.757   8.803  12.460  0.00  0.00    +0.000 C 
ENDROOT
BRANCH   1   2
ATOM      2  C   UNL     1      48.191   8.731  12.002  0.00  0.00    +0.000 A 
ATOM      3  C   UNL     1      48.899   9.908  11.731  0.00  0.00    +0.000 A 
ATOM      4  C   UNL     1      50.240   9.865  11.339  0.00  0.00    +0.000 A 
ATOM      5  C   UNL     1      50.907   8.638  11.209  0.00  0.00    +0.000 A 
ATOM      6  C   UNL     1      50.180   7.457  11.439  0.00  0.00    +0.000 A 
ATOM      7  C   UNL     1      48.838   7.502  11.826  0.00  0.00    +0.000 A 
BRANCH   5   8
ATOM      8  C   UNL     1      52.385   8.591  10.836  0.00  0.00    +0.000 C 
BRANCH   8   9
ATOM      9  C   UNL     1      52.630   8.365   9.351  0.00  0.00    +0.000 A 
ATOM     10  C   UNL     1      52.553   7.066   8.823  0.00  0.00    +0.000 A 
ATOM     11  C   UNL     1      52.866   6.817   7.484  0.00  0.00    +0.000 A 
ATOM     12  C   UNL     1      53.231   7.867   6.646  0.00  0.00    +0.000 A 
ATOM     13  C   UNL     1      53.263   9.169   7.138  0.00  0.00    +0.000 A 
ATOM     14  C   UNL     1      52.961   9.417   8.478  0.00  0.00    +0.000 A 
ENDBRANCH   8   9
BRANCH   8  15
ATOM     15  O   UNL     1      53.034   7.575  11.607  0.00  0.00    +0.000 OA
ATOM     16  H   UNL     1      53.374   6.917  10.984  0.00  0.00    +0.000 HD
ENDBRANCH   8  15
ENDBRANCH   5   8
ENDBRANCH   1   2
BRANCH   1  19
ATOM     17  O   UNL     1      44.433   8.130  11.012  0.00  0.00    +0.000 OA
ATOM     18  C   UNL     1      45.015   7.264  11.654  0.00  0.00    +0.000 C 
ATOM     19  N   UNL     1      46.118   7.518  12.430  0.00  0.00    +0.000 N 
ATOM     20  H   UNL     1      46.680   6.743  12.759  0.00  0.00    +0.000 HD
BRANCH  18  21
ATOM     21  C   UNL     1      44.540   5.880  11.675  0.00  0.00    +0.000 A 
ATOM     22  C   UNL     1      43.787   5.400  12.738  0.00  0.00    +0.000 A 
ATOM     23  S   UNL     1      43.320   3.768  12.554  0.00  0.00    +0.000 S 
ATOM     24  C   UNL     1      44.097   3.655  11.036  0.00  0.00    +0.000 A 
ATOM     25  N   UNL     1      44.060   2.519  10.298  0.00  0.00    +0.000 NA
ATOM     26  C   UNL     1      44.656   2.600   9.159  0.00  0.00    +0.000 A 
ATOM     27  N   UNL     1      45.296   3.716   8.685  0.00  0.00    +0.000 N 
ATOM     28  C   UNL     1      45.427   4.864   9.423  0.00  0.00    +0.000 A 
ATOM     29  O   UNL     1      46.135   5.780   9.035  0.00  0.00    +0.000 OA
ATOM     30  C   UNL     1      44.717   4.843  10.694  0.00  0.00    +0.000 A 
ATOM     31  H   UNL     1      45.785   3.708   7.803  0.00  0.00    +0.000 HD
ENDBRANCH  18  21
ENDBRANCH   1  19
TORSDOF 6
ENDMDL
MODEL 8
REMARK VINA RESULT:    -6.671      4.184      9.903
REMARK INTER + INTRA:          -9.758
REMARK INTER:                  -8.673
REMARK INTRA:                  -1.085
REMARK UNBOUND:                -0.942
REMARK  Name = 
REMARK  6 active torsions:
REMARK  status: ('A' for Active; 'I' for Inactive)
REMARK    1  A    between atoms: C_2  and  C_19
REMARK    2  A    between atoms: N_3  and  C_4
REMARK    3  A    between atoms: C_4  and  C_5
REMARK    4  A    between atoms: C_8  and  C_9
REMARK    5  A    between atoms: C_9  and  O_10
REMARK    6  A    between atoms: C_9  and  C_11
REMARK                            x       y       z     vdW  Elec       q    Type
REMARK                         _______ _______ _______ _____ _____    ______ ____
ROOT
ATOM      1  C   UNL     1      48.042   4.487  16.447  0.00  0.00    +0.000 C 
ENDROOT
BRANCH   1   2
ATOM      2  C   UNL     1      48.126   5.438  17.613  0.00  0.00    +0.000 A 
ATOM      3  C   UNL     1      47.136   5.419  18.604  0.00  0.00    +0.000 A 
ATOM      4  C   UNL     1      47.213   6.268  19.711  0.00  0.00    +0.000 A 
ATOM      5  C   UNL     1      48.287   7.158  19.856  0.00  0.00    +0.000 A 
ATOM      6  C   UNL     1      49.254   7.205  18.838  0.00  0.00    +0.000 A 
ATOM      7  C   UNL     1      49.173   6.358  17.728  0.00  0.00    +0.000 A 
BRANCH   5   8
ATOM      8  C   UNL     1      48.402   8.045  21.092  0.00  0.00    +0.000 C 
BRANCH   8   9
ATOM      9  C   UNL     1      47.381   9.172  21.127  0.00  0.00    +0.000 A 
ATOM     10  C   UNL     1      46.572   9.343  22.262  0.00  0.00    +0.000 A 
ATOM     11  C   UNL     1      45.562  10.309  22.285  0.00  0.00    +0.000 A 
ATOM     12  C   UNL     1      45.367  11.139  21.184  0.00  0.00    +0.000 A 
ATOM     13  C   UNL     1      46.192  11.020  20.069  0.00  0.00    +0.000 A 
ATOM     14  C   UNL     1      47.194  10.047  20.042  0.00  0.00    +0.000 A 
ENDBRANCH   8   9
BRANCH   8  15
ATOM     15  O   UNL     1      49.730   8.574  21.170  0.00  0.00    +0.000 OA
ATOM     16  H   UNL     1      49.925   8.717  22.107  0.00  0.00    +0.000 HD
ENDBRANCH   8  15
ENDBRANCH   5   8
ENDBRANCH   1   2
BRANCH   1  19
ATOM     17  O   UNL     1      47.363   3.148  14.059  0.00  0.00    +0.000 OA
ATOM     18  C   UNL     1      46.865   4.242  14.300  0.00  0.00    +0.000 C 
ATOM     19  N   UNL     1      47.183   4.985  15.409  0.00  0.00    +0.000 N 
ATOM     20  H   UNL     1      46.593   5.766  15.668  0.00  0.00    +0.000 HD
BRANCH  18  21
ATOM     21  C   UNL     1      45.912   4.866  13.382  0.00  0.00    +0.000 A 
ATOM     22  C   UNL     1      44.848   4.144  12.857  0.00  0.00    +0.000 A 
ATOM     23  S   UNL     1      43.849   5.067  11.824  0.00  0.00    +0.000 S 
ATOM     24  C   UNL     1      44.798   6.468  12.059  0.00  0.00    +0.000 A 
ATOM     25  N   UNL     1      44.479   7.651  11.481  0.00  0.00    +0.000 NA
ATOM     26  C   UNL     1      45.264   8.626  11.785  0.00  0.00    +0.000 A 
ATOM     27  N   UNL     1      46.352   8.529  12.615  0.00  0.00    +0.000 N 
ATOM     28  C   UNL     1      46.761   7.341  13.162  0.00  0.00    +0.000 A 
ATOM     29  O   UNL     1      47.820   7.262  13.767  0.00  0.00    +0.000 OA
ATOM     30  C   UNL     1      45.869   6.220  12.898  0.00  0.00    +0.000 A 
ATOM     31  H   UNL     1      46.958   9.317  12.782  0.00  0.00    +0.000 HD
ENDBRANCH  18  21
ENDBRANCH   1  19
TORSDOF 6
ENDMDL
MODEL 9
REMARK VINA RESULT:    -6.188      3.675      9.444
REMARK INTER + INTRA:          -9.119
REMARK INTER:                  -7.947
REMARK INTRA:                  -1.172
REMARK UNBOUND:                -0.942
REMARK  Name = 
REMARK  6 active torsions:
REMARK  status: ('A' for Active; 'I' for Inactive)
REMARK    1  A    between atoms: C_2  and  C_19
REMARK    2  A    between atoms: N_3  and  C_4
REMARK    3  A    between atoms: C_4  and  C_5
REMARK    4  A    between atoms: C_8  and  C_9
REMARK    5  A    between atoms: C_9  and  O_10
REMARK    6  A    between atoms: C_9  and  C_11
REMARK                            x       y       z     vdW  Elec       q    Type
REMARK                         _______ _______ _______ _____ _____    ______ ____
ROOT
ATOM      1  C   UNL     1      47.635   3.293  15.329  0.00  0.00    +0.000 C 
ENDROOT
BRANCH   1   2
ATOM      2  C   UNL     1      47.987   3.764  16.717  0.00  0.00    +0.000 A 
ATOM      3  C   UNL     1      49.155   3.304  17.336  0.00  0.00    +0.000 A 
ATOM      4  C   UNL     1      49.518   3.755  18.609  0.00  0.00    +0.000 A 
ATOM      5  C   UNL     1      48.718   4.682  19.293  0.00  0.00    +0.000 A 
ATOM      6  C   UNL     1      47.524   5.107  18.686  0.00  0.00    +0.000 A 
ATOM      7  C   UNL     1      47.161   4.652  17.415  0.00  0.00    +0.000 A 
BRANCH   5   8
ATOM      8  C   UNL     1      49.142   5.218  20.657  0.00  0.00    +0.000 C 
BRANCH   8   9
ATOM      9  C   UNL     1      49.462   6.705  20.653  0.00  0.00    +0.000 A 
ATOM     10  C   UNL     1      50.370   7.219  19.713  0.00  0.00    +0.000 A 
ATOM     11  C   UNL     1      50.754   8.562  19.747  0.00  0.00    +0.000 A 
ATOM     12  C   UNL     1      50.212   9.418  20.703  0.00  0.00    +0.000 A 
ATOM     13  C   UNL     1      49.271   8.940  21.610  0.00  0.00    +0.000 A 
ATOM     14  C   UNL     1      48.896   7.595  21.583  0.00  0.00    +0.000 A 
ENDBRANCH   8   9
BRANCH   8  15
ATOM     15  O   UNL     1      50.266   4.468  21.129  0.00  0.00    +0.000 OA
ATOM     16  H   UNL     1      50.146   4.342  22.081  0.00  0.00    +0.000 HD
ENDBRANCH   8  15
ENDBRANCH   5   8
ENDBRANCH   1   2
BRANCH   1  19
ATOM     17  O   UNL     1      48.326   5.225  13.394  0.00  0.00    +0.000 OA
ATOM     18  C   UNL     1      47.149   5.070  13.698  0.00  0.00    +0.000 C 
ATOM     19  N   UNL     1      46.733   4.195  14.668  0.00  0.00    +0.000 N 
ATOM     20  H   UNL     1      45.752   3.951  14.727  0.00  0.00    +0.000 HD
BRANCH  18  21
ATOM     21  C   UNL     1      46.088   5.857  13.069  0.00  0.00    +0.000 A 
ATOM     22  C   UNL     1      46.220   7.229  12.899  0.00  0.00    +0.000 A 
ATOM     23  S   UNL     1      44.877   7.948  12.128  0.00  0.00    +0.000 S 
ATOM     24  C   UNL     1      44.081   6.443  11.979  0.00  0.00    +0.000 A 
ATOM     25  N   UNL     1      42.877   6.330  11.370  0.00  0.00    +0.000 NA
ATOM     26  C   UNL     1      42.422   5.127  11.298  0.00  0.00    +0.000 A 
ATOM     27  N   UNL     1      43.061   4.016  11.786  0.00  0.00    +0.000 N 
ATOM     28  C   UNL     1      44.244   4.086  12.476  0.00  0.00    +0.000 A 
ATOM     29  O   UNL     1      44.703   3.098  13.031  0.00  0.00    +0.000 OA
ATOM     30  C   UNL     1      44.828   5.418  12.531  0.00  0.00    +0.000 A 
ATOM     31  H   UNL     1      42.637   3.103  11.741  0.00  0.00    +0.000 HD
ENDBRANCH  18  21
ENDBRANCH   1  19
TORSDOF 6
ENDMDL
