MODEL 1
REMARK VINA RESULT:    -7.198      0.000      0.000
REMARK INTER + INTRA:          -9.225
REMARK INTER:                  -8.460
REMARK INTRA:                  -0.764
REMARK UNBOUND:                -0.764
REMARK  Name = 
REMARK  3 active torsions:
REMARK  status: ('A' for Active; 'I' for Inactive)
REMARK    1  A    between atoms: N_5  and  C_6
REMARK    2  A    between atoms: C_6  and  C_7
REMARK    3  A    between atoms: C_11  and  C_12
REMARK                            x       y       z     vdW  Elec       q    Type
REMARK                         _______ _______ _______ _____ _____    ______ ____
ROOT
ATOM      1  C   UNL     1      45.111   5.155  12.214  0.00  0.00    +0.000 A 
ATOM      2  C   UNL     1      45.627   4.214  13.115  0.00  0.00    +0.000 A 
ATOM      3  C   UNL     1      46.864   4.404  13.728  0.00  0.00    +0.000 A 
ATOM      4  C   UNL     1      47.616   5.544  13.442  0.00  0.00    +0.000 A 
ATOM      5  C   UNL     1      47.143   6.525  12.554  0.00  0.00    +0.000 A 
ATOM      6  C   UNL     1      45.870   6.323  11.989  0.00  0.00    +0.000 A 
ENDROOT
BRANCH   5   7
ATOM      7  C   UNL     1      47.983   7.678  12.160  0.00  0.00    +0.000 A 
ATOM      8  C   UNL     1      47.453   8.977  12.135  0.00  0.00    +0.000 A 
ATOM      9  C   UNL     1      48.274  10.046  11.809  0.00  0.00    +0.000 A 
ATOM     10  N   UNL     1      49.581   9.922  11.510  0.00  0.00    +0.000 NA
ATOM     11  C   UNL     1      50.085   8.672  11.537  0.00  0.00    +0.000 A 
ATOM     12  C   UNL     1      49.340   7.541  11.846  0.00  0.00    +0.000 A 
ENDBRANCH   5   7
BRANCH   1  13
ATOM     13  C   UNL     1      43.824   4.874  11.439  0.00  0.00    +0.000 C 
ATOM     14  C   UNL     1      42.495   5.198  12.115  0.00  0.00    +0.000 C 
ATOM     15  C   UNL     1      43.011   6.089  11.036  0.00  0.00    +0.000 C 
BRANCH  13  20
ATOM     16  C   UNL     1      46.344   2.697   7.545  0.00  0.00    +0.000 A 
ATOM     17  C   UNL     1      45.828   1.765   8.410  0.00  0.00    +0.000 A 
ATOM     18  N   UNL     1      45.027   2.075   9.444  0.00  0.00    +0.000 NA
ATOM     19  C   UNL     1      44.738   3.375   9.632  0.00  0.00    +0.000 A 
ATOM     20  N   UNL     1      43.838   3.628  10.668  0.00  0.00    +0.000 N 
ATOM     21  N   UNL     1      45.215   4.360   8.851  0.00  0.00    +0.000 NA
ATOM     22  C   UNL     1      46.000   3.998   7.818  0.00  0.00    +0.000 A 
ATOM     23  H   UNL     1      43.759   2.755  11.181  0.00  0.00    +0.000 HD
ENDBRANCH  13  20
ENDBRANCH   1  13
TORSDOF 3
ENDMDL
MODEL 2
REMARK VINA RESULT:    -7.164      2.304      3.653
REMARK INTER + INTRA:          -9.185
REMARK INTER:                  -8.659
REMARK INTRA:                  -0.527
REMARK UNBOUND:                -0.764
REMARK  Name = 
REMARK  3 active torsions:
REMARK  status: ('A' for Active; 'I' for Inactive)
REMARK    1  A    between atoms: N_5  and  C_6
REMARK    2  A    between atoms: C_6  and  C_7
REMARK    3  A    between atoms: C_11  and  C_12
REMARK                            x       y       z     vdW  Elec       q    Type
REMARK                         _______ _______ _______ _____ _____    ______ ____
ROOT
ATOM      1  C   UNL     1      45.407   5.328  12.038  0.00  0.00    +0.000 A 
ATOM      2  C   UNL     1      46.101   6.347  11.370  0.00  0.00    +0.000 A 
ATOM      3  C   UNL     1      47.273   6.886  11.898  0.00  0.00    +0.000 A 
ATOM      4  C   UNL     1      47.770   6.419  13.115  0.00  0.00    +0.000 A 
ATOM      5  C   UNL     1      47.121   5.393  13.821  0.00  0.00    +0.000 A 
ATOM      6  C   UNL     1      45.966   4.839  13.238  0.00  0.00    +0.000 A 
ENDROOT
BRANCH   5   7
ATOM      7  C   UNL     1      47.578   4.970  15.163  0.00  0.00    +0.000 A 
ATOM      8  C   UNL     1      47.266   3.696  15.661  0.00  0.00    +0.000 A 
ATOM      9  C   UNL     1      47.749   3.309  16.902  0.00  0.00    +0.000 A 
ATOM     10  N   UNL     1      48.520   4.089  17.683  0.00  0.00    +0.000 NA
ATOM     11  C   UNL     1      48.819   5.311  17.199  0.00  0.00    +0.000 A 
ATOM     12  C   UNL     1      48.377   5.789  15.972  0.00  0.00    +0.000 A 
ENDBRANCH   5   7
BRANCH   1  13
ATOM     13  C   UNL     1      44.051   4.841  11.528  0.00  0.00    +0.000 C 
ATOM     14  C   UNL     1      42.833   5.045  12.424  0.00  0.00    +0.000 C 
ATOM     15  C   UNL     1      43.026   5.920  11.230  0.00  0.00    +0.000 C 
BRANCH  13  20
ATOM     16  C   UNL     1      46.231   2.690   7.420  0.00  0.00    +0.000 A 
ATOM     17  C   UNL     1      45.940   1.767   8.392  0.00  0.00    +0.000 A 
ATOM     18  N   UNL     1      45.260   2.059   9.514  0.00  0.00    +0.000 NA
ATOM     19  C   UNL     1      44.863   3.333   9.681  0.00  0.00    +0.000 A 
ATOM     20  N   UNL     1      44.091   3.558  10.821  0.00  0.00    +0.000 N 
ATOM     21  N   UNL     1      45.121   4.311   8.795  0.00  0.00    +0.000 NA
ATOM     22  C   UNL     1      45.791   3.965   7.679  0.00  0.00    +0.000 A 
ATOM     23  H   UNL     1      44.177   2.715  11.380  0.00  0.00    +0.000 HD
ENDBRANCH  13  20
ENDBRANCH   1  13
TORSDOF 3
ENDMDL
MODEL 3
REMARK VINA RESULT:    -6.266      2.615      7.200
REMARK INTER + INTRA:          -8.129
REMARK INTER:                  -7.419
REMARK INTRA:                  -0.711
REMARK UNBOUND:                -0.764
REMARK  Name = 
REMARK  3 active torsions:
REMARK  status: ('A' for Active; 'I' for Inactive)
REMARK    1  A    between atoms: N_5  and  C_6
REMARK    2  A    between atoms: C_6  and  C_7
REMARK    3  A    between atoms: C_11  and  C_12
REMARK                            x       y       z     vdW  Elec       q    Type
REMARK                         _______ _______ _______ _____ _____    ______ ____
ROOT
ATOM      1  C   UNL     1      47.580   7.687  12.403  0.00  0.00    +0.000 A 
ATOM      2  C   UNL     1      46.807   8.856  12.368  0.00  0.00    +0.000 A 
ATOM      3  C   UNL     1      45.448   8.812  12.066  0.00  0.00    +0.000 A 
ATOM      4  C   UNL     1      44.834   7.591  11.785  0.00  0.00    +0.000 A 
ATOM      5  C   UNL     1      45.558   6.388  11.817  0.00  0.00    +0.000 A 
ATOM      6  C   UNL     1      46.918   6.462  12.169  0.00  0.00    +0.000 A 
ENDROOT
BRANCH   5   7
ATOM      7  C   UNL     1      44.942   5.105  11.410  0.00  0.00    +0.000 A 
ATOM      8  C   UNL     1      44.216   4.334  12.330  0.00  0.00    +0.000 A 
ATOM      9  C   UNL     1      43.608   3.160  11.910  0.00  0.00    +0.000 A 
ATOM     10  N   UNL     1      43.663   2.698  10.647  0.00  0.00    +0.000 NA
ATOM     11  C   UNL     1      44.360   3.445   9.766  0.00  0.00    +0.000 A 
ATOM     12  C   UNL     1      45.007   4.629  10.095  0.00  0.00    +0.000 A 
ENDBRANCH   5   7
BRANCH   1  13
ATOM     13  C   UNL     1      49.095   7.756  12.594  0.00  0.00    +0.000 C 
ATOM     14  C   UNL     1      49.974   7.780  11.346  0.00  0.00    +0.000 C 
ATOM     15  C   UNL     1      49.767   9.034  12.128  0.00  0.00    +0.000 C 
BRANCH  13  20
ATOM     16  C   UNL     1      48.689   7.328  17.683  0.00  0.00    +0.000 A 
ATOM     17  C   UNL     1      49.005   6.132  17.089  0.00  0.00    +0.000 A 
ATOM     18  N   UNL     1      49.284   6.004  15.780  0.00  0.00    +0.000 NA
ATOM     19  C   UNL     1      49.230   7.117  15.027  0.00  0.00    +0.000 A 
ATOM     20  N   UNL     1      49.608   6.937  13.696  0.00  0.00    +0.000 N 
ATOM     21  N   UNL     1      48.907   8.327  15.515  0.00  0.00    +0.000 NA
ATOM     22  C   UNL     1      48.653   8.408  16.835  0.00  0.00    +0.000 A 
ATOM     23  H   UNL     1      49.650   5.932  13.556  0.00  0.00    +0.000 HD
ENDBRANCH  13  20
ENDBRANCH   1  13
TORSDOF 3
ENDMDL
MODEL 4
REMARK VINA RESULT:    -5.728      2.713      6.612
REMARK INTER + INTRA:          -7.496
REMARK INTER:                  -7.680
REMARK INTRA:                   0.184
REMARK UNBOUND:                -0.764
REMARK  Name = 
REMARK  3 active torsions:
REMARK  status: ('A' for Active; 'I' for Inactive)
REMARK    1  A    between atoms: N_5  and  C_6
REMARK    2  A    between atoms: C_6  and  C_7
REMARK    3  A    between atoms: C_11  and  C_12
REMARK                            x       y       z     vdW  Elec       q    Type
REMARK                         _______ _______ _______ _____ _____    ______ ____
ROOT
ATOM      1  C   UNL     1      46.827   7.312  12.796  0.00  0.00    +0.000 A 
ATOM      2  C   UNL     1      45.912   8.374  12.771  0.00  0.00    +0.000 A 
ATOM      3  C   UNL     1      44.750   8.306  12.006  0.00  0.00    +0.000 A 
ATOM      4  C   UNL     1      44.483   7.171  11.241  0.00  0.00    +0.000 A 
ATOM      5  C   UNL     1      45.359   6.073  11.237  0.00  0.00    +0.000 A 
ATOM      6  C   UNL     1      46.501   6.155  12.056  0.00  0.00    +0.000 A 
ENDROOT
BRANCH   5   7
ATOM      7  C   UNL     1      45.141   4.914  10.342  0.00  0.00    +0.000 A 
ATOM      8  C   UNL     1      45.594   4.935   9.015  0.00  0.00    +0.000 A 
ATOM      9  C   UNL     1      45.419   3.817   8.213  0.00  0.00    +0.000 A 
ATOM     10  N   UNL     1      44.832   2.680   8.632  0.00  0.00    +0.000 NA
ATOM     11  C   UNL     1      44.401   2.664   9.909  0.00  0.00    +0.000 A 
ATOM     12  C   UNL     1      44.526   3.736  10.784  0.00  0.00    +0.000 A 
ENDBRANCH   5   7
BRANCH   1  13
ATOM     13  C   UNL     1      48.165   7.448  13.522  0.00  0.00    +0.000 C 
ATOM     14  C   UNL     1      49.421   6.959  12.807  0.00  0.00    +0.000 C 
ATOM     15  C   UNL     1      49.155   8.424  12.914  0.00  0.00    +0.000 C 
BRANCH  13  20
ATOM     16  C   UNL     1      47.978   3.425  16.689  0.00  0.00    +0.000 A 
ATOM     17  C   UNL     1      48.566   4.516  17.276  0.00  0.00    +0.000 A 
ATOM     18  N   UNL     1      48.628   5.727  16.697  0.00  0.00    +0.000 NA
ATOM     19  C   UNL     1      48.092   5.853  15.470  0.00  0.00    +0.000 A 
ATOM     20  N   UNL     1      48.113   7.149  14.956  0.00  0.00    +0.000 N 
ATOM     21  N   UNL     1      47.515   4.836  14.806  0.00  0.00    +0.000 NA
ATOM     22  C   UNL     1      47.462   3.646  15.435  0.00  0.00    +0.000 A 
ATOM     23  H   UNL     1      48.725   7.678  15.569  0.00  0.00    +0.000 HD
ENDBRANCH  13  20
ENDBRANCH   1  13
TORSDOF 3
ENDMDL
MODEL 5
REMARK VINA RESULT:    -5.679      3.476      5.555
REMARK INTER + INTRA:          -7.440
REMARK INTER:                  -7.108
REMARK INTRA:                  -0.331
REMARK UNBOUND:                -0.764
REMARK  Name = 
REMARK  3 active torsions:
REMARK  status: ('A' for Active; 'I' for Inactive)
REMARK    1  A    between atoms: N_5  and  C_6
REMARK    2  A    between atoms: C_6  and  C_7
REMARK    3  A    between atoms: C_11  and  C_12
REMARK                            x       y       z     vdW  Elec       q    Type
REMARK                         _______ _______ _______ _____ _____    ______ ____
ROOT
ATOM      1  C   UNL     1      47.033   6.100  13.302  0.00  0.00    +0.000 A 
ATOM      2  C   UNL     1      48.402   6.034  13.005  0.00  0.00    +0.000 A 
ATOM      3  C   UNL     1      49.070   7.118  12.439  0.00  0.00    +0.000 A 
ATOM      4  C   UNL     1      48.375   8.293  12.151  0.00  0.00    +0.000 A 
ATOM      5  C   UNL     1      47.006   8.418  12.438  0.00  0.00    +0.000 A 
ATOM      6  C   UNL     1      46.372   7.322  13.051  0.00  0.00    +0.000 A 
ENDROOT
BRANCH   5   7
ATOM      7  C   UNL     1      46.239   9.618  12.032  0.00  0.00    +0.000 A 
ATOM      8  C   UNL     1      44.838   9.582  11.954  0.00  0.00    +0.000 A 
ATOM      9  C   UNL     1      44.142  10.733  11.618  0.00  0.00    +0.000 A 
ATOM     10  N   UNL     1      44.730  11.916  11.360  0.00  0.00    +0.000 NA
ATOM     11  C   UNL     1      46.076  11.946  11.440  0.00  0.00    +0.000 A 
ATOM     12  C   UNL     1      46.859  10.844  11.761  0.00  0.00    +0.000 A 
ENDBRANCH   5   7
BRANCH   1  13
ATOM     13  C   UNL     1      46.277   4.865  13.788  0.00  0.00    +0.000 C 
ATOM     14  C   UNL     1      44.988   4.483  13.067  0.00  0.00    +0.000 C 
ATOM     15  C   UNL     1      46.230   3.692  12.826  0.00  0.00    +0.000 C 
BRANCH  13  20
ATOM     16  C   UNL     1      48.995   2.735  17.574  0.00  0.00    +0.000 A 
ATOM     17  C   UNL     1      48.268   3.814  18.006  0.00  0.00    +0.000 A 
ATOM     18  N   UNL     1      47.384   4.471  17.235  0.00  0.00    +0.000 NA
ATOM     19  C   UNL     1      47.229   4.040  15.970  0.00  0.00    +0.000 A 
ATOM     20  N   UNL     1      46.242   4.707  15.245  0.00  0.00    +0.000 N 
ATOM     21  N   UNL     1      47.914   3.007  15.451  0.00  0.00    +0.000 NA
ATOM     22  C   UNL     1      48.775   2.370  16.268  0.00  0.00    +0.000 A 
ATOM     23  H   UNL     1      45.995   5.521  15.801  0.00  0.00    +0.000 HD
ENDBRANCH  13  20
ENDBRANCH   1  13
TORSDOF 3
ENDMDL
MODEL 6
REMARK VINA RESULT:    -5.556      4.293      7.702
REMARK INTER + INTRA:          -7.295
REMARK INTER:                  -7.384
REMARK INTRA:                   0.089
REMARK UNBOUND:                -0.764
REMARK  Name = 
REMARK  3 active torsions:
REMARK  status: ('A' for Active; 'I' for Inactive)
REMARK    1  A    between atoms: N_5  and  C_6
REMARK    2  A    between atoms: C_6  and  C_7
REMARK    3  A    between atoms: C_11  and  C_12
REMARK                            x       y       z     vdW  Elec       q    Type
REMARK                         _______ _______ _______ _____ _____    ______ ____
ROOT
ATOM      1  C   UNL     1      47.705   5.292  15.137  0.00  0.00    +0.000 A 
ATOM      2  C   UNL     1      48.374   6.436  14.679  0.00  0.00    +0.000 A 
ATOM      3  C   UNL     1      48.070   7.005  13.444  0.00  0.00    +0.000 A 
ATOM      4  C   UNL     1      47.089   6.431  12.635  0.00  0.00    +0.000 A 
ATOM      5  C   UNL     1      46.379   5.291  13.047  0.00  0.00    +0.000 A 
ATOM      6  C   UNL     1      46.679   4.769  14.320  0.00  0.00    +0.000 A 
ENDROOT
BRANCH   5   7
ATOM      7  C   UNL     1      45.419   4.612  12.148  0.00  0.00    +0.000 A 
ATOM      8  C   UNL     1      44.603   3.573  12.622  0.00  0.00    +0.000 A 
ATOM      9  C   UNL     1      43.679   2.987  11.771  0.00  0.00    +0.000 A 
ATOM     10  N   UNL     1      43.501   3.357  10.488  0.00  0.00    +0.000 NA
ATOM     11  C   UNL     1      44.286   4.357  10.039  0.00  0.00    +0.000 A 
ATOM     12  C   UNL     1      45.243   4.999  10.814  0.00  0.00    +0.000 A 
ENDBRANCH   5   7
BRANCH   1  13
ATOM     13  C   UNL     1      48.140   4.593  16.423  0.00  0.00    +0.000 C 
ATOM     14  C   UNL     1      47.054   4.027  17.334  0.00  0.00    +0.000 C 
ATOM     15  C   UNL     1      47.869   3.101  16.494  0.00  0.00    +0.000 C 
BRANCH  13  20
ATOM     16  C   UNL     1      52.983   3.640  17.797  0.00  0.00    +0.000 A 
ATOM     17  C   UNL     1      52.750   4.981  17.627  0.00  0.00    +0.000 A 
ATOM     18  N   UNL     1      51.534   5.498  17.383  0.00  0.00    +0.000 NA
ATOM     19  C   UNL     1      50.504   4.637  17.291  0.00  0.00    +0.000 A 
ATOM     20  N   UNL     1      49.257   5.238  17.119  0.00  0.00    +0.000 N 
ATOM     21  N   UNL     1      50.639   3.306  17.421  0.00  0.00    +0.000 NA
ATOM     22  C   UNL     1      51.874   2.837  17.681  0.00  0.00    +0.000 A 
ATOM     23  H   UNL     1      49.449   6.211  16.901  0.00  0.00    +0.000 HD
ENDBRANCH  13  20
ENDBRANCH   1  13
TORSDOF 3
ENDMDL
MODEL 7
REMARK VINA RESULT:    -5.534      3.773      7.118
REMARK INTER + INTRA:          -7.269
REMARK INTER:                  -6.763
REMARK INTRA:                  -0.506
REMARK UNBOUND:                -0.764
REMARK  Name = 
REMARK  3 active torsions:
REMARK  status: ('A' for Active; 'I' for Inactive)
REMARK    1  A    between atoms: N_5  and  C_6
REMARK    2  A    between atoms: C_6  and  C_7
REMARK    3  A    between atoms: C_11  and  C_12
REMARK                            x       y       z     vdW  Elec       q    Type
REMARK                         _______ _______ _______ _____ _____    ______ ____
ROOT
ATOM      1  C   UNL     1      49.018   7.533  14.622  0.00  0.00    +0.000 A 
ATOM      2  C   UNL     1      49.989   7.872  13.669  0.00  0.00    +0.000 A 
ATOM      3  C   UNL     1      49.781   7.636  12.312  0.00  0.00    +0.000 A 
ATOM      4  C   UNL     1      48.592   7.046  11.880  0.00  0.00    +0.000 A 
ATOM      5  C   UNL     1      47.581   6.696  12.790  0.00  0.00    +0.000 A 
ATOM      6  C   UNL     1      47.805   6.989  14.148  0.00  0.00    +0.000 A 
ENDROOT
BRANCH   5   7
ATOM      7  C   UNL     1      46.368   5.968  12.353  0.00  0.00    +0.000 A 
ATOM      8  C   UNL     1      45.582   5.263  13.277  0.00  0.00    +0.000 A 
ATOM      9  C   UNL     1      44.425   4.631  12.849  0.00  0.00    +0.000 A 
ATOM     10  N   UNL     1      43.988   4.650  11.575  0.00  0.00    +0.000 NA
ATOM     11  C   UNL     1      44.746   5.331  10.693  0.00  0.00    +0.000 A 
ATOM     12  C   UNL     1      45.922   5.990  11.026  0.00  0.00    +0.000 A 
ENDBRANCH   5   7
BRANCH   1  13
ATOM     13  C   UNL     1      49.309   7.662  16.116  0.00  0.00    +0.000 C 
ATOM     14  C   UNL     1      49.882   8.982  16.624  0.00  0.00    +0.000 C 
ATOM     15  C   UNL     1      48.449   8.653  16.879  0.00  0.00    +0.000 C 
BRANCH  13  20
ATOM     16  C   UNL     1      47.899   2.979  17.645  0.00  0.00    +0.000 A 
ATOM     17  C   UNL     1      49.224   3.030  17.298  0.00  0.00    +0.000 A 
ATOM     18  N   UNL     1      49.865   4.168  16.977  0.00  0.00    +0.000 NA
ATOM     19  C   UNL     1      49.147   5.305  16.990  0.00  0.00    +0.000 A 
ATOM     20  N   UNL     1      49.882   6.461  16.731  0.00  0.00    +0.000 N 
ATOM     21  N   UNL     1      47.838   5.351  17.295  0.00  0.00    +0.000 NA
ATOM     22  C   UNL     1      47.245   4.187  17.626  0.00  0.00    +0.000 A 
ATOM     23  H   UNL     1      50.784   6.142  16.389  0.00  0.00    +0.000 HD
ENDBRANCH  13  20
ENDBRANCH   1  13
TORSDOF 3
ENDMDL
MODEL 8
REMARK VINA RESULT:    -5.447      5.130      8.405
REMARK INTER + INTRA:          -7.167
REMARK INTER:                  -6.842
REMARK INTRA:                  -0.325
REMARK UNBOUND:                -0.764
REMARK  Name = 
REMARK  3 active torsions:
REMARK  status: ('A' for Active; 'I' for Inactive)
REMARK    1  A    between atoms: N_5  and  C_6
REMARK    2  A    between atoms: C_6  and  C_7
REMARK    3  A    between atoms: C_11  and  C_12
REMARK                            x       y       z     vdW  Elec       q    Type
REMARK                         _______ _______ _______ _____ _____    ______ ____
ROOT
ATOM      1  C   UNL     1      48.144   5.027  16.277  0.00  0.00    +0.000 A 
ATOM      2  C   UNL     1      48.972   6.154  16.170  0.00  0.00    +0.000 A 
ATOM      3  C   UNL     1      48.946   6.962  15.035  0.00  0.00    +0.000 A 
ATOM      4  C   UNL     1      48.092   6.652  13.977  0.00  0.00    +0.000 A 
ATOM      5  C   UNL     1      47.234   5.542  14.035  0.00  0.00    +0.000 A 
ATOM      6  C   UNL     1      47.252   4.773  15.213  0.00  0.00    +0.000 A 
ENDROOT
BRANCH   5   7
ATOM      7  C   UNL     1      46.409   5.142  12.873  0.00  0.00    +0.000 A 
ATOM      8  C   UNL     1      45.754   3.902  12.849  0.00  0.00    +0.000 A 
ATOM      9  C   UNL     1      44.949   3.573  11.770  0.00  0.00    +0.000 A 
ATOM     10  N   UNL     1      44.742   4.384  10.715  0.00  0.00    +0.000 NA
ATOM     11  C   UNL     1      45.372   5.576  10.743  0.00  0.00    +0.000 A 
ATOM     12  C   UNL     1      46.203   5.990  11.777  0.00  0.00    +0.000 A 
ENDBRANCH   5   7
BRANCH   1  13
ATOM     13  C   UNL     1      48.279   4.067  17.458  0.00  0.00    +0.000 C 
ATOM     14  C   UNL     1      48.220   2.569  17.174  0.00  0.00    +0.000 C 
ATOM     15  C   UNL     1      49.531   3.211  17.481  0.00  0.00    +0.000 C 
BRANCH  13  20
ATOM     16  C   UNL     1      48.893   7.249  21.427  0.00  0.00    +0.000 A 
ATOM     17  C   UNL     1      47.569   7.031  21.141  0.00  0.00    +0.000 A 
ATOM     18  N   UNL     1      47.143   6.145  20.224  0.00  0.00    +0.000 NA
ATOM     19  C   UNL     1      48.081   5.456  19.551  0.00  0.00    +0.000 A 
ATOM     20  N   UNL     1      47.579   4.495  18.673  0.00  0.00    +0.000 N 
ATOM     21  N   UNL     1      49.402   5.617  19.745  0.00  0.00    +0.000 NA
ATOM     22  C   UNL     1      49.778   6.504  20.687  0.00  0.00    +0.000 A 
ATOM     23  H   UNL     1      46.583   4.682  18.602  0.00  0.00    +0.000 HD
ENDBRANCH  13  20
ENDBRANCH   1  13
TORSDOF 3
ENDMDL
MODEL 9
REMARK VINA RESULT:    -5.240      5.399      7.982
REMARK INTER + INTRA:          -6.923
REMARK INTER:                  -6.400
REMARK INTRA:                  -0.523
REMARK UNBOUND:                -0.764
REMARK  Name = 
REMARK  3 active torsions:
REMARK  status: ('A' for Active; 'I' for Inactive)
REMARK    1  A    between atoms: N_5  and  C_6
REMARK    2  A    between atoms: C_6  and  C_7
REMARK    3  A    between atoms: C_11  and  C_12
REMARK                            x       y       z     vdW  Elec       q    Type
REMARK                         _______ _______ _______ _____ _____    ______ ____
ROOT
ATOM      1  C   UNL     1      48.903   5.389  16.903  0.00  0.00    +0.000 A 
ATOM      2  C   UNL     1      47.793   4.614  16.537  0.00  0.00    +0.000 A 
ATOM      3  C   UNL     1      47.834   3.223  16.598  0.00  0.00    +0.000 A 
ATOM      4  C   UNL     1      48.995   2.577  17.022  0.00  0.00    +0.000 A 
ATOM      5  C   UNL     1      50.133   3.303  17.410  0.00  0.00    +0.000 A 
ATOM      6  C   UNL     1      50.043   4.707  17.380  0.00  0.00    +0.000 A 
ENDROOT
BRANCH   5   7
ATOM      7  C   UNL     1      51.403   2.625  17.752  0.00  0.00    +0.000 A 
ATOM      8  C   UNL     1      52.424   3.310  18.428  0.00  0.00    +0.000 A 
ATOM      9  C   UNL     1      53.584   2.636  18.779  0.00  0.00    +0.000 A 
ATOM     10  N   UNL     1      53.804   1.335  18.513  0.00  0.00    +0.000 NA
ATOM     11  C   UNL     1      52.819   0.681  17.866  0.00  0.00    +0.000 A 
ATOM     12  C   UNL     1      51.626   1.271  17.469  0.00  0.00    +0.000 A 
ENDBRANCH   5   7
BRANCH   1  13
ATOM     13  C   UNL     1      48.901   6.904  16.699  0.00  0.00    +0.000 C 
ATOM     14  C   UNL     1      48.873   7.794  17.938  0.00  0.00    +0.000 C 
ATOM     15  C   UNL     1      50.142   7.640  17.169  0.00  0.00    +0.000 C 
BRANCH  13  20
ATOM     16  C   UNL     1      49.186   7.667  11.641  0.00  0.00    +0.000 A 
ATOM     17  C   UNL     1      47.905   7.399  12.050  0.00  0.00    +0.000 A 
ATOM     18  N   UNL     1      47.547   7.279  13.340  0.00  0.00    +0.000 NA
ATOM     19  C   UNL     1      48.514   7.419  14.264  0.00  0.00    +0.000 A 
ATOM     20  N   UNL     1      48.069   7.367  15.585  0.00  0.00    +0.000 N 
ATOM     21  N   UNL     1      49.801   7.661  13.958  0.00  0.00    +0.000 NA
ATOM     22  C   UNL     1      50.107   7.789  12.653  0.00  0.00    +0.000 A 
ATOM     23  H   UNL     1      47.113   7.029  15.539  0.00  0.00    +0.000 HD
ENDBRANCH  13  20
ENDBRANCH   1  13
TORSDOF 3
ENDMDL
