MODEL 1
REMARK VINA RESULT:    -8.873      0.000      0.000
REMARK INTER + INTRA:         -13.240
REMARK INTER:                 -12.504
REMARK INTRA:                  -0.736
REMARK UNBOUND:                -0.736
REMARK  Name = 
REMARK  7 active torsions:
REMARK  status: ('A' for Active; 'I' for Inactive)
REMARK    1  A    between atoms: C_2  and  C_3
REMARK    2  A    between atoms: C_2  and  C_19
REMARK    3  A    between atoms: C_3  and  C_4
REMARK    4  A    between atoms: C_4  and  C_5
REMARK    5  A    between atoms: C_8  and  C_9
REMARK    6  A    between atoms: C_9  and  N_10
REMARK    7  A    between atoms: N_10  and  C_11
REMARK                            x       y       z     vdW  Elec       q    Type
REMARK                         _______ _______ _______ _____ _____    ______ ____
ROOT
ATOM      1  C   UNL     1      46.994   4.967  14.631  0.00  0.00    +0.000 C 
ENDROOT
BRANCH   1   2
ATOM      2  C   UNL     1      46.312   4.823  13.293  0.00  0.00    +0.000 A 
ATOM      3  C   UNL     1      46.327   5.866  12.358  0.00  0.00    +0.000 A 
ATOM      4  C   UNL     1      45.687   5.724  11.124  0.00  0.00    +0.000 A 
ATOM      5  C   UNL     1      45.027   4.532  10.800  0.00  0.00    +0.000 A 
ATOM      6  C   UNL     1      45.022   3.487  11.734  0.00  0.00    +0.000 A 
ATOM      7  C   UNL     1      45.655   3.632  12.968  0.00  0.00    +0.000 A 
BRANCH   5   8
ATOM      8  C   UNL     1      44.293   4.375   9.488  0.00  0.00    +0.000 C 
BRANCH   8   9
ATOM      9  N   UNL     1      45.179   4.557   8.336  0.00  0.00    +0.000 NA
ATOM     10  H   UNL     1      46.033   5.019   8.645  0.00  0.00    +0.000 HD
BRANCH   9  11
ATOM     11  C   UNL     1      45.500   3.298   7.649  0.00  0.00    +0.000 C 
ATOM     12  C   UNL     1      45.868   2.153   8.613  0.00  0.00    +0.000 C 
ATOM     13  C   UNL     1      46.326   0.901   7.868  0.00  0.00    +0.000 C 
ATOM     14  C   UNL     1      47.493   1.206   6.940  0.00  0.00    +0.000 C 
ATOM     15  C   UNL     1      47.128   2.309   5.953  0.00  0.00    +0.000 C 
ATOM     16  C   UNL     1      46.659   3.573   6.671  0.00  0.00    +0.000 C 
ENDBRANCH   9  11
ENDBRANCH   8   9
ENDBRANCH   5   8
ENDBRANCH   1   2
BRANCH   1  17
ATOM     17  C   UNL     1      47.453   3.620  15.180  0.00  0.00    +0.000 C 
BRANCH  17  19
ATOM     18  O   UNL     1      46.567   3.189  17.368  0.00  0.00    +0.000 OA
ATOM     19  C   UNL     1      47.500   3.621  16.697  0.00  0.00    +0.000 C 
BRANCH  19  20
ATOM     20  C   UNL     1      48.686   4.203  17.337  0.00  0.00    +0.000 A 
ATOM     21  C   UNL     1      48.708   5.479  17.875  0.00  0.00    +0.000 A 
ATOM     22  S   UNL     1      50.186   5.859  18.643  0.00  0.00    +0.000 S 
ATOM     23  C   UNL     1      50.843   4.338  18.251  0.00  0.00    +0.000 A 
ATOM     24  N   UNL     1      52.106   4.002  18.626  0.00  0.00    +0.000 NA
ATOM     25  C   UNL     1      52.468   2.817  18.263  0.00  0.00    +0.000 A 
ATOM     26  N   UNL     1      51.687   1.941  17.553  0.00  0.00    +0.000 N 
ATOM     27  C   UNL     1      50.439   2.268  17.071  0.00  0.00    +0.000 A 
ATOM     28  O   UNL     1      49.865   1.540  16.271  0.00  0.00    +0.000 OA
ATOM     29  C   UNL     1      49.958   3.560  17.527  0.00  0.00    +0.000 A 
ATOM     30  H   UNL     1      52.052   1.052  17.246  0.00  0.00    +0.000 HD
ENDBRANCH  19  20
ENDBRANCH  17  19
ENDBRANCH   1  17
TORSDOF 7
ENDMDL
MODEL 2
REMARK VINA RESULT:    -7.988      2.361      3.101
REMARK INTER + INTRA:         -11.992
REMARK INTER:                 -10.778
REMARK INTRA:                  -1.214
REMARK UNBOUND:                -0.736
REMARK  Name = 
REMARK  7 active torsions:
REMARK  status: ('A' for Active; 'I' for Inactive)
REMARK    1  A    between atoms: C_2  and  C_3
REMARK    2  A    between atoms: C_2  and  C_19
REMARK    3  A    between atoms: C_3  and  C_4
REMARK    4  A    between atoms: C_4  and  C_5
REMARK    5  A    between atoms: C_8  and  C_9
REMARK    6  A    between atoms: C_9  and  N_10
REMARK    7  A    between atoms: N_10  and  C_11
REMARK                            x       y       z     vdW  Elec       q    Type
REMARK                         _______ _______ _______ _____ _____    ______ ____
ROOT
ATOM      1  C   UNL     1      45.858   7.213  13.276  0.00  0.00    +0.000 C 
ENDROOT
BRANCH   1   2
ATOM      2  C   UNL     1      45.494   6.118  12.305  0.00  0.00    +0.000 A 
ATOM      3  C   UNL     1      45.831   6.214  10.948  0.00  0.00    +0.000 A 
ATOM      4  C   UNL     1      45.482   5.196  10.057  0.00  0.00    +0.000 A 
ATOM      5  C   UNL     1      44.800   4.059  10.507  0.00  0.00    +0.000 A 
ATOM      6  C   UNL     1      44.473   3.963  11.867  0.00  0.00    +0.000 A 
ATOM      7  C   UNL     1      44.814   4.982  12.756  0.00  0.00    +0.000 A 
BRANCH   5   8
ATOM      8  C   UNL     1      44.378   2.968   9.551  0.00  0.00    +0.000 C 
BRANCH   8   9
ATOM      9  N   UNL     1      45.452   2.001   9.311  0.00  0.00    +0.000 NA
ATOM     10  H   UNL     1      45.181   1.101   9.704  0.00  0.00    +0.000 HD
BRANCH   9  11
ATOM     11  C   UNL     1      45.791   1.856   7.887  0.00  0.00    +0.000 C 
ATOM     12  C   UNL     1      46.902   0.819   7.629  0.00  0.00    +0.000 C 
ATOM     13  C   UNL     1      47.326   0.788   6.162  0.00  0.00    +0.000 C 
ATOM     14  C   UNL     1      47.765   2.165   5.684  0.00  0.00    +0.000 C 
ATOM     15  C   UNL     1      46.659   3.191   5.897  0.00  0.00    +0.000 C 
ATOM     16  C   UNL     1      46.210   3.240   7.356  0.00  0.00    +0.000 C 
ENDBRANCH   9  11
ENDBRANCH   8   9
ENDBRANCH   5   8
ENDBRANCH   1   2
BRANCH   1  17
ATOM     17  C   UNL     1      47.263   7.750  13.025  0.00  0.00    +0.000 C 
BRANCH  17  19
ATOM     18  O   UNL     1      49.030   6.148  12.758  0.00  0.00    +0.000 OA
ATOM     19  C   UNL     1      48.327   6.792  13.530  0.00  0.00    +0.000 C 
BRANCH  19  20
ATOM     20  C   UNL     1      48.453   6.627  14.983  0.00  0.00    +0.000 A 
ATOM     21  C   UNL     1      48.995   7.596  15.813  0.00  0.00    +0.000 A 
ATOM     22  S   UNL     1      48.927   7.177  17.467  0.00  0.00    +0.000 S 
ATOM     23  C   UNL     1      48.198   5.679  17.115  0.00  0.00    +0.000 A 
ATOM     24  N   UNL     1      47.864   4.811  18.107  0.00  0.00    +0.000 NA
ATOM     25  C   UNL     1      47.316   3.719  17.691  0.00  0.00    +0.000 A 
ATOM     26  N   UNL     1      47.081   3.410  16.375  0.00  0.00    +0.000 N 
ATOM     27  C   UNL     1      47.485   4.213  15.331  0.00  0.00    +0.000 A 
ATOM     28  O   UNL     1      47.444   3.808  14.177  0.00  0.00    +0.000 OA
ATOM     29  C   UNL     1      48.029   5.491  15.756  0.00  0.00    +0.000 A 
ATOM     30  H   UNL     1      46.706   2.511  16.112  0.00  0.00    +0.000 HD
ENDBRANCH  19  20
ENDBRANCH  17  19
ENDBRANCH   1  17
TORSDOF 7
ENDMDL
MODEL 3
REMARK VINA RESULT:    -7.755      2.324      3.048
REMARK INTER + INTRA:         -11.664
REMARK INTER:                 -10.624
REMARK INTRA:                  -1.040
REMARK UNBOUND:                -0.736
REMARK  Name = 
REMARK  7 active torsions:
REMARK  status: ('A' for Active; 'I' for Inactive)
REMARK    1  A    between atoms: C_2  and  C_3
REMARK    2  A    between atoms: C_2  and  C_19
REMARK    3  A    between atoms: C_3  and  C_4
REMARK    4  A    between atoms: C_4  and  C_5
REMARK    5  A    between atoms: C_8  and  C_9
REMARK    6  A    between atoms: C_9  and  N_10
REMARK    7  A    between atoms: N_10  and  C_11
REMARK                            x       y       z     vdW  Elec       q    Type
REMARK                         _______ _______ _______ _____ _____    ______ ____
ROOT
ATOM      1  C   UNL     1      47.627   5.829  14.296  0.00  0.00    +0.000 C 
ENDROOT
BRANCH   1   2
ATOM      2  C   UNL     1      46.736   5.418  13.150  0.00  0.00    +0.000 A 
ATOM      3  C   UNL     1      46.073   4.184  13.157  0.00  0.00    +0.000 A 
ATOM      4  C   UNL     1      45.256   3.812  12.086  0.00  0.00    +0.000 A 
ATOM      5  C   UNL     1      45.079   4.671  10.995  0.00  0.00    +0.000 A 
ATOM      6  C   UNL     1      45.736   5.908  10.996  0.00  0.00    +0.000 A 
ATOM      7  C   UNL     1      46.558   6.278  12.061  0.00  0.00    +0.000 A 
BRANCH   5   8
ATOM      8  C   UNL     1      44.232   4.267   9.810  0.00  0.00    +0.000 C 
BRANCH   8   9
ATOM      9  N   UNL     1      44.878   4.591   8.536  0.00  0.00    +0.000 NA
ATOM     10  H   UNL     1      45.645   5.238   8.709  0.00  0.00    +0.000 HD
BRANCH   9  11
ATOM     11  C   UNL     1      45.362   3.405   7.815  0.00  0.00    +0.000 C 
ATOM     12  C   UNL     1      45.565   2.178   8.727  0.00  0.00    +0.000 C 
ATOM     13  C   UNL     1      46.195   1.006   7.978  0.00  0.00    +0.000 C 
ATOM     14  C   UNL     1      47.513   1.407   7.331  0.00  0.00    +0.000 C 
ATOM     15  C   UNL     1      47.318   2.594   6.394  0.00  0.00    +0.000 C 
ATOM     16  C   UNL     1      46.682   3.781   7.115  0.00  0.00    +0.000 C 
ENDBRANCH   9  11
ENDBRANCH   8   9
ENDBRANCH   5   8
ENDBRANCH   1   2
BRANCH   1  17
ATOM     17  C   UNL     1      48.476   7.047  13.944  0.00  0.00    +0.000 C 
BRANCH  17  19
ATOM     18  O   UNL     1      50.694   7.330  14.816  0.00  0.00    +0.000 OA
ATOM     19  C   UNL     1      49.486   7.358  15.033  0.00  0.00    +0.000 C 
BRANCH  19  20
ATOM     20  C   UNL     1      48.967   7.649  16.375  0.00  0.00    +0.000 A 
ATOM     21  C   UNL     1      48.459   8.885  16.741  0.00  0.00    +0.000 A 
ATOM     22  S   UNL     1      47.836   8.911  18.331  0.00  0.00    +0.000 S 
ATOM     23  C   UNL     1      48.252   7.280  18.580  0.00  0.00    +0.000 A 
ATOM     24  N   UNL     1      47.986   6.660  19.760  0.00  0.00    +0.000 NA
ATOM     25  C   UNL     1      48.354   5.424  19.804  0.00  0.00    +0.000 A 
ATOM     26  N   UNL     1      48.973   4.753  18.780  0.00  0.00    +0.000 N 
ATOM     27  C   UNL     1      49.349   5.361  17.602  0.00  0.00    +0.000 A 
ATOM     28  O   UNL     1      50.079   4.786  16.805  0.00  0.00    +0.000 OA
ATOM     29  C   UNL     1      48.878   6.729  17.477  0.00  0.00    +0.000 A 
ATOM     30  H   UNL     1      49.293   3.804  18.900  0.00  0.00    +0.000 HD
ENDBRANCH  19  20
ENDBRANCH  17  19
ENDBRANCH   1  17
TORSDOF 7
ENDMDL
MODEL 4
REMARK VINA RESULT:    -7.329      3.370      9.033
REMARK INTER + INTRA:         -11.064
REMARK INTER:                  -9.956
REMARK INTRA:                  -1.108
REMARK UNBOUND:                -0.736
REMARK  Name = 
REMARK  7 active torsions:
REMARK  status: ('A' for Active; 'I' for Inactive)
REMARK    1  A    between atoms: C_2  and  C_3
REMARK    2  A    between atoms: C_2  and  C_19
REMARK    3  A    between atoms: C_3  and  C_4
REMARK    4  A    between atoms: C_4  and  C_5
REMARK    5  A    between atoms: C_8  and  C_9
REMARK    6  A    between atoms: C_9  and  N_10
REMARK    7  A    between atoms: N_10  and  C_11
REMARK                            x       y       z     vdW  Elec       q    Type
REMARK                         _______ _______ _______ _____ _____    ______ ____
ROOT
ATOM      1  C   UNL     1      47.004   5.898  12.596  0.00  0.00    +0.000 C 
ENDROOT
BRANCH   1   2
ATOM      2  C   UNL     1      47.416   5.611  14.018  0.00  0.00    +0.000 A 
ATOM      3  C   UNL     1      48.241   6.496  14.725  0.00  0.00    +0.000 A 
ATOM      4  C   UNL     1      48.621   6.215  16.040  0.00  0.00    +0.000 A 
ATOM      5  C   UNL     1      48.175   5.050  16.675  0.00  0.00    +0.000 A 
ATOM      6  C   UNL     1      47.343   4.172  15.968  0.00  0.00    +0.000 A 
ATOM      7  C   UNL     1      46.968   4.448  14.653  0.00  0.00    +0.000 A 
BRANCH   5   8
ATOM      8  C   UNL     1      48.610   4.710  18.082  0.00  0.00    +0.000 C 
BRANCH   8   9
ATOM      9  N   UNL     1      50.039   4.951  18.291  0.00  0.00    +0.000 NA
ATOM     10  H   UNL     1      50.222   5.013  19.291  0.00  0.00    +0.000 HD
BRANCH   9  11
ATOM     11  C   UNL     1      50.894   3.924  17.677  0.00  0.00    +0.000 C 
ATOM     12  C   UNL     1      50.256   2.521  17.675  0.00  0.00    +0.000 C 
ATOM     13  C   UNL     1      51.219   1.455  17.157  0.00  0.00    +0.000 C 
ATOM     14  C   UNL     1      52.515   1.445  17.955  0.00  0.00    +0.000 C 
ATOM     15  C   UNL     1      53.177   2.818  17.931  0.00  0.00    +0.000 C 
ATOM     16  C   UNL     1      52.234   3.906  18.439  0.00  0.00    +0.000 C 
ENDBRANCH   9  11
ENDBRANCH   8   9
ENDBRANCH   5   8
ENDBRANCH   1   2
BRANCH   1  17
ATOM     17  C   UNL     1      46.013   7.054  12.515  0.00  0.00    +0.000 C 
BRANCH  17  19
ATOM     18  O   UNL     1      44.035   7.532  11.242  0.00  0.00    +0.000 OA
ATOM     19  C   UNL     1      44.776   6.678  11.720  0.00  0.00    +0.000 C 
BRANCH  19  20
ATOM     20  C   UNL     1      44.469   5.249  11.583  0.00  0.00    +0.000 A 
ATOM     21  C   UNL     1      43.819   4.515  12.562  0.00  0.00    +0.000 A 
ATOM     22  S   UNL     1      43.506   2.902  12.095  0.00  0.00    +0.000 S 
ATOM     23  C   UNL     1      44.255   3.136  10.584  0.00  0.00    +0.000 A 
ATOM     24  N   UNL     1      44.329   2.128   9.675  0.00  0.00    +0.000 NA
ATOM     25  C   UNL     1      44.920   2.451   8.574  0.00  0.00    +0.000 A 
ATOM     26  N   UNL     1      45.453   3.686   8.303  0.00  0.00    +0.000 N 
ATOM     27  C   UNL     1      45.486   4.709   9.225  0.00  0.00    +0.000 A 
ATOM     28  O   UNL     1      46.149   5.718   9.018  0.00  0.00    +0.000 OA
ATOM     29  C   UNL     1      44.756   4.417  10.446  0.00  0.00    +0.000 A 
ATOM     30  H   UNL     1      45.959   3.856   7.446  0.00  0.00    +0.000 HD
ENDBRANCH  19  20
ENDBRANCH  17  19
ENDBRANCH   1  17
TORSDOF 7
ENDMDL
MODEL 5
REMARK VINA RESULT:    -7.206      2.937      3.971
REMARK INTER + INTRA:         -10.891
REMARK INTER:                  -9.652
REMARK INTRA:                  -1.239
REMARK UNBOUND:                -0.736
REMARK  Name = 
REMARK  7 active torsions:
REMARK  status: ('A' for Active; 'I' for Inactive)
REMARK    1  A    between atoms: C_2  and  C_3
REMARK    2  A    between atoms: C_2  and  C_19
REMARK    3  A    between atoms: C_3  and  C_4
REMARK    4  A    between atoms: C_4  and  C_5
REMARK    5  A    between atoms: C_8  and  C_9
REMARK    6  A    between atoms: C_9  and  N_10
REMARK    7  A    between atoms: N_10  and  C_11
REMARK                            x       y       z     vdW  Elec       q    Type
REMARK                         _______ _______ _______ _____ _____    ______ ____
ROOT
ATOM      1  C   UNL     1      48.662   7.211  13.530  0.00  0.00    +0.000 C 
ENDROOT
BRANCH   1   2
ATOM      2  C   UNL     1      47.538   6.437  12.888  0.00  0.00    +0.000 A 
ATOM      3  C   UNL     1      46.985   5.312  13.515  0.00  0.00    +0.000 A 
ATOM      4  C   UNL     1      45.948   4.599  12.907  0.00  0.00    +0.000 A 
ATOM      5  C   UNL     1      45.440   5.003  11.667  0.00  0.00    +0.000 A 
ATOM      6  C   UNL     1      45.989   6.134  11.048  0.00  0.00    +0.000 A 
ATOM      7  C   UNL     1      47.029   6.842  11.650  0.00  0.00    +0.000 A 
BRANCH   5   8
ATOM      8  C   UNL     1      44.347   4.220  10.975  0.00  0.00    +0.000 C 
BRANCH   8   9
ATOM      9  N   UNL     1      44.193   4.612   9.573  0.00  0.00    +0.000 NA
ATOM     10  H   UNL     1      44.681   5.492   9.419  0.00  0.00    +0.000 HD
BRANCH   9  11
ATOM     11  C   UNL     1      44.672   3.590   8.631  0.00  0.00    +0.000 C 
ATOM     12  C   UNL     1      45.057   2.263   9.315  0.00  0.00    +0.000 C 
ATOM     13  C   UNL     1      45.677   1.271   8.333  0.00  0.00    +0.000 C 
ATOM     14  C   UNL     1      46.885   1.872   7.628  0.00  0.00    +0.000 C 
ATOM     15  C   UNL     1      46.508   3.164   6.913  0.00  0.00    +0.000 C 
ATOM     16  C   UNL     1      45.879   4.174   7.871  0.00  0.00    +0.000 C 
ENDBRANCH   9  11
ENDBRANCH   8   9
ENDBRANCH   5   8
ENDBRANCH   1   2
BRANCH   1  17
ATOM     17  C   UNL     1      48.178   8.029  14.723  0.00  0.00    +0.000 C 
BRANCH  17  19
ATOM     18  O   UNL     1      50.137   8.557  16.004  0.00  0.00    +0.000 OA
ATOM     19  C   UNL     1      49.111   7.890  15.912  0.00  0.00    +0.000 C 
BRANCH  19  20
ATOM     20  C   UNL     1      48.765   6.891  16.930  0.00  0.00    +0.000 A 
ATOM     21  C   UNL     1      48.906   5.526  16.733  0.00  0.00    +0.000 A 
ATOM     22  S   UNL     1      48.521   4.605  18.118  0.00  0.00    +0.000 S 
ATOM     23  C   UNL     1      48.131   6.003  19.008  0.00  0.00    +0.000 A 
ATOM     24  N   UNL     1      47.721   5.919  20.302  0.00  0.00    +0.000 NA
ATOM     25  C   UNL     1      47.465   7.059  20.849  0.00  0.00    +0.000 A 
ATOM     26  N   UNL     1      47.570   8.274  20.221  0.00  0.00    +0.000 N 
ATOM     27  C   UNL     1      47.891   8.404  18.887  0.00  0.00    +0.000 A 
ATOM     28  O   UNL     1      47.772   9.481  18.317  0.00  0.00    +0.000 OA
ATOM     29  C   UNL     1      48.270   7.153  18.255  0.00  0.00    +0.000 A 
ATOM     30  H   UNL     1      47.294   9.125  20.687  0.00  0.00    +0.000 HD
ENDBRANCH  19  20
ENDBRANCH  17  19
ENDBRANCH   1  17
TORSDOF 7
ENDMDL
MODEL 6
REMARK VINA RESULT:    -7.185      2.119      3.020
REMARK INTER + INTRA:         -10.861
REMARK INTER:                  -9.580
REMARK INTRA:                  -1.281
REMARK UNBOUND:                -0.736
REMARK  Name = 
REMARK  7 active torsions:
REMARK  status: ('A' for Active; 'I' for Inactive)
REMARK    1  A    between atoms: C_2  and  C_3
REMARK    2  A    between atoms: C_2  and  C_19
REMARK    3  A    between atoms: C_3  and  C_4
REMARK    4  A    between atoms: C_4  and  C_5
REMARK    5  A    between atoms: C_8  and  C_9
REMARK    6  A    between atoms: C_9  and  N_10
REMARK    7  A    between atoms: N_10  and  C_11
REMARK                            x       y       z     vdW  Elec       q    Type
REMARK                         _______ _______ _______ _____ _____    ______ ____
ROOT
ATOM      1  C   UNL     1      49.264   6.859  15.072  0.00  0.00    +0.000 C 
ENDROOT
BRANCH   1   2
ATOM      2  C   UNL     1      48.193   6.717  14.018  0.00  0.00    +0.000 A 
ATOM      3  C   UNL     1      47.379   5.578  13.964  0.00  0.00    +0.000 A 
ATOM      4  C   UNL     1      46.395   5.456  12.979  0.00  0.00    +0.000 A 
ATOM      5  C   UNL     1      46.202   6.473  12.037  0.00  0.00    +0.000 A 
ATOM      6  C   UNL     1      47.012   7.615  12.100  0.00  0.00    +0.000 A 
ATOM      7  C   UNL     1      47.999   7.735  13.079  0.00  0.00    +0.000 A 
BRANCH   5   8
ATOM      8  C   UNL     1      45.171   6.339  10.940  0.00  0.00    +0.000 C 
BRANCH   8   9
ATOM      9  N   UNL     1      44.364   5.127  11.088  0.00  0.00    +0.000 NA
ATOM     10  H   UNL     1      43.402   5.393  11.294  0.00  0.00    +0.000 HD
BRANCH   9  11
ATOM     11  C   UNL     1      44.410   4.253   9.906  0.00  0.00    +0.000 C 
ATOM     12  C   UNL     1      44.583   2.762  10.257  0.00  0.00    +0.000 C 
ATOM     13  C   UNL     1      44.764   1.897   9.011  0.00  0.00    +0.000 C 
ATOM     14  C   UNL     1      45.935   2.380   8.168  0.00  0.00    +0.000 C 
ATOM     15  C   UNL     1      45.756   3.844   7.779  0.00  0.00    +0.000 C 
ATOM     16  C   UNL     1      45.566   4.733   9.007  0.00  0.00    +0.000 C 
ENDBRANCH   9  11
ENDBRANCH   8   9
ENDBRANCH   5   8
ENDBRANCH   1   2
BRANCH   1  17
ATOM     17  C   UNL     1      48.750   7.595  16.305  0.00  0.00    +0.000 C 
BRANCH  17  19
ATOM     18  O   UNL     1      49.418   7.318  18.594  0.00  0.00    +0.000 OA
ATOM     19  C   UNL     1      48.983   6.793  17.572  0.00  0.00    +0.000 C 
BRANCH  19  20
ATOM     20  C   UNL     1      48.715   5.351  17.520  0.00  0.00    +0.000 A 
ATOM     21  C   UNL     1      47.437   4.818  17.487  0.00  0.00    +0.000 A 
ATOM     22  S   UNL     1      47.423   3.117  17.328  0.00  0.00    +0.000 S 
ATOM     23  C   UNL     1      49.123   3.048  17.328  0.00  0.00    +0.000 A 
ATOM     24  N   UNL     1      49.777   1.861  17.216  0.00  0.00    +0.000 NA
ATOM     25  C   UNL     1      51.064   1.963  17.226  0.00  0.00    +0.000 A 
ATOM     26  N   UNL     1      51.757   3.141  17.349  0.00  0.00    +0.000 N 
ATOM     27  C   UNL     1      51.142   4.356  17.559  0.00  0.00    +0.000 A 
ATOM     28  O   UNL     1      51.797   5.343  17.869  0.00  0.00    +0.000 OA
ATOM     29  C   UNL     1      49.694   4.299  17.469  0.00  0.00    +0.000 A 
ATOM     30  H   UNL     1      52.764   3.146  17.414  0.00  0.00    +0.000 HD
ENDBRANCH  19  20
ENDBRANCH  17  19
ENDBRANCH   1  17
TORSDOF 7
ENDMDL
MODEL 7
REMARK VINA RESULT:    -7.018      2.155      2.618
REMARK INTER + INTRA:         -10.625
REMARK INTER:                  -9.613
REMARK INTRA:                  -1.012
REMARK UNBOUND:                -0.736
REMARK  Name = 
REMARK  7 active torsions:
REMARK  status: ('A' for Active; 'I' for Inactive)
REMARK    1  A    between atoms: C_2  and  C_3
REMARK    2  A    between atoms: C_2  and  C_19
REMARK    3  A    between atoms: C_3  and  C_4
REMARK    4  A    between atoms: C_4  and  C_5
REMARK    5  A    between atoms: C_8  and  C_9
REMARK    6  A    between atoms: C_9  and  N_10
REMARK    7  A    between atoms: N_10  and  C_11
REMARK                            x       y       z     vdW  Elec       q    Type
REMARK                         _______ _______ _______ _____ _____    ______ ____
ROOT
ATOM      1  C   UNL     1      47.339   5.582  14.418  0.00  0.00    +0.000 C 
ENDROOT
BRANCH   1   2
ATOM      2  C   UNL     1      46.514   5.268  13.195  0.00  0.00    +0.000 A 
ATOM      3  C   UNL     1      45.869   4.032  13.055  0.00  0.00    +0.000 A 
ATOM      4  C   UNL     1      45.112   3.751  11.914  0.00  0.00    +0.000 A 
ATOM      5  C   UNL     1      44.979   4.704  10.897  0.00  0.00    +0.000 A 
ATOM      6  C   UNL     1      45.618   5.943  11.045  0.00  0.00    +0.000 A 
ATOM      7  C   UNL     1      46.379   6.221  12.180  0.00  0.00    +0.000 A 
BRANCH   5   8
ATOM      8  C   UNL     1      44.200   4.403   9.638  0.00  0.00    +0.000 C 
BRANCH   8   9
ATOM      9  N   UNL     1      44.132   2.966   9.363  0.00  0.00    +0.000 NA
ATOM     10  H   UNL     1      43.159   2.704   9.212  0.00  0.00    +0.000 HD
BRANCH   9  11
ATOM     11  C   UNL     1      44.956   2.557   8.216  0.00  0.00    +0.000 C 
ATOM     12  C   UNL     1      45.935   1.413   8.546  0.00  0.00    +0.000 C 
ATOM     13  C   UNL     1      46.869   1.104   7.378  0.00  0.00    +0.000 C 
ATOM     14  C   UNL     1      47.634   2.344   6.937  0.00  0.00    +0.000 C 
ATOM     15  C   UNL     1      46.674   3.470   6.568  0.00  0.00    +0.000 C 
ATOM     16  C   UNL     1      45.723   3.797   7.718  0.00  0.00    +0.000 C 
ENDBRANCH   9  11
ENDBRANCH   8   9
ENDBRANCH   5   8
ENDBRANCH   1   2
BRANCH   1  17
ATOM     17  C   UNL     1      48.478   6.545  14.101  0.00  0.00    +0.000 C 
BRANCH  17  19
ATOM     18  O   UNL     1      48.311   7.953  16.038  0.00  0.00    +0.000 OA
ATOM     19  C   UNL     1      49.013   7.212  15.355  0.00  0.00    +0.000 C 
BRANCH  19  20
ATOM     20  C   UNL     1      50.420   6.976  15.699  0.00  0.00    +0.000 A 
ATOM     21  C   UNL     1      51.469   7.679  15.127  0.00  0.00    +0.000 A 
ATOM     22  S   UNL     1      52.990   7.267  15.784  0.00  0.00    +0.000 S 
ATOM     23  C   UNL     1      52.290   6.120  16.830  0.00  0.00    +0.000 A 
ATOM     24  N   UNL     1      53.054   5.395  17.689  0.00  0.00    +0.000 NA
ATOM     25  C   UNL     1      52.387   4.568  18.421  0.00  0.00    +0.000 A 
ATOM     26  N   UNL     1      51.027   4.392  18.367  0.00  0.00    +0.000 N 
ATOM     27  C   UNL     1      50.223   5.033  17.451  0.00  0.00    +0.000 A 
ATOM     28  O   UNL     1      49.056   4.697  17.299  0.00  0.00    +0.000 OA
ATOM     29  C   UNL     1      50.920   6.036  16.665  0.00  0.00    +0.000 A 
ATOM     30  H   UNL     1      50.574   3.683  18.924  0.00  0.00    +0.000 HD
ENDBRANCH  19  20
ENDBRANCH  17  19
ENDBRANCH   1  17
TORSDOF 7
ENDMDL
MODEL 8
REMARK VINA RESULT:    -6.899      2.025      3.108
REMARK INTER + INTRA:         -10.458
REMARK INTER:                  -9.209
REMARK INTRA:                  -1.250
REMARK UNBOUND:                -0.736
REMARK  Name = 
REMARK  7 active torsions:
REMARK  status: ('A' for Active; 'I' for Inactive)
REMARK    1  A    between atoms: C_2  and  C_3
REMARK    2  A    between atoms: C_2  and  C_19
REMARK    3  A    between atoms: C_3  and  C_4
REMARK    4  A    between atoms: C_4  and  C_5
REMARK    5  A    between atoms: C_8  and  C_9
REMARK    6  A    between atoms: C_9  and  N_10
REMARK    7  A    between atoms: N_10  and  C_11
REMARK                            x       y       z     vdW  Elec       q    Type
REMARK                         _______ _______ _______ _____ _____    ______ ____
ROOT
ATOM      1  C   UNL     1      49.180   7.522  15.045  0.00  0.00    +0.000 C 
ENDROOT
BRANCH   1   2
ATOM      2  C   UNL     1      48.057   7.252  14.075  0.00  0.00    +0.000 A 
ATOM      3  C   UNL     1      47.757   5.947  13.662  0.00  0.00    +0.000 A 
ATOM      4  C   UNL     1      46.718   5.710  12.758  0.00  0.00    +0.000 A 
ATOM      5  C   UNL     1      45.954   6.772  12.259  0.00  0.00    +0.000 A 
ATOM      6  C   UNL     1      46.251   8.075  12.682  0.00  0.00    +0.000 A 
ATOM      7  C   UNL     1      47.292   8.313  13.578  0.00  0.00    +0.000 A 
BRANCH   5   8
ATOM      8  C   UNL     1      44.854   6.539  11.249  0.00  0.00    +0.000 C 
BRANCH   8   9
ATOM      9  N   UNL     1      44.251   5.212  11.388  0.00  0.00    +0.000 NA
ATOM     10  H   UNL     1      43.292   5.316  11.712  0.00  0.00    +0.000 HD
BRANCH   9  11
ATOM     11  C   UNL     1      44.288   4.427  10.145  0.00  0.00    +0.000 C 
ATOM     12  C   UNL     1      44.341   2.905  10.385  0.00  0.00    +0.000 C 
ATOM     13  C   UNL     1      44.514   2.125   9.084  0.00  0.00    +0.000 C 
ATOM     14  C   UNL     1      45.752   2.584   8.325  0.00  0.00    +0.000 C 
ATOM     15  C   UNL     1      45.692   4.081   8.044  0.00  0.00    +0.000 C 
ATOM     16  C   UNL     1      45.512   4.887   9.329  0.00  0.00    +0.000 C 
ENDBRANCH   9  11
ENDBRANCH   8   9
ENDBRANCH   5   8
ENDBRANCH   1   2
BRANCH   1  17
ATOM     17  C   UNL     1      48.672   8.142  16.342  0.00  0.00    +0.000 C 
BRANCH  17  19
ATOM     18  O   UNL     1      47.951   7.210  18.433  0.00  0.00    +0.000 OA
ATOM     19  C   UNL     1      48.746   7.161  17.498  0.00  0.00    +0.000 C 
BRANCH  19  20
ATOM     20  C   UNL     1      49.835   6.178  17.482  0.00  0.00    +0.000 A 
ATOM     21  C   UNL     1      51.165   6.515  17.677  0.00  0.00    +0.000 A 
ATOM     22  S   UNL     1      52.204   5.160  17.705  0.00  0.00    +0.000 S 
ATOM     23  C   UNL     1      50.908   4.091  17.432  0.00  0.00    +0.000 A 
ATOM     24  N   UNL     1      51.110   2.749  17.349  0.00  0.00    +0.000 NA
ATOM     25  C   UNL     1      50.037   2.064  17.142  0.00  0.00    +0.000 A 
ATOM     26  N   UNL     1      48.780   2.597  17.001  0.00  0.00    +0.000 N 
ATOM     27  C   UNL     1      48.537   3.953  16.984  0.00  0.00    +0.000 A 
ATOM     28  O   UNL     1      47.442   4.389  16.651  0.00  0.00    +0.000 OA
ATOM     29  C   UNL     1      49.704   4.758  17.298  0.00  0.00    +0.000 A 
ATOM     30  H   UNL     1      47.990   2.010  16.779  0.00  0.00    +0.000 HD
ENDBRANCH  19  20
ENDBRANCH  17  19
ENDBRANCH   1  17
TORSDOF 7
ENDMDL
MODEL 9
REMARK VINA RESULT:    -6.810      2.372      3.362
REMARK INTER + INTRA:         -10.333
REMARK INTER:                  -9.136
REMARK INTRA:                  -1.197
REMARK UNBOUND:                -0.736
REMARK  Name = 
REMARK  7 active torsions:
REMARK  status: ('A' for Active; 'I' for Inactive)
REMARK    1  A    between atoms: C_2  and  C_3
REMARK    2  A    between atoms: C_2  and  C_19
REMARK    3  A    between atoms: C_3  and  C_4
REMARK    4  A    between atoms: C_4  and  C_5
REMARK    5  A    between atoms: C_8  and  C_9
REMARK    6  A    between atoms: C_9  and  N_10
REMARK    7  A    between atoms: N_10  and  C_11
REMARK                            x       y       z     vdW  Elec       q    Type
REMARK                         _______ _______ _______ _____ _____    ______ ____
ROOT
ATOM      1  C   UNL     1      49.453   6.636  15.956  0.00  0.00    +0.000 C 
ENDROOT
BRANCH   1   2
ATOM      2  C   UNL     1      48.395   6.762  14.888  0.00  0.00    +0.000 A 
ATOM      3  C   UNL     1      48.116   7.997  14.288  0.00  0.00    +0.000 A 
ATOM      4  C   UNL     1      47.129   8.101  13.304  0.00  0.00    +0.000 A 
ATOM      5  C   UNL     1      46.409   6.972  12.897  0.00  0.00    +0.000 A 
ATOM      6  C   UNL     1      46.697   5.736  13.493  0.00  0.00    +0.000 A 
ATOM      7  C   UNL     1      47.677   5.632  14.480  0.00  0.00    +0.000 A 
BRANCH   5   8
ATOM      8  C   UNL     1      45.310   7.073  11.865  0.00  0.00    +0.000 C 
BRANCH   8   9
ATOM      9  N   UNL     1      44.053   6.490  12.340  0.00  0.00    +0.000 NA
ATOM     10  H   UNL     1      43.329   7.206  12.322  0.00  0.00    +0.000 HD
BRANCH   9  11
ATOM     11  C   UNL     1      43.632   5.315  11.562  0.00  0.00    +0.000 C 
ATOM     12  C   UNL     1      43.612   4.013  12.387  0.00  0.00    +0.000 C 
ATOM     13  C   UNL     1      43.302   2.792  11.523  0.00  0.00    +0.000 C 
ATOM     14  C   UNL     1      44.284   2.670  10.366  0.00  0.00    +0.000 C 
ATOM     15  C   UNL     1      44.282   3.937   9.518  0.00  0.00    +0.000 C 
ATOM     16  C   UNL     1      44.583   5.177  10.358  0.00  0.00    +0.000 C 
ENDBRANCH   9  11
ENDBRANCH   8   9
ENDBRANCH   5   8
ENDBRANCH   1   2
BRANCH   1  17
ATOM     17  C   UNL     1      48.851   6.674  17.357  0.00  0.00    +0.000 C 
BRANCH  17  19
ATOM     18  O   UNL     1      47.930   4.730  18.421  0.00  0.00    +0.000 OA
ATOM     19  C   UNL     1      48.936   5.322  18.040  0.00  0.00    +0.000 C 
BRANCH  19  20
ATOM     20  C   UNL     1      50.274   4.764  18.273  0.00  0.00    +0.000 A 
ATOM     21  C   UNL     1      51.274   5.447  18.946  0.00  0.00    +0.000 A 
ATOM     22  S   UNL     1      52.694   4.522  19.157  0.00  0.00    +0.000 S 
ATOM     23  C   UNL     1      52.019   3.196  18.330  0.00  0.00    +0.000 A 
ATOM     24  N   UNL     1      52.723   2.046  18.155  0.00  0.00    +0.000 NA
ATOM     25  C   UNL     1      52.083   1.127  17.514  0.00  0.00    +0.000 A 
ATOM     26  N   UNL     1      50.808   1.254  17.023  0.00  0.00    +0.000 N 
ATOM     27  C   UNL     1      50.091   2.428  17.093  0.00  0.00    +0.000 A 
ATOM     28  O   UNL     1      49.048   2.563  16.465  0.00  0.00    +0.000 OA
ATOM     29  C   UNL     1      50.739   3.461  17.880  0.00  0.00    +0.000 A 
ATOM     30  H   UNL     1      50.388   0.519  16.475  0.00  0.00    +0.000 HD
ENDBRANCH  19  20
ENDBRANCH  17  19
ENDBRANCH   1  17
TORSDOF 7
ENDMDL
