MODEL 1
REMARK VINA RESULT:    -8.063      0.000      0.000
REMARK INTER + INTRA:         -12.887
REMARK INTER:                 -11.834
REMARK INTRA:                  -1.054
REMARK UNBOUND:                -1.054
REMARK  Name = 
REMARK  10 active torsions:
REMARK  status: ('A' for Active; 'I' for Inactive)
REMARK    1  A    between atoms: C_1  and  C_2
REMARK    2  A    between atoms: C_2  and  C_3
REMARK    3  A    between atoms: C_2  and  N_10
REMARK    4  A    between atoms: C_3  and  C_4
REMARK    5  A    between atoms: N_10  and  C_11
REMARK    6  A    between atoms: C_11  and  C_12
REMARK    7  A    between atoms: C_15  and  C_16
REMARK    8  A    between atoms: C_16  and  N_17
REMARK    9  A    between atoms: N_17  and  C_18
REMARK   10  A    between atoms: C_19  and  C_21
REMARK                            x       y       z     vdW  Elec       q    Type
REMARK                         _______ _______ _______ _____ _____    ______ ____
ROOT
ATOM      1  C   UNL     1      46.883   5.630  12.919  0.00  0.00    +0.000 A 
ATOM      2  C   UNL     1      46.738   4.698  13.956  0.00  0.00    +0.000 A 
ATOM      3  C   UNL     1      47.336   4.910  15.195  0.00  0.00    +0.000 A 
ATOM      4  C   UNL     1      48.082   6.066  15.438  0.00  0.00    +0.000 A 
ATOM      5  C   UNL     1      48.281   6.975  14.390  0.00  0.00    +0.000 A 
ATOM      6  C   UNL     1      47.683   6.759  13.140  0.00  0.00    +0.000 A 
ENDROOT
BRANCH   1   7
ATOM      7  C   UNL     1      46.180   5.400  11.595  0.00  0.00    +0.000 C 
BRANCH   7   8
ATOM      8  N   UNL     1      44.895   4.745  11.822  0.00  0.00    +0.000 NA
ATOM      9  H   UNL     1      44.777   4.582  12.819  0.00  0.00    +0.000 HD
BRANCH   8  11
ATOM     10  C   UNL     1      43.494   2.833  11.865  0.00  0.00    +0.000 C 
ATOM     11  C   UNL     1      44.669   3.476  11.115  0.00  0.00    +0.000 C 
BRANCH  11  12
ATOM     12  C   UNL     1      44.364   3.696   9.621  0.00  0.00    +0.000 C 
BRANCH  12  13
ATOM     13  C   UNL     1      45.320   3.072   8.631  0.00  0.00    +0.000 A 
ATOM     14  C   UNL     1      46.003   3.876   7.708  0.00  0.00    +0.000 A 
ATOM     15  C   UNL     1      46.998   3.332   6.894  0.00  0.00    +0.000 A 
ATOM     16  C   UNL     1      47.308   1.977   6.983  0.00  0.00    +0.000 A 
ATOM     17  C   UNL     1      46.609   1.161   7.871  0.00  0.00    +0.000 A 
ATOM     18  C   UNL     1      45.622   1.705   8.693  0.00  0.00    +0.000 A 
ENDBRANCH  12  13
ENDBRANCH  11  12
ENDBRANCH   8  11
ENDBRANCH   7   8
ENDBRANCH   1   7
BRANCH   4  19
ATOM     19  C   UNL     1      48.591   6.357  16.836  0.00  0.00    +0.000 C 
BRANCH  19  20
ATOM     20  N   UNL     1      49.916   5.843  17.177  0.00  0.00    +0.000 N 
ATOM     21  C   UNL     1      51.068   6.332  16.435  0.00  0.00    +0.000 C 
ATOM     22  C   UNL     1      49.946   4.712  18.015  0.00  0.00    +0.000 C 
ATOM     23  O   UNL     1      48.908   4.234  18.477  0.00  0.00    +0.000 OA
BRANCH  22  24
ATOM     24  C   UNL     1      51.245   4.129  18.385  0.00  0.00    +0.000 A 
ATOM     25  C   UNL     1      52.161   4.734  19.230  0.00  0.00    +0.000 A 
ATOM     26  S   UNL     1      53.577   3.828  19.483  0.00  0.00    +0.000 S 
ATOM     27  C   UNL     1      52.946   2.518  18.606  0.00  0.00    +0.000 A 
ATOM     28  N   UNL     1      53.625   1.341  18.535  0.00  0.00    +0.000 NA
ATOM     29  C   UNL     1      53.007   0.418  17.885  0.00  0.00    +0.000 A 
ATOM     30  N   UNL     1      51.800   0.571  17.261  0.00  0.00    +0.000 N 
ATOM     31  C   UNL     1      51.129   1.781  17.195  0.00  0.00    +0.000 A 
ATOM     32  O   UNL     1      50.181   1.932  16.440  0.00  0.00    +0.000 OA
ATOM     33  C   UNL     1      51.723   2.811  18.029  0.00  0.00    +0.000 A 
ATOM     34  H   UNL     1      51.403  -0.170  16.700  0.00  0.00    +0.000 HD
ENDBRANCH  22  24
ENDBRANCH  19  20
ENDBRANCH   4  19
TORSDOF 8
ENDMDL
MODEL 2
REMARK VINA RESULT:    -7.892      3.218      3.840
REMARK INTER + INTRA:         -12.637
REMARK INTER:                 -11.451
REMARK INTRA:                  -1.186
REMARK UNBOUND:                -1.054
REMARK  Name = 
REMARK  10 active torsions:
REMARK  status: ('A' for Active; 'I' for Inactive)
REMARK    1  A    between atoms: C_1  and  C_2
REMARK    2  A    between atoms: C_2  and  C_3
REMARK    3  A    between atoms: C_2  and  N_10
REMARK    4  A    between atoms: C_3  and  C_4
REMARK    5  A    between atoms: N_10  and  C_11
REMARK    6  A    between atoms: C_11  and  C_12
REMARK    7  A    between atoms: C_15  and  C_16
REMARK    8  A    between atoms: C_16  and  N_17
REMARK    9  A    between atoms: N_17  and  C_18
REMARK   10  A    between atoms: C_19  and  C_21
REMARK                            x       y       z     vdW  Elec       q    Type
REMARK                         _______ _______ _______ _____ _____    ______ ____
ROOT
ATOM      1  C   UNL     1      45.154   6.014  12.533  0.00  0.00    +0.000 A 
ATOM      2  C   UNL     1      45.761   7.266  12.360  0.00  0.00    +0.000 A 
ATOM      3  C   UNL     1      46.947   7.581  13.018  0.00  0.00    +0.000 A 
ATOM      4  C   UNL     1      47.569   6.649  13.853  0.00  0.00    +0.000 A 
ATOM      5  C   UNL     1      46.940   5.417  14.078  0.00  0.00    +0.000 A 
ATOM      6  C   UNL     1      45.743   5.101  13.419  0.00  0.00    +0.000 A 
ENDROOT
BRANCH   1   7
ATOM      7  C   UNL     1      43.890   5.676  11.767  0.00  0.00    +0.000 C 
BRANCH   7   8
ATOM      8  N   UNL     1      44.211   5.426  10.364  0.00  0.00    +0.000 NA
ATOM      9  H   UNL     1      43.389   5.614   9.796  0.00  0.00    +0.000 HD
BRANCH   8  11
ATOM     10  C   UNL     1      43.810   3.141  10.854  0.00  0.00    +0.000 C 
ATOM     11  C   UNL     1      44.704   4.081  10.033  0.00  0.00    +0.000 C 
BRANCH  11  12
ATOM     12  C   UNL     1      44.625   3.796   8.521  0.00  0.00    +0.000 C 
BRANCH  12  13
ATOM     13  C   UNL     1      45.745   2.975   7.922  0.00  0.00    +0.000 A 
ATOM     14  C   UNL     1      45.926   1.641   8.311  0.00  0.00    +0.000 A 
ATOM     15  C   UNL     1      46.856   0.832   7.657  0.00  0.00    +0.000 A 
ATOM     16  C   UNL     1      47.625   1.353   6.618  0.00  0.00    +0.000 A 
ATOM     17  C   UNL     1      47.479   2.689   6.248  0.00  0.00    +0.000 A 
ATOM     18  C   UNL     1      46.542   3.496   6.894  0.00  0.00    +0.000 A 
ENDBRANCH  12  13
ENDBRANCH  11  12
ENDBRANCH   8  11
ENDBRANCH   7   8
ENDBRANCH   1   7
BRANCH   4  19
ATOM     19  C   UNL     1      48.938   6.949  14.432  0.00  0.00    +0.000 C 
BRANCH  19  20
ATOM     20  N   UNL     1      48.988   7.327  15.844  0.00  0.00    +0.000 N 
ATOM     21  C   UNL     1      48.515   8.647  16.232  0.00  0.00    +0.000 C 
ATOM     22  C   UNL     1      49.743   6.486  16.684  0.00  0.00    +0.000 C 
ATOM     23  O   UNL     1      50.271   5.460  16.251  0.00  0.00    +0.000 OA
BRANCH  22  24
ATOM     24  C   UNL     1      49.853   6.814  18.114  0.00  0.00    +0.000 A 
ATOM     25  C   UNL     1      50.842   7.618  18.657  0.00  0.00    +0.000 A 
ATOM     26  S   UNL     1      50.720   7.828  20.340  0.00  0.00    +0.000 S 
ATOM     27  C   UNL     1      49.245   6.988  20.381  0.00  0.00    +0.000 A 
ATOM     28  N   UNL     1      48.528   6.904  21.534  0.00  0.00    +0.000 NA
ATOM     29  C   UNL     1      47.405   6.287  21.409  0.00  0.00    +0.000 A 
ATOM     30  N   UNL     1      46.953   5.706  20.256  0.00  0.00    +0.000 N 
ATOM     31  C   UNL     1      47.699   5.653  19.091  0.00  0.00    +0.000 A 
ATOM     32  O   UNL     1      47.364   4.931  18.164  0.00  0.00    +0.000 OA
ATOM     33  C   UNL     1      48.910   6.454  19.149  0.00  0.00    +0.000 A 
ATOM     34  H   UNL     1      46.098   5.167  20.242  0.00  0.00    +0.000 HD
ENDBRANCH  22  24
ENDBRANCH  19  20
ENDBRANCH   4  19
TORSDOF 8
ENDMDL
MODEL 3
REMARK VINA RESULT:    -7.498      3.234      3.877
REMARK INTER + INTRA:         -12.058
REMARK INTER:                 -10.848
REMARK INTRA:                  -1.211
REMARK UNBOUND:                -1.054
REMARK  Name = 
REMARK  10 active torsions:
REMARK  status: ('A' for Active; 'I' for Inactive)
REMARK    1  A    between atoms: C_1  and  C_2
REMARK    2  A    between atoms: C_2  and  C_3
REMARK    3  A    between atoms: C_2  and  N_10
REMARK    4  A    between atoms: C_3  and  C_4
REMARK    5  A    between atoms: N_10  and  C_11
REMARK    6  A    between atoms: C_11  and  C_12
REMARK    7  A    between atoms: C_15  and  C_16
REMARK    8  A    between atoms: C_16  and  N_17
REMARK    9  A    between atoms: N_17  and  C_18
REMARK   10  A    between atoms: C_19  and  C_21
REMARK                            x       y       z     vdW  Elec       q    Type
REMARK                         _______ _______ _______ _____ _____    ______ ____
ROOT
ATOM      1  C   UNL     1      45.165   6.103  12.290  0.00  0.00    +0.000 A 
ATOM      2  C   UNL     1      45.640   5.244  13.291  0.00  0.00    +0.000 A 
ATOM      3  C   UNL     1      46.880   5.458  13.887  0.00  0.00    +0.000 A 
ATOM      4  C   UNL     1      47.673   6.546  13.511  0.00  0.00    +0.000 A 
ATOM      5  C   UNL     1      47.233   7.376  12.471  0.00  0.00    +0.000 A 
ATOM      6  C   UNL     1      45.985   7.157  11.867  0.00  0.00    +0.000 A 
ENDROOT
BRANCH   1   7
ATOM      7  C   UNL     1      43.789   5.877  11.693  0.00  0.00    +0.000 C 
BRANCH   7   8
ATOM      8  N   UNL     1      43.916   5.432  10.308  0.00  0.00    +0.000 NA
ATOM      9  H   UNL     1      42.999   5.445   9.869  0.00  0.00    +0.000 HD
BRANCH   8  11
ATOM     10  C   UNL     1      43.681   3.174  10.992  0.00  0.00    +0.000 C 
ATOM     11  C   UNL     1      44.511   4.104  10.096  0.00  0.00    +0.000 C 
BRANCH  11  12
ATOM     12  C   UNL     1      44.470   3.685   8.614  0.00  0.00    +0.000 C 
BRANCH  12  13
ATOM     13  C   UNL     1      45.669   2.933   8.084  0.00  0.00    +0.000 A 
ATOM     14  C   UNL     1      45.851   1.581   8.406  0.00  0.00    +0.000 A 
ATOM     15  C   UNL     1      46.868   0.840   7.802  0.00  0.00    +0.000 A 
ATOM     16  C   UNL     1      47.722   1.446   6.883  0.00  0.00    +0.000 A 
ATOM     17  C   UNL     1      47.573   2.799   6.584  0.00  0.00    +0.000 A 
ATOM     18  C   UNL     1      46.550   3.539   7.179  0.00  0.00    +0.000 A 
ENDBRANCH  12  13
ENDBRANCH  11  12
ENDBRANCH   8  11
ENDBRANCH   7   8
ENDBRANCH   1   7
BRANCH   4  19
ATOM     19  C   UNL     1      48.943   6.856  14.278  0.00  0.00    +0.000 C 
BRANCH  19  20
ATOM     20  N   UNL     1      48.788   7.274  15.670  0.00  0.00    +0.000 N 
ATOM     21  C   UNL     1      48.632   8.690  15.962  0.00  0.00    +0.000 C 
ATOM     22  C   UNL     1      49.073   6.299  16.645  0.00  0.00    +0.000 C 
ATOM     23  O   UNL     1      49.374   5.146  16.326  0.00  0.00    +0.000 OA
BRANCH  22  24
ATOM     24  C   UNL     1      48.956   6.653  18.068  0.00  0.00    +0.000 A 
ATOM     25  C   UNL     1      47.810   6.475  18.826  0.00  0.00    +0.000 A 
ATOM     26  S   UNL     1      47.963   6.971  20.445  0.00  0.00    +0.000 S 
ATOM     27  C   UNL     1      49.618   7.287  20.236  0.00  0.00    +0.000 A 
ATOM     28  N   UNL     1      50.395   7.642  21.295  0.00  0.00    +0.000 NA
ATOM     29  C   UNL     1      51.639   7.798  21.005  0.00  0.00    +0.000 A 
ATOM     30  N   UNL     1      52.173   7.680  19.750  0.00  0.00    +0.000 N 
ATOM     31  C   UNL     1      51.407   7.447  18.620  0.00  0.00    +0.000 A 
ATOM     32  O   UNL     1      51.883   7.579  17.503  0.00  0.00    +0.000 OA
ATOM     33  C   UNL     1      50.022   7.130  18.922  0.00  0.00    +0.000 A 
ATOM     34  H   UNL     1      53.144   7.892  19.573  0.00  0.00    +0.000 HD
ENDBRANCH  22  24
ENDBRANCH  19  20
ENDBRANCH   4  19
TORSDOF 8
ENDMDL
MODEL 4
REMARK VINA RESULT:    -7.419      2.299      3.743
REMARK INTER + INTRA:         -11.942
REMARK INTER:                 -11.203
REMARK INTRA:                  -0.739
REMARK UNBOUND:                -1.054
REMARK  Name = 
REMARK  10 active torsions:
REMARK  status: ('A' for Active; 'I' for Inactive)
REMARK    1  A    between atoms: C_1  and  C_2
REMARK    2  A    between atoms: C_2  and  C_3
REMARK    3  A    between atoms: C_2  and  N_10
REMARK    4  A    between atoms: C_3  and  C_4
REMARK    5  A    between atoms: N_10  and  C_11
REMARK    6  A    between atoms: C_11  and  C_12
REMARK    7  A    between atoms: C_15  and  C_16
REMARK    8  A    between atoms: C_16  and  N_17
REMARK    9  A    between atoms: N_17  and  C_18
REMARK   10  A    between atoms: C_19  and  C_21
REMARK                            x       y       z     vdW  Elec       q    Type
REMARK                         _______ _______ _______ _____ _____    ______ ____
ROOT
ATOM      1  C   UNL     1      44.288   6.222  11.914  0.00  0.00    +0.000 A 
ATOM      2  C   UNL     1      44.374   7.532  11.421  0.00  0.00    +0.000 A 
ATOM      3  C   UNL     1      45.391   8.386  11.838  0.00  0.00    +0.000 A 
ATOM      4  C   UNL     1      46.360   7.950  12.746  0.00  0.00    +0.000 A 
ATOM      5  C   UNL     1      46.249   6.663  13.289  0.00  0.00    +0.000 A 
ATOM      6  C   UNL     1      45.221   5.804  12.872  0.00  0.00    +0.000 A 
ENDROOT
BRANCH   1   7
ATOM      7  C   UNL     1      43.200   5.295  11.406  0.00  0.00    +0.000 C 
BRANCH   7   8
ATOM      8  N   UNL     1      43.410   5.013   9.989  0.00  0.00    +0.000 NA
ATOM      9  H   UNL     1      42.544   4.661   9.588  0.00  0.00    +0.000 HD
BRANCH   8  11
ATOM     10  C   UNL     1      44.115   2.790  10.421  0.00  0.00    +0.000 C 
ATOM     11  C   UNL     1      44.489   4.070   9.659  0.00  0.00    +0.000 C 
BRANCH  11  12
ATOM     12  C   UNL     1      44.606   3.838   8.141  0.00  0.00    +0.000 C 
BRANCH  12  13
ATOM     13  C   UNL     1      45.770   2.998   7.667  0.00  0.00    +0.000 A 
ATOM     14  C   UNL     1      45.981   1.720   8.204  0.00  0.00    +0.000 A 
ATOM     15  C   UNL     1      46.957   0.879   7.668  0.00  0.00    +0.000 A 
ATOM     16  C   UNL     1      47.743   1.312   6.602  0.00  0.00    +0.000 A 
ATOM     17  C   UNL     1      47.567   2.595   6.085  0.00  0.00    +0.000 A 
ATOM     18  C   UNL     1      46.583   3.433   6.612  0.00  0.00    +0.000 A 
ENDBRANCH  12  13
ENDBRANCH  11  12
ENDBRANCH   8  11
ENDBRANCH   7   8
ENDBRANCH   1   7
BRANCH   4  19
ATOM     19  C   UNL     1      47.548   8.836  13.066  0.00  0.00    +0.000 C 
BRANCH  19  20
ATOM     20  N   UNL     1      48.761   8.169  13.535  0.00  0.00    +0.000 N 
ATOM     21  C   UNL     1      49.412   7.205  12.662  0.00  0.00    +0.000 C 
ATOM     22  C   UNL     1      49.056   8.311  14.905  0.00  0.00    +0.000 C 
ATOM     23  O   UNL     1      48.356   9.012  15.638  0.00  0.00    +0.000 OA
BRANCH  22  24
ATOM     24  C   UNL     1      50.253   7.652  15.452  0.00  0.00    +0.000 A 
ATOM     25  C   UNL     1      51.531   8.182  15.396  0.00  0.00    +0.000 A 
ATOM     26  S   UNL     1      52.721   7.203  16.112  0.00  0.00    +0.000 S 
ATOM     27  C   UNL     1      51.547   6.110  16.672  0.00  0.00    +0.000 A 
ATOM     28  N   UNL     1      51.895   5.073  17.479  0.00  0.00    +0.000 NA
ATOM     29  C   UNL     1      50.900   4.357  17.872  0.00  0.00    +0.000 A 
ATOM     30  N   UNL     1      49.598   4.551  17.497  0.00  0.00    +0.000 N 
ATOM     31  C   UNL     1      49.209   5.511  16.579  0.00  0.00    +0.000 A 
ATOM     32  O   UNL     1      48.086   5.500  16.099  0.00  0.00    +0.000 OA
ATOM     33  C   UNL     1      50.279   6.425  16.217  0.00  0.00    +0.000 A 
ATOM     34  H   UNL     1      48.872   3.907  17.778  0.00  0.00    +0.000 HD
ENDBRANCH  22  24
ENDBRANCH  19  20
ENDBRANCH   4  19
TORSDOF 8
ENDMDL
MODEL 5
REMARK VINA RESULT:    -6.689      4.086      9.015
REMARK INTER + INTRA:         -10.871
REMARK INTER:                  -9.369
REMARK INTRA:                  -1.503
REMARK UNBOUND:                -1.054
REMARK  Name = 
REMARK  10 active torsions:
REMARK  status: ('A' for Active; 'I' for Inactive)
REMARK    1  A    between atoms: C_1  and  C_2
REMARK    2  A    between atoms: C_2  and  C_3
REMARK    3  A    between atoms: C_2  and  N_10
REMARK    4  A    between atoms: C_3  and  C_4
REMARK    5  A    between atoms: N_10  and  C_11
REMARK    6  A    between atoms: C_11  and  C_12
REMARK    7  A    between atoms: C_15  and  C_16
REMARK    8  A    between atoms: C_16  and  N_17
REMARK    9  A    between atoms: N_17  and  C_18
REMARK   10  A    between atoms: C_19  and  C_21
REMARK                            x       y       z     vdW  Elec       q    Type
REMARK                         _______ _______ _______ _____ _____    ______ ____
ROOT
ATOM      1  C   UNL     1      50.782   8.385  15.216  0.00  0.00    +0.000 A 
ATOM      2  C   UNL     1      49.669   8.786  15.970  0.00  0.00    +0.000 A 
ATOM      3  C   UNL     1      48.392   8.781  15.416  0.00  0.00    +0.000 A 
ATOM      4  C   UNL     1      48.188   8.359  14.100  0.00  0.00    +0.000 A 
ATOM      5  C   UNL     1      49.300   8.011  13.320  0.00  0.00    +0.000 A 
ATOM      6  C   UNL     1      50.588   8.022  13.877  0.00  0.00    +0.000 A 
ENDROOT
BRANCH   1   7
ATOM      7  C   UNL     1      52.156   8.352  15.858  0.00  0.00    +0.000 C 
BRANCH   7   8
ATOM      8  N   UNL     1      52.121   7.525  17.061  0.00  0.00    +0.000 NA
ATOM      9  H   UNL     1      52.895   7.788  17.667  0.00  0.00    +0.000 HD
BRANCH   8  11
ATOM     10  C   UNL     1      53.657   5.720  16.973  0.00  0.00    +0.000 C 
ATOM     11  C   UNL     1      52.166   6.070  16.860  0.00  0.00    +0.000 C 
BRANCH  11  12
ATOM     12  C   UNL     1      51.306   5.319  17.895  0.00  0.00    +0.000 C 
BRANCH  12  13
ATOM     13  C   UNL     1      50.079   4.607  17.374  0.00  0.00    +0.000 A 
ATOM     14  C   UNL     1      50.019   3.206  17.386  0.00  0.00    +0.000 A 
ATOM     15  C   UNL     1      48.836   2.545  17.051  0.00  0.00    +0.000 A 
ATOM     16  C   UNL     1      47.708   3.275  16.685  0.00  0.00    +0.000 A 
ATOM     17  C   UNL     1      47.767   4.667  16.634  0.00  0.00    +0.000 A 
ATOM     18  C   UNL     1      48.945   5.330  16.980  0.00  0.00    +0.000 A 
ENDBRANCH  12  13
ENDBRANCH  11  12
ENDBRANCH   8  11
ENDBRANCH   7   8
ENDBRANCH   1   7
BRANCH   4  19
ATOM     19  C   UNL     1      46.777   8.206  13.565  0.00  0.00    +0.000 C 
BRANCH  19  20
ATOM     20  N   UNL     1      46.475   6.972  12.843  0.00  0.00    +0.000 N 
ATOM     21  C   UNL     1      47.234   5.772  13.159  0.00  0.00    +0.000 C 
ATOM     22  C   UNL     1      45.656   7.105  11.705  0.00  0.00    +0.000 C 
ATOM     23  O   UNL     1      45.178   8.196  11.387  0.00  0.00    +0.000 OA
BRANCH  22  24
ATOM     24  C   UNL     1      45.323   5.907  10.918  0.00  0.00    +0.000 A 
ATOM     25  C   UNL     1      45.819   5.640   9.653  0.00  0.00    +0.000 A 
ATOM     26  S   UNL     1      45.267   4.179   8.983  0.00  0.00    +0.000 S 
ATOM     27  C   UNL     1      44.475   3.766  10.427  0.00  0.00    +0.000 A 
ATOM     28  N   UNL     1      43.883   2.551  10.569  0.00  0.00    +0.000 NA
ATOM     29  C   UNL     1      43.369   2.350  11.732  0.00  0.00    +0.000 A 
ATOM     30  N   UNL     1      43.348   3.265  12.749  0.00  0.00    +0.000 N 
ATOM     31  C   UNL     1      43.822   4.559  12.614  0.00  0.00    +0.000 A 
ATOM     32  O   UNL     1      43.577   5.408  13.457  0.00  0.00    +0.000 OA
ATOM     33  C   UNL     1      44.532   4.782  11.366  0.00  0.00    +0.000 A 
ATOM     34  H   UNL     1      42.859   3.076  13.613  0.00  0.00    +0.000 HD
ENDBRANCH  22  24
ENDBRANCH  19  20
ENDBRANCH   4  19
TORSDOF 8
ENDMDL
MODEL 6
REMARK VINA RESULT:    -6.583      4.892      6.620
REMARK INTER + INTRA:         -10.716
REMARK INTER:                  -9.921
REMARK INTRA:                  -0.794
REMARK UNBOUND:                -1.054
REMARK  Name = 
REMARK  10 active torsions:
REMARK  status: ('A' for Active; 'I' for Inactive)
REMARK    1  A    between atoms: C_1  and  C_2
REMARK    2  A    between atoms: C_2  and  C_3
REMARK    3  A    between atoms: C_2  and  N_10
REMARK    4  A    between atoms: C_3  and  C_4
REMARK    5  A    between atoms: N_10  and  C_11
REMARK    6  A    between atoms: C_11  and  C_12
REMARK    7  A    between atoms: C_15  and  C_16
REMARK    8  A    between atoms: C_16  and  N_17
REMARK    9  A    between atoms: N_17  and  C_18
REMARK   10  A    between atoms: C_19  and  C_21
REMARK                            x       y       z     vdW  Elec       q    Type
REMARK                         _______ _______ _______ _____ _____    ______ ____
ROOT
ATOM      1  C   UNL     1      45.874   4.607  13.011  0.00  0.00    +0.000 A 
ATOM      2  C   UNL     1      45.492   5.859  12.509  0.00  0.00    +0.000 A 
ATOM      3  C   UNL     1      46.203   7.009  12.842  0.00  0.00    +0.000 A 
ATOM      4  C   UNL     1      47.325   6.938  13.672  0.00  0.00    +0.000 A 
ATOM      5  C   UNL     1      47.680   5.700  14.225  0.00  0.00    +0.000 A 
ATOM      6  C   UNL     1      46.961   4.542  13.893  0.00  0.00    +0.000 A 
ENDROOT
BRANCH   1   7
ATOM      7  C   UNL     1      45.113   3.363  12.593  0.00  0.00    +0.000 C 
BRANCH   7   8
ATOM      8  N   UNL     1      45.347   3.091  11.177  0.00  0.00    +0.000 NA
ATOM      9  H   UNL     1      45.930   3.828  10.789  0.00  0.00    +0.000 HD
BRANCH   8  11
ATOM     10  C   UNL     1      43.873   4.377   9.837  0.00  0.00    +0.000 C 
ATOM     11  C   UNL     1      44.154   2.950  10.330  0.00  0.00    +0.000 C 
BRANCH  11  12
ATOM     12  C   UNL     1      44.385   1.962   9.171  0.00  0.00    +0.000 C 
BRANCH  12  13
ATOM     13  C   UNL     1      45.599   2.201   8.303  0.00  0.00    +0.000 A 
ATOM     14  C   UNL     1      46.498   1.156   8.047  0.00  0.00    +0.000 A 
ATOM     15  C   UNL     1      47.536   1.323   7.128  0.00  0.00    +0.000 A 
ATOM     16  C   UNL     1      47.695   2.540   6.470  0.00  0.00    +0.000 A 
ATOM     17  C   UNL     1      46.830   3.598   6.745  0.00  0.00    +0.000 A 
ATOM     18  C   UNL     1      45.785   3.429   7.655  0.00  0.00    +0.000 A 
ENDBRANCH  12  13
ENDBRANCH  11  12
ENDBRANCH   8  11
ENDBRANCH   7   8
ENDBRANCH   1   7
BRANCH   4  19
ATOM     19  C   UNL     1      48.179   8.170  13.895  0.00  0.00    +0.000 C 
BRANCH  19  20
ATOM     20  N   UNL     1      49.534   8.142  13.344  0.00  0.00    +0.000 N 
ATOM     21  C   UNL     1      50.651   7.910  14.246  0.00  0.00    +0.000 C 
ATOM     22  C   UNL     1      49.676   8.613  12.025  0.00  0.00    +0.000 C 
ATOM     23  O   UNL     1      48.696   8.964  11.364  0.00  0.00    +0.000 OA
BRANCH  22  24
ATOM     24  C   UNL     1      51.013   8.631  11.411  0.00  0.00    +0.000 A 
ATOM     25  C   UNL     1      51.545   7.593  10.664  0.00  0.00    +0.000 A 
ATOM     26  S   UNL     1      53.110   7.891  10.075  0.00  0.00    +0.000 S 
ATOM     27  C   UNL     1      53.072   9.486  10.655  0.00  0.00    +0.000 A 
ATOM     28  N   UNL     1      54.085  10.349  10.377  0.00  0.00    +0.000 NA
ATOM     29  C   UNL     1      53.900  11.539  10.831  0.00  0.00    +0.000 A 
ATOM     30  N   UNL     1      52.824  11.936  11.577  0.00  0.00    +0.000 N 
ATOM     31  C   UNL     1      51.830  11.067  11.995  0.00  0.00    +0.000 A 
ATOM     32  O   UNL     1      51.019  11.404  12.844  0.00  0.00    +0.000 OA
ATOM     33  C   UNL     1      51.930   9.750  11.391  0.00  0.00    +0.000 A 
ATOM     34  H   UNL     1      52.775  12.865  11.972  0.00  0.00    +0.000 HD
ENDBRANCH  22  24
ENDBRANCH  19  20
ENDBRANCH   4  19
TORSDOF 8
ENDMDL
MODEL 7
REMARK VINA RESULT:    -6.443      4.172      9.560
REMARK INTER + INTRA:         -10.511
REMARK INTER:                  -7.822
REMARK INTRA:                  -2.689
REMARK UNBOUND:                -1.054
REMARK  Name = 
REMARK  10 active torsions:
REMARK  status: ('A' for Active; 'I' for Inactive)
REMARK    1  A    between atoms: C_1  and  C_2
REMARK    2  A    between atoms: C_2  and  C_3
REMARK    3  A    between atoms: C_2  and  N_10
REMARK    4  A    between atoms: C_3  and  C_4
REMARK    5  A    between atoms: N_10  and  C_11
REMARK    6  A    between atoms: C_11  and  C_12
REMARK    7  A    between atoms: C_15  and  C_16
REMARK    8  A    between atoms: C_16  and  N_17
REMARK    9  A    between atoms: N_17  and  C_18
REMARK   10  A    between atoms: C_19  and  C_21
REMARK                            x       y       z     vdW  Elec       q    Type
REMARK                         _______ _______ _______ _____ _____    ______ ____
ROOT
ATOM      1  C   UNL     1      51.373   5.538  18.089  0.00  0.00    +0.000 A 
ATOM      2  C   UNL     1      50.173   5.338  17.392  0.00  0.00    +0.000 A 
ATOM      3  C   UNL     1      49.832   6.145  16.310  0.00  0.00    +0.000 A 
ATOM      4  C   UNL     1      50.688   7.164  15.884  0.00  0.00    +0.000 A 
ATOM      5  C   UNL     1      51.861   7.410  16.609  0.00  0.00    +0.000 A 
ATOM      6  C   UNL     1      52.202   6.600  17.703  0.00  0.00    +0.000 A 
ENDROOT
BRANCH   1   7
ATOM      7  C   UNL     1      51.745   4.614  19.232  0.00  0.00    +0.000 C 
BRANCH   7   8
ATOM      8  N   UNL     1      50.614   4.474  20.145  0.00  0.00    +0.000 NA
ATOM      9  H   UNL     1      49.812   4.966  19.759  0.00  0.00    +0.000 HD
BRANCH   8  11
ATOM     10  C   UNL     1      52.344   5.103  21.640  0.00  0.00    +0.000 C 
ATOM     11  C   UNL     1      50.822   4.938  21.524  0.00  0.00    +0.000 C 
BRANCH  11  12
ATOM     12  C   UNL     1      50.065   6.250  21.810  0.00  0.00    +0.000 C 
BRANCH  12  13
ATOM     13  C   UNL     1      49.326   6.877  20.650  0.00  0.00    +0.000 A 
ATOM     14  C   UNL     1      48.096   6.349  20.232  0.00  0.00    +0.000 A 
ATOM     15  C   UNL     1      47.334   7.009  19.266  0.00  0.00    +0.000 A 
ATOM     16  C   UNL     1      47.801   8.192  18.697  0.00  0.00    +0.000 A 
ATOM     17  C   UNL     1      49.039   8.705  19.079  0.00  0.00    +0.000 A 
ATOM     18  C   UNL     1      49.797   8.053  20.053  0.00  0.00    +0.000 A 
ENDBRANCH  12  13
ENDBRANCH  11  12
ENDBRANCH   8  11
ENDBRANCH   7   8
ENDBRANCH   1   7
BRANCH   4  19
ATOM     19  C   UNL     1      50.378   7.927  14.611  0.00  0.00    +0.000 C 
BRANCH  19  20
ATOM     20  N   UNL     1      48.970   8.040  14.235  0.00  0.00    +0.000 N 
ATOM     21  C   UNL     1      48.091   8.861  15.053  0.00  0.00    +0.000 C 
ATOM     22  C   UNL     1      48.513   7.129  13.264  0.00  0.00    +0.000 C 
ATOM     23  O   UNL     1      49.283   6.330  12.726  0.00  0.00    +0.000 OA
BRANCH  22  24
ATOM     24  C   UNL     1      47.102   7.172  12.849  0.00  0.00    +0.000 A 
ATOM     25  C   UNL     1      46.538   8.191  12.098  0.00  0.00    +0.000 A 
ATOM     26  S   UNL     1      44.886   7.976  11.764  0.00  0.00    +0.000 S 
ATOM     27  C   UNL     1      44.900   6.431  12.467  0.00  0.00    +0.000 A 
ATOM     28  N   UNL     1      43.800   5.633  12.409  0.00  0.00    +0.000 NA
ATOM     29  C   UNL     1      43.968   4.470  12.934  0.00  0.00    +0.000 A 
ATOM     30  N   UNL     1      45.113   4.044  13.551  0.00  0.00    +0.000 N 
ATOM     31  C   UNL     1      46.215   4.860  13.749  0.00  0.00    +0.000 A 
ATOM     32  O   UNL     1      47.116   4.523  14.500  0.00  0.00    +0.000 OA
ATOM     33  C   UNL     1      46.118   6.132  13.054  0.00  0.00    +0.000 A 
ATOM     34  H   UNL     1      45.156   3.147  14.013  0.00  0.00    +0.000 HD
ENDBRANCH  22  24
ENDBRANCH  19  20
ENDBRANCH   4  19
TORSDOF 8
ENDMDL
MODEL 8
REMARK VINA RESULT:    -6.320      5.172      6.516
REMARK INTER + INTRA:         -10.329
REMARK INTER:                  -9.366
REMARK INTRA:                  -0.963
REMARK UNBOUND:                -1.054
REMARK  Name = 
REMARK  10 active torsions:
REMARK  status: ('A' for Active; 'I' for Inactive)
REMARK    1  A    between atoms: C_1  and  C_2
REMARK    2  A    between atoms: C_2  and  C_3
REMARK    3  A    between atoms: C_2  and  N_10
REMARK    4  A    between atoms: C_3  and  C_4
REMARK    5  A    between atoms: N_10  and  C_11
REMARK    6  A    between atoms: C_11  and  C_12
REMARK    7  A    between atoms: C_15  and  C_16
REMARK    8  A    between atoms: C_16  and  N_17
REMARK    9  A    between atoms: N_17  and  C_18
REMARK   10  A    between atoms: C_19  and  C_21
REMARK                            x       y       z     vdW  Elec       q    Type
REMARK                         _______ _______ _______ _____ _____    ______ ____
ROOT
ATOM      1  C   UNL     1      46.544   5.770  13.162  0.00  0.00    +0.000 A 
ATOM      2  C   UNL     1      45.939   6.886  12.564  0.00  0.00    +0.000 A 
ATOM      3  C   UNL     1      46.456   8.164  12.751  0.00  0.00    +0.000 A 
ATOM      4  C   UNL     1      47.602   8.363  13.526  0.00  0.00    +0.000 A 
ATOM      5  C   UNL     1      48.180   7.264  14.175  0.00  0.00    +0.000 A 
ATOM      6  C   UNL     1      47.655   5.976  13.990  0.00  0.00    +0.000 A 
ENDROOT
BRANCH   1   7
ATOM      7  C   UNL     1      45.991   4.382  12.902  0.00  0.00    +0.000 C 
BRANCH   7   8
ATOM      8  N   UNL     1      45.381   4.332  11.576  0.00  0.00    +0.000 NA
ATOM      9  H   UNL     1      45.284   5.279  11.218  0.00  0.00    +0.000 HD
BRANCH   8  11
ATOM     10  C   UNL     1      43.065   4.821  11.438  0.00  0.00    +0.000 C 
ATOM     11  C   UNL     1      44.075   3.665  11.479  0.00  0.00    +0.000 C 
BRANCH  11  12
ATOM     12  C   UNL     1      43.981   2.759  10.236  0.00  0.00    +0.000 C 
BRANCH  12  13
ATOM     13  C   UNL     1      45.078   2.901   9.206  0.00  0.00    +0.000 A 
ATOM     14  C   UNL     1      45.758   1.767   8.740  0.00  0.00    +0.000 A 
ATOM     15  C   UNL     1      46.664   1.867   7.682  0.00  0.00    +0.000 A 
ATOM     16  C   UNL     1      46.910   3.104   7.091  0.00  0.00    +0.000 A 
ATOM     17  C   UNL     1      46.268   4.244   7.570  0.00  0.00    +0.000 A 
ATOM     18  C   UNL     1      45.354   4.144   8.620  0.00  0.00    +0.000 A 
ENDBRANCH  12  13
ENDBRANCH  11  12
ENDBRANCH   8  11
ENDBRANCH   7   8
ENDBRANCH   1   7
BRANCH   4  19
ATOM     19  C   UNL     1      48.243   9.736  13.588  0.00  0.00    +0.000 C 
BRANCH  19  20
ATOM     20  N   UNL     1      49.596   9.858  13.050  0.00  0.00    +0.000 N 
ATOM     21  C   UNL     1      50.719   9.867  13.974  0.00  0.00    +0.000 C 
ATOM     22  C   UNL     1      49.693  10.229  11.695  0.00  0.00    +0.000 C 
ATOM     23  O   UNL     1      48.685  10.377  11.001  0.00  0.00    +0.000 OA
BRANCH  22  24
ATOM     24  C   UNL     1      51.025  10.387  11.089  0.00  0.00    +0.000 A 
ATOM     25  C   UNL     1      51.638  11.608  10.857  0.00  0.00    +0.000 A 
ATOM     26  S   UNL     1      53.177  11.488  10.148  0.00  0.00    +0.000 S 
ATOM     27  C   UNL     1      53.153   9.796  10.277  0.00  0.00    +0.000 A 
ATOM     28  N   UNL     1      54.248   9.060   9.946  0.00  0.00    +0.000 NA
ATOM     29  C   UNL     1      54.110   7.796  10.144  0.00  0.00    +0.000 A 
ATOM     30  N   UNL     1      52.968   7.192  10.595  0.00  0.00    +0.000 N 
ATOM     31  C   UNL     1      51.788   7.879  10.824  0.00  0.00    +0.000 A 
ATOM     32  O   UNL     1      50.738   7.280  11.000  0.00  0.00    +0.000 OA
ATOM     33  C   UNL     1      51.940   9.322  10.745  0.00  0.00    +0.000 A 
ATOM     34  H   UNL     1      52.897   6.186  10.655  0.00  0.00    +0.000 HD
ENDBRANCH  22  24
ENDBRANCH  19  20
ENDBRANCH   4  19
TORSDOF 8
ENDMDL
MODEL 9
REMARK VINA RESULT:    -6.263      5.155      9.455
REMARK INTER + INTRA:         -10.246
REMARK INTER:                  -7.708
REMARK INTRA:                  -2.537
REMARK UNBOUND:                -1.054
REMARK  Name = 
REMARK  10 active torsions:
REMARK  status: ('A' for Active; 'I' for Inactive)
REMARK    1  A    between atoms: C_1  and  C_2
REMARK    2  A    between atoms: C_2  and  C_3
REMARK    3  A    between atoms: C_2  and  N_10
REMARK    4  A    between atoms: C_3  and  C_4
REMARK    5  A    between atoms: N_10  and  C_11
REMARK    6  A    between atoms: C_11  and  C_12
REMARK    7  A    between atoms: C_15  and  C_16
REMARK    8  A    between atoms: C_16  and  N_17
REMARK    9  A    between atoms: N_17  and  C_18
REMARK   10  A    between atoms: C_19  and  C_21
REMARK                            x       y       z     vdW  Elec       q    Type
REMARK                         _______ _______ _______ _____ _____    ______ ____
ROOT
ATOM      1  C   UNL     1      49.804   9.886  11.420  0.00  0.00    +0.000 A 
ATOM      2  C   UNL     1      48.804  10.814  11.745  0.00  0.00    +0.000 A 
ATOM      3  C   UNL     1      47.546  10.390  12.165  0.00  0.00    +0.000 A 
ATOM      4  C   UNL     1      47.258   9.029  12.289  0.00  0.00    +0.000 A 
ATOM      5  C   UNL     1      48.231   8.093  11.912  0.00  0.00    +0.000 A 
ATOM      6  C   UNL     1      49.497   8.521  11.483  0.00  0.00    +0.000 A 
ENDROOT
BRANCH   1   7
ATOM      7  C   UNL     1      51.181  10.374  11.013  0.00  0.00    +0.000 C 
BRANCH   7   8
ATOM      8  N   UNL     1      52.204   9.667  11.778  0.00  0.00    +0.000 NA
ATOM      9  H   UNL     1      51.762   8.930  12.323  0.00  0.00    +0.000 HD
BRANCH   8  11
ATOM     10  C   UNL     1      52.562  11.921  12.421  0.00  0.00    +0.000 C 
ATOM     11  C   UNL     1      53.027  10.481  12.684  0.00  0.00    +0.000 C 
BRANCH  11  12
ATOM     12  C   UNL     1      52.846  10.065  14.157  0.00  0.00    +0.000 C 
BRANCH  12  13
ATOM     13  C   UNL     1      51.514   9.456  14.534  0.00  0.00    +0.000 A 
ATOM     14  C   UNL     1      51.364   8.063  14.578  0.00  0.00    +0.000 A 
ATOM     15  C   UNL     1      50.189   7.492  15.070  0.00  0.00    +0.000 A 
ATOM     16  C   UNL     1      49.148   8.307  15.509  0.00  0.00    +0.000 A 
ATOM     17  C   UNL     1      49.273   9.694  15.435  0.00  0.00    +0.000 A 
ATOM     18  C   UNL     1      50.451  10.266  14.954  0.00  0.00    +0.000 A 
ENDBRANCH  12  13
ENDBRANCH  11  12
ENDBRANCH   8  11
ENDBRANCH   7   8
ENDBRANCH   1   7
BRANCH   4  19
ATOM     19  C   UNL     1      45.941   8.588  12.899  0.00  0.00    +0.000 C 
BRANCH  19  20
ATOM     20  N   UNL     1      45.271   7.450  12.272  0.00  0.00    +0.000 N 
ATOM     21  C   UNL     1      44.131   7.701  11.404  0.00  0.00    +0.000 C 
ATOM     22  C   UNL     1      45.612   6.178  12.771  0.00  0.00    +0.000 C 
ATOM     23  O   UNL     1      46.474   6.045  13.642  0.00  0.00    +0.000 OA
BRANCH  22  24
ATOM     24  C   UNL     1      44.964   4.987  12.199  0.00  0.00    +0.000 A 
ATOM     25  C   UNL     1      44.119   4.144  12.901  0.00  0.00    +0.000 A 
ATOM     26  S   UNL     1      43.512   2.848  11.985  0.00  0.00    +0.000 S 
ATOM     27  C   UNL     1      44.223   3.458  10.570  0.00  0.00    +0.000 A 
ATOM     28  N   UNL     1      43.989   2.869   9.367  0.00  0.00    +0.000 NA
ATOM     29  C   UNL     1      44.546   3.466   8.372  0.00  0.00    +0.000 A 
ATOM     30  N   UNL     1      45.353   4.568   8.470  0.00  0.00    +0.000 N 
ATOM     31  C   UNL     1      45.725   5.129   9.680  0.00  0.00    +0.000 A 
ATOM     32  O   UNL     1      46.622   5.956   9.738  0.00  0.00    +0.000 OA
ATOM     33  C   UNL     1      45.011   4.570  10.815  0.00  0.00    +0.000 A 
ATOM     34  H   UNL     1      45.825   4.944   7.660  0.00  0.00    +0.000 HD
ENDBRANCH  22  24
ENDBRANCH  19  20
ENDBRANCH   4  19
TORSDOF 8
ENDMDL
