MODEL 1
REMARK VINA RESULT:    -6.993      0.000      0.000
REMARK INTER + INTRA:         -12.614
REMARK INTER:                 -11.082
REMARK INTRA:                  -1.532
REMARK UNBOUND:                -1.532
REMARK  Name = 
REMARK  11 active torsions:
REMARK  status: ('A' for Active; 'I' for Inactive)
REMARK    1  A    between atoms: C_1  and  C_2
REMARK    2  A    between atoms: C_2  and  C_3
REMARK    3  A    between atoms: C_3  and  C_4
REMARK    4  A    between atoms: C_4  and  C_5
REMARK    5  A    between atoms: C_5  and  C_6
REMARK    6  A    between atoms: C_5  and  C_17
REMARK    7  A    between atoms: C_6  and  O_7
REMARK    8  A    between atoms: O_7  and  C_8
REMARK    9  A    between atoms: C_11  and  C_12
REMARK   10  A    between atoms: C_21  and  O_22
REMARK   11  A    between atoms: O_22  and  C_23
REMARK                            x       y       z     vdW  Elec       q    Type
REMARK                         _______ _______ _______ _____ _____    ______ ____
ROOT
ATOM      1  C   UNL     1      44.653   5.423  11.999  0.00  0.00    +0.000 C 
ENDROOT
BRANCH   1   2
ATOM      2  C   UNL     1      46.086   5.726  12.423  0.00  0.00    +0.000 A 
ATOM      3  C   UNL     1      46.891   6.544  11.620  0.00  0.00    +0.000 A 
ATOM      4  C   UNL     1      48.145   6.964  12.067  0.00  0.00    +0.000 A 
ATOM      5  C   UNL     1      48.621   6.562  13.318  0.00  0.00    +0.000 A 
ATOM      6  C   UNL     1      47.849   5.714  14.107  0.00  0.00    +0.000 A 
ATOM      7  C   UNL     1      46.590   5.302  13.662  0.00  0.00    +0.000 A 
BRANCH   6   8
ATOM      8  O   UNL     1      48.195   5.274  15.360  0.00  0.00    +0.000 OA
BRANCH   8   9
ATOM      9  C   UNL     1      47.332   4.331  16.036  0.00  0.00    +0.000 C 
ATOM     10  C   UNL     1      47.040   4.560  17.532  0.00  0.00    +0.000 C 
ATOM     11  N   UNL     1      47.479   3.192  17.846  0.00  0.00    +0.000 NA
ATOM     12  C   UNL     1      48.034   3.035  16.494  0.00  0.00    +0.000 C 
ATOM     13  H   UNL     1      46.720   2.547  18.061  0.00  0.00    +0.000 HD
ENDBRANCH   8   9
ENDBRANCH   6   8
ENDBRANCH   1   2
BRANCH   1  14
ATOM     14  C   UNL     1      44.138   6.421  10.933  0.00  0.00    +0.000 C 
BRANCH  14  15
ATOM     15  C   UNL     1      43.512   7.684  11.544  0.00  0.00    +0.000 C 
BRANCH  15  17
ATOM     16  C   UNL     1      45.025   9.605  12.115  0.00  0.00    +0.000 C 
ATOM     17  C   UNL     1      44.167   8.966  11.032  0.00  0.00    +0.000 C 
ENDBRANCH  15  17
ENDBRANCH  14  15
ENDBRANCH   1  14
BRANCH   1  18
ATOM     18  C   UNL     1      44.540   3.963  11.516  0.00  0.00    +0.000 C 
BRANCH  18  19
ATOM     19  O   UNL     1      43.917   3.899  10.225  0.00  0.00    +0.000 OA
BRANCH  19  20
ATOM     20  C   UNL     1      44.763   3.367   9.275  0.00  0.00    +0.000 A 
ATOM     21  C   UNL     1      45.337   4.244   8.373  0.00  0.00    +0.000 A 
ATOM     22  C   UNL     1      46.253   3.734   7.452  0.00  0.00    +0.000 A 
ATOM     23  C   UNL     1      46.563   2.369   7.460  0.00  0.00    +0.000 A 
ATOM     24  C   UNL     1      45.912   1.574   8.392  0.00  0.00    +0.000 A 
ATOM     25  N   UNL     1      45.024   2.041   9.296  0.00  0.00    +0.000 NA
BRANCH  23  26
ATOM     26  C   UNL     1      47.568   1.835   6.512  0.00  0.00    +0.000 C 
ATOM     27  N   UNL     1      48.725   2.524   6.307  0.00  0.00    +0.000 N 
ATOM     28  O   UNL     1      47.364   0.787   5.908  0.00  0.00    +0.000 OA
ATOM     29  H   UNL     1      48.990   3.399   6.734  0.00  0.00    +0.000 HD
ATOM     30  H   UNL     1      49.371   2.128   5.630  0.00  0.00    +0.000 HD
ENDBRANCH  23  26
ENDBRANCH  19  20
ENDBRANCH  18  19
ENDBRANCH   1  18
TORSDOF 10
ENDMDL
MODEL 2
REMARK VINA RESULT:    -6.916      2.101      3.725
REMARK INTER + INTRA:         -12.491
REMARK INTER:                 -11.346
REMARK INTRA:                  -1.145
REMARK UNBOUND:                -1.532
REMARK  Name = 
REMARK  11 active torsions:
REMARK  status: ('A' for Active; 'I' for Inactive)
REMARK    1  A    between atoms: C_1  and  C_2
REMARK    2  A    between atoms: C_2  and  C_3
REMARK    3  A    between atoms: C_3  and  C_4
REMARK    4  A    between atoms: C_4  and  C_5
REMARK    5  A    between atoms: C_5  and  C_6
REMARK    6  A    between atoms: C_5  and  C_17
REMARK    7  A    between atoms: C_6  and  O_7
REMARK    8  A    between atoms: O_7  and  C_8
REMARK    9  A    between atoms: C_11  and  C_12
REMARK   10  A    between atoms: C_21  and  O_22
REMARK   11  A    between atoms: O_22  and  C_23
REMARK                            x       y       z     vdW  Elec       q    Type
REMARK                         _______ _______ _______ _____ _____    ______ ____
ROOT
ATOM      1  C   UNL     1      45.519   5.176  11.604  0.00  0.00    +0.000 C 
ENDROOT
BRANCH   1   2
ATOM      2  C   UNL     1      46.003   6.597  11.876  0.00  0.00    +0.000 A 
ATOM      3  C   UNL     1      45.126   7.534  12.437  0.00  0.00    +0.000 A 
ATOM      4  C   UNL     1      45.592   8.787  12.842  0.00  0.00    +0.000 A 
ATOM      5  C   UNL     1      46.938   9.127  12.679  0.00  0.00    +0.000 A 
ATOM      6  C   UNL     1      47.809   8.221  12.082  0.00  0.00    +0.000 A 
ATOM      7  C   UNL     1      47.344   6.964  11.686  0.00  0.00    +0.000 A 
BRANCH   6   8
ATOM      8  O   UNL     1      49.152   8.429  11.892  0.00  0.00    +0.000 OA
BRANCH   8   9
ATOM      9  C   UNL     1      49.975   8.785  13.027  0.00  0.00    +0.000 C 
ATOM     10  C   UNL     1      51.503   8.630  12.891  0.00  0.00    +0.000 C 
ATOM     11  N   UNL     1      51.546   7.806  14.108  0.00  0.00    +0.000 NA
ATOM     12  C   UNL     1      50.081   7.690  14.109  0.00  0.00    +0.000 C 
ATOM     13  H   UNL     1      51.925   8.283  14.925  0.00  0.00    +0.000 HD
ENDBRANCH   8   9
ENDBRANCH   6   8
ENDBRANCH   1   2
BRANCH   1  14
ATOM     14  C   UNL     1      45.319   4.369  12.910  0.00  0.00    +0.000 C 
BRANCH  14  15
ATOM     15  C   UNL     1      46.639   3.873  13.519  0.00  0.00    +0.000 C 
BRANCH  15  17
ATOM     16  C   UNL     1      47.196   4.050  15.961  0.00  0.00    +0.000 C 
ATOM     17  C   UNL     1      47.150   4.789  14.631  0.00  0.00    +0.000 C 
ENDBRANCH  15  17
ENDBRANCH  14  15
ENDBRANCH   1  14
BRANCH   1  18
ATOM     18  C   UNL     1      44.237   5.206  10.749  0.00  0.00    +0.000 C 
BRANCH  18  19
ATOM     19  O   UNL     1      43.859   3.881  10.348  0.00  0.00    +0.000 OA
BRANCH  19  20
ATOM     20  C   UNL     1      44.711   3.374   9.390  0.00  0.00    +0.000 A 
ATOM     21  C   UNL     1      45.314   4.277   8.534  0.00  0.00    +0.000 A 
ATOM     22  C   UNL     1      46.236   3.790   7.607  0.00  0.00    +0.000 A 
ATOM     23  C   UNL     1      46.523   2.421   7.563  0.00  0.00    +0.000 A 
ATOM     24  C   UNL     1      45.844   1.599   8.451  0.00  0.00    +0.000 A 
ATOM     25  N   UNL     1      44.950   2.044   9.360  0.00  0.00    +0.000 NA
BRANCH  23  26
ATOM     26  C   UNL     1      47.533   1.908   6.608  0.00  0.00    +0.000 C 
ATOM     27  N   UNL     1      48.635   2.662   6.335  0.00  0.00    +0.000 N 
ATOM     28  O   UNL     1      47.384   0.822   6.061  0.00  0.00    +0.000 OA
ATOM     29  H   UNL     1      48.853   3.572   6.712  0.00  0.00    +0.000 HD
ATOM     30  H   UNL     1      49.286   2.277   5.657  0.00  0.00    +0.000 HD
ENDBRANCH  23  26
ENDBRANCH  19  20
ENDBRANCH  18  19
ENDBRANCH   1  18
TORSDOF 10
ENDMDL
MODEL 3
REMARK VINA RESULT:    -6.905      2.613      5.108
REMARK INTER + INTRA:         -12.473
REMARK INTER:                 -11.292
REMARK INTRA:                  -1.181
REMARK UNBOUND:                -1.532
REMARK  Name = 
REMARK  11 active torsions:
REMARK  status: ('A' for Active; 'I' for Inactive)
REMARK    1  A    between atoms: C_1  and  C_2
REMARK    2  A    between atoms: C_2  and  C_3
REMARK    3  A    between atoms: C_3  and  C_4
REMARK    4  A    between atoms: C_4  and  C_5
REMARK    5  A    between atoms: C_5  and  C_6
REMARK    6  A    between atoms: C_5  and  C_17
REMARK    7  A    between atoms: C_6  and  O_7
REMARK    8  A    between atoms: O_7  and  C_8
REMARK    9  A    between atoms: C_11  and  C_12
REMARK   10  A    between atoms: C_21  and  O_22
REMARK   11  A    between atoms: O_22  and  C_23
REMARK                            x       y       z     vdW  Elec       q    Type
REMARK                         _______ _______ _______ _____ _____    ______ ____
ROOT
ATOM      1  C   UNL     1      45.522   5.326  11.576  0.00  0.00    +0.000 C 
ENDROOT
BRANCH   1   2
ATOM      2  C   UNL     1      46.019   6.731  11.899  0.00  0.00    +0.000 A 
ATOM      3  C   UNL     1      47.394   6.997  11.910  0.00  0.00    +0.000 A 
ATOM      4  C   UNL     1      47.862   8.306  12.044  0.00  0.00    +0.000 A 
ATOM      5  C   UNL     1      46.964   9.367  12.183  0.00  0.00    +0.000 A 
ATOM      6  C   UNL     1      45.597   9.111  12.219  0.00  0.00    +0.000 A 
ATOM      7  C   UNL     1      45.129   7.802  12.075  0.00  0.00    +0.000 A 
BRANCH   6   8
ATOM      8  O   UNL     1      44.619  10.068  12.324  0.00  0.00    +0.000 OA
BRANCH   8   9
ATOM      9  C   UNL     1      44.508  11.075  11.291  0.00  0.00    +0.000 C 
ATOM     10  C   UNL     1      43.300  12.032  11.340  0.00  0.00    +0.000 C 
ATOM     11  N   UNL     1      42.947  11.688   9.955  0.00  0.00    +0.000 NA
ATOM     12  C   UNL     1      43.899  10.568   9.967  0.00  0.00    +0.000 C 
ATOM     13  H   UNL     1      43.168  12.413   9.273  0.00  0.00    +0.000 HD
ENDBRANCH   8   9
ENDBRANCH   6   8
ENDBRANCH   1   2
BRANCH   1  14
ATOM     14  C   UNL     1      45.218   4.508  12.855  0.00  0.00    +0.000 C 
BRANCH  14  15
ATOM     15  C   UNL     1      46.474   3.889  13.486  0.00  0.00    +0.000 C 
BRANCH  15  17
ATOM     16  C   UNL     1      47.458   3.679  15.787  0.00  0.00    +0.000 C 
ATOM     17  C   UNL     1      46.935   4.645  14.732  0.00  0.00    +0.000 C 
ENDBRANCH  15  17
ENDBRANCH  14  15
ENDBRANCH   1  14
BRANCH   1  18
ATOM     18  C   UNL     1      44.299   5.397  10.639  0.00  0.00    +0.000 C 
BRANCH  18  19
ATOM     19  O   UNL     1      43.936   4.089  10.173  0.00  0.00    +0.000 OA
BRANCH  19  20
ATOM     20  C   UNL     1      44.867   3.585   9.289  0.00  0.00    +0.000 A 
ATOM     21  C   UNL     1      45.124   2.227   9.343  0.00  0.00    +0.000 A 
ATOM     22  C   UNL     1      46.007   1.688   8.408  0.00  0.00    +0.000 A 
ATOM     23  C   UNL     1      46.605   2.519   7.453  0.00  0.00    +0.000 A 
ATOM     24  C   UNL     1      46.295   3.870   7.503  0.00  0.00    +0.000 A 
ATOM     25  N   UNL     1      45.443   4.418   8.394  0.00  0.00    +0.000 NA
BRANCH  23  26
ATOM     26  C   UNL     1      47.509   1.940   6.432  0.00  0.00    +0.000 C 
ATOM     27  N   UNL     1      48.716   2.528   6.199  0.00  0.00    +0.000 N 
ATOM     28  O   UNL     1      47.179   0.946   5.795  0.00  0.00    +0.000 OA
ATOM     29  H   UNL     1      49.083   3.353   6.650  0.00  0.00    +0.000 HD
ATOM     30  H   UNL     1      49.289   2.107   5.474  0.00  0.00    +0.000 HD
ENDBRANCH  23  26
ENDBRANCH  19  20
ENDBRANCH  18  19
ENDBRANCH   1  18
TORSDOF 10
ENDMDL
MODEL 4
REMARK VINA RESULT:    -6.684      1.334      2.124
REMARK INTER + INTRA:         -12.124
REMARK INTER:                 -11.013
REMARK INTRA:                  -1.110
REMARK UNBOUND:                -1.532
REMARK  Name = 
REMARK  11 active torsions:
REMARK  status: ('A' for Active; 'I' for Inactive)
REMARK    1  A    between atoms: C_1  and  C_2
REMARK    2  A    between atoms: C_2  and  C_3
REMARK    3  A    between atoms: C_3  and  C_4
REMARK    4  A    between atoms: C_4  and  C_5
REMARK    5  A    between atoms: C_5  and  C_6
REMARK    6  A    between atoms: C_5  and  C_17
REMARK    7  A    between atoms: C_6  and  O_7
REMARK    8  A    between atoms: O_7  and  C_8
REMARK    9  A    between atoms: C_11  and  C_12
REMARK   10  A    between atoms: C_21  and  O_22
REMARK   11  A    between atoms: O_22  and  C_23
REMARK                            x       y       z     vdW  Elec       q    Type
REMARK                         _______ _______ _______ _____ _____    ______ ____
ROOT
ATOM      1  C   UNL     1      45.351   5.534  12.085  0.00  0.00    +0.000 C 
ENDROOT
BRANCH   1   2
ATOM      2  C   UNL     1      46.508   6.081  12.915  0.00  0.00    +0.000 A 
ATOM      3  C   UNL     1      46.891   7.421  12.775  0.00  0.00    +0.000 A 
ATOM      4  C   UNL     1      47.836   7.982  13.636  0.00  0.00    +0.000 A 
ATOM      5  C   UNL     1      48.423   7.209  14.641  0.00  0.00    +0.000 A 
ATOM      6  C   UNL     1      48.084   5.865  14.762  0.00  0.00    +0.000 A 
ATOM      7  C   UNL     1      47.131   5.307  13.906  0.00  0.00    +0.000 A 
BRANCH   6   8
ATOM      8  O   UNL     1      48.571   5.013  15.722  0.00  0.00    +0.000 OA
BRANCH   8   9
ATOM      9  C   UNL     1      47.879   4.913  16.988  0.00  0.00    +0.000 C 
ATOM     10  C   UNL     1      48.719   4.651  18.254  0.00  0.00    +0.000 C 
ATOM     11  N   UNL     1      47.881   3.491  18.592  0.00  0.00    +0.000 NA
ATOM     12  C   UNL     1      47.249   3.532  17.266  0.00  0.00    +0.000 C 
ATOM     13  H   UNL     1      47.236   3.650  19.365  0.00  0.00    +0.000 HD
ENDBRANCH   8   9
ENDBRANCH   6   8
ENDBRANCH   1   2
BRANCH   1  14
ATOM     14  C   UNL     1      43.998   6.177  12.478  0.00  0.00    +0.000 C 
BRANCH  14  15
ATOM     15  C   UNL     1      42.872   5.148  12.659  0.00  0.00    +0.000 C 
BRANCH  15  17
ATOM     16  C   UNL     1      43.407   2.738  12.198  0.00  0.00    +0.000 C 
ATOM     17  C   UNL     1      43.373   3.833  13.255  0.00  0.00    +0.000 C 
ENDBRANCH  15  17
ENDBRANCH  14  15
ENDBRANCH   1  14
BRANCH   1  18
ATOM     18  C   UNL     1      45.649   5.702  10.582  0.00  0.00    +0.000 C 
BRANCH  18  19
ATOM     19  O   UNL     1      44.692   4.984   9.788  0.00  0.00    +0.000 OA
BRANCH  19  20
ATOM     20  C   UNL     1      45.301   4.055   8.972  0.00  0.00    +0.000 A 
ATOM     21  C   UNL     1      46.104   4.533   7.952  0.00  0.00    +0.000 A 
ATOM     22  C   UNL     1      46.786   3.608   7.163  0.00  0.00    +0.000 A 
ATOM     23  C   UNL     1      46.645   2.238   7.414  0.00  0.00    +0.000 A 
ATOM     24  C   UNL     1      45.796   1.865   8.447  0.00  0.00    +0.000 A 
ATOM     25  N   UNL     1      45.126   2.739   9.228  0.00  0.00    +0.000 NA
BRANCH  23  26
ATOM     26  C   UNL     1      47.403   1.256   6.605  0.00  0.00    +0.000 C 
ATOM     27  N   UNL     1      48.470   1.679   5.870  0.00  0.00    +0.000 N 
ATOM     28  O   UNL     1      47.076   0.075   6.586  0.00  0.00    +0.000 OA
ATOM     29  H   UNL     1      48.817   2.624   5.798  0.00  0.00    +0.000 HD
ATOM     30  H   UNL     1      48.942   0.972   5.314  0.00  0.00    +0.000 HD
ENDBRANCH  23  26
ENDBRANCH  19  20
ENDBRANCH  18  19
ENDBRANCH   1  18
TORSDOF 10
ENDMDL
MODEL 5
REMARK VINA RESULT:    -6.556      1.982      2.702
REMARK INTER + INTRA:         -11.921
REMARK INTER:                 -10.584
REMARK INTRA:                  -1.336
REMARK UNBOUND:                -1.532
REMARK  Name = 
REMARK  11 active torsions:
REMARK  status: ('A' for Active; 'I' for Inactive)
REMARK    1  A    between atoms: C_1  and  C_2
REMARK    2  A    between atoms: C_2  and  C_3
REMARK    3  A    between atoms: C_3  and  C_4
REMARK    4  A    between atoms: C_4  and  C_5
REMARK    5  A    between atoms: C_5  and  C_6
REMARK    6  A    between atoms: C_5  and  C_17
REMARK    7  A    between atoms: C_6  and  O_7
REMARK    8  A    between atoms: O_7  and  C_8
REMARK    9  A    between atoms: C_11  and  C_12
REMARK   10  A    between atoms: C_21  and  O_22
REMARK   11  A    between atoms: O_22  and  C_23
REMARK                            x       y       z     vdW  Elec       q    Type
REMARK                         _______ _______ _______ _____ _____    ______ ____
ROOT
ATOM      1  C   UNL     1      44.074   5.837  11.969  0.00  0.00    +0.000 C 
ENDROOT
BRANCH   1   2
ATOM      2  C   UNL     1      45.164   5.122  12.760  0.00  0.00    +0.000 A 
ATOM      3  C   UNL     1      45.296   3.731  12.661  0.00  0.00    +0.000 A 
ATOM      4  C   UNL     1      46.383   3.078  13.246  0.00  0.00    +0.000 A 
ATOM      5  C   UNL     1      47.347   3.803  13.952  0.00  0.00    +0.000 A 
ATOM      6  C   UNL     1      47.202   5.179  14.096  0.00  0.00    +0.000 A 
ATOM      7  C   UNL     1      46.120   5.833  13.501  0.00  0.00    +0.000 A 
BRANCH   6   8
ATOM      8  O   UNL     1      48.093   6.001  14.741  0.00  0.00    +0.000 OA
BRANCH   8   9
ATOM      9  C   UNL     1      48.614   7.157  14.045  0.00  0.00    +0.000 C 
ATOM     10  C   UNL     1      49.206   6.949  12.637  0.00  0.00    +0.000 C 
ATOM     11  N   UNL     1      50.457   7.604  13.047  0.00  0.00    +0.000 NA
ATOM     12  C   UNL     1      50.045   7.561  14.457  0.00  0.00    +0.000 C 
ATOM     13  H   UNL     1      50.578   8.546  12.678  0.00  0.00    +0.000 HD
ENDBRANCH   8   9
ENDBRANCH   6   8
ENDBRANCH   1   2
BRANCH   1  14
ATOM     14  C   UNL     1      44.638   7.011  11.131  0.00  0.00    +0.000 C 
BRANCH  14  15
ATOM     15  C   UNL     1      43.886   8.330  11.360  0.00  0.00    +0.000 C 
BRANCH  15  17
ATOM     16  C   UNL     1      44.094  10.828  11.218  0.00  0.00    +0.000 C 
ATOM     17  C   UNL     1      44.830   9.524  11.495  0.00  0.00    +0.000 C 
ENDBRANCH  15  17
ENDBRANCH  14  15
ENDBRANCH   1  14
BRANCH   1  18
ATOM     18  C   UNL     1      43.303   4.829  11.094  0.00  0.00    +0.000 C 
BRANCH  18  19
ATOM     19  O   UNL     1      43.567   5.055   9.701  0.00  0.00    +0.000 OA
BRANCH  19  20
ATOM     20  C   UNL     1      44.338   4.049   9.158  0.00  0.00    +0.000 A 
ATOM     21  C   UNL     1      45.372   4.424   8.318  0.00  0.00    +0.000 A 
ATOM     22  C   UNL     1      46.208   3.425   7.819  0.00  0.00    +0.000 A 
ATOM     23  C   UNL     1      45.985   2.088   8.170  0.00  0.00    +0.000 A 
ATOM     24  C   UNL     1      44.906   1.820   9.000  0.00  0.00    +0.000 A 
ATOM     25  N   UNL     1      44.083   2.767   9.500  0.00  0.00    +0.000 NA
BRANCH  23  26
ATOM     26  C   UNL     1      46.898   1.032   7.675  0.00  0.00    +0.000 C 
ATOM     27  N   UNL     1      47.979   1.384   6.923  0.00  0.00    +0.000 N 
ATOM     28  O   UNL     1      46.687  -0.148   7.929  0.00  0.00    +0.000 OA
ATOM     29  H   UNL     1      48.241   2.316   6.642  0.00  0.00    +0.000 HD
ATOM     30  H   UNL     1      48.561   0.621   6.589  0.00  0.00    +0.000 HD
ENDBRANCH  23  26
ENDBRANCH  19  20
ENDBRANCH  18  19
ENDBRANCH   1  18
TORSDOF 10
ENDMDL
MODEL 6
REMARK VINA RESULT:    -6.213      1.888      7.877
REMARK INTER + INTRA:         -11.377
REMARK INTER:                 -10.431
REMARK INTRA:                  -0.946
REMARK UNBOUND:                -1.532
REMARK  Name = 
REMARK  11 active torsions:
REMARK  status: ('A' for Active; 'I' for Inactive)
REMARK    1  A    between atoms: C_1  and  C_2
REMARK    2  A    between atoms: C_2  and  C_3
REMARK    3  A    between atoms: C_3  and  C_4
REMARK    4  A    between atoms: C_4  and  C_5
REMARK    5  A    between atoms: C_5  and  C_6
REMARK    6  A    between atoms: C_5  and  C_17
REMARK    7  A    between atoms: C_6  and  O_7
REMARK    8  A    between atoms: O_7  and  C_8
REMARK    9  A    between atoms: C_11  and  C_12
REMARK   10  A    between atoms: C_21  and  O_22
REMARK   11  A    between atoms: O_22  and  C_23
REMARK                            x       y       z     vdW  Elec       q    Type
REMARK                         _______ _______ _______ _____ _____    ______ ____
ROOT
ATOM      1  C   UNL     1      45.890   6.467  11.408  0.00  0.00    +0.000 C 
ENDROOT
BRANCH   1   2
ATOM      2  C   UNL     1      45.499   5.254  10.572  0.00  0.00    +0.000 A 
ATOM      3  C   UNL     1      44.566   4.336  11.071  0.00  0.00    +0.000 A 
ATOM      4  C   UNL     1      44.076   3.310  10.259  0.00  0.00    +0.000 A 
ATOM      5  C   UNL     1      44.522   3.177   8.942  0.00  0.00    +0.000 A 
ATOM      6  C   UNL     1      45.482   4.055   8.449  0.00  0.00    +0.000 A 
ATOM      7  C   UNL     1      45.964   5.088   9.258  0.00  0.00    +0.000 A 
BRANCH   6   8
ATOM      8  O   UNL     1      45.977   4.043   7.168  0.00  0.00    +0.000 OA
BRANCH   8   9
ATOM      9  C   UNL     1      46.387   2.785   6.586  0.00  0.00    +0.000 C 
ATOM     10  C   UNL     1      47.638   2.093   7.163  0.00  0.00    +0.000 C 
ATOM     11  N   UNL     1      48.237   2.015   5.823  0.00  0.00    +0.000 NA
ATOM     12  C   UNL     1      47.209   2.918   5.286  0.00  0.00    +0.000 C 
ATOM     13  H   UNL     1      48.226   1.083   5.412  0.00  0.00    +0.000 HD
ENDBRANCH   8   9
ENDBRANCH   6   8
ENDBRANCH   1   2
BRANCH   1  14
ATOM     14  C   UNL     1      44.863   7.619  11.276  0.00  0.00    +0.000 C 
BRANCH  14  15
ATOM     15  C   UNL     1      45.103   8.758  12.279  0.00  0.00    +0.000 C 
BRANCH  15  17
ATOM     16  C   UNL     1      45.793  10.992  11.365  0.00  0.00    +0.000 C 
ATOM     17  C   UNL     1      44.616  10.109  11.756  0.00  0.00    +0.000 C 
ENDBRANCH  15  17
ENDBRANCH  14  15
ENDBRANCH   1  14
BRANCH   1  18
ATOM     18  C   UNL     1      46.099   6.054  12.878  0.00  0.00    +0.000 C 
BRANCH  18  19
ATOM     19  O   UNL     1      47.497   6.006  13.202  0.00  0.00    +0.000 OA
BRANCH  19  20
ATOM     20  C   UNL     1      47.707   5.607  14.504  0.00  0.00    +0.000 A 
ATOM     21  C   UNL     1      47.004   4.502  14.951  0.00  0.00    +0.000 A 
ATOM     22  C   UNL     1      47.259   4.039  16.242  0.00  0.00    +0.000 A 
ATOM     23  C   UNL     1      48.202   4.693  17.044  0.00  0.00    +0.000 A 
ATOM     24  C   UNL     1      48.832   5.805  16.506  0.00  0.00    +0.000 A 
ATOM     25  N   UNL     1      48.608   6.273  15.260  0.00  0.00    +0.000 NA
BRANCH  23  26
ATOM     26  C   UNL     1      48.505   4.176  18.399  0.00  0.00    +0.000 C 
ATOM     27  N   UNL     1      48.674   5.055  19.426  0.00  0.00    +0.000 N 
ATOM     28  O   UNL     1      48.610   2.971  18.601  0.00  0.00    +0.000 OA
ATOM     29  H   UNL     1      48.625   6.061  19.374  0.00  0.00    +0.000 HD
ATOM     30  H   UNL     1      48.902   4.652  20.330  0.00  0.00    +0.000 HD
ENDBRANCH  23  26
ENDBRANCH  19  20
ENDBRANCH  18  19
ENDBRANCH   1  18
TORSDOF 10
ENDMDL
MODEL 7
REMARK VINA RESULT:    -5.967      2.787      4.649
REMARK INTER + INTRA:         -10.988
REMARK INTER:                  -9.420
REMARK INTRA:                  -1.569
REMARK UNBOUND:                -1.532
REMARK  Name = 
REMARK  11 active torsions:
REMARK  status: ('A' for Active; 'I' for Inactive)
REMARK    1  A    between atoms: C_1  and  C_2
REMARK    2  A    between atoms: C_2  and  C_3
REMARK    3  A    between atoms: C_3  and  C_4
REMARK    4  A    between atoms: C_4  and  C_5
REMARK    5  A    between atoms: C_5  and  C_6
REMARK    6  A    between atoms: C_5  and  C_17
REMARK    7  A    between atoms: C_6  and  O_7
REMARK    8  A    between atoms: O_7  and  C_8
REMARK    9  A    between atoms: C_11  and  C_12
REMARK   10  A    between atoms: C_21  and  O_22
REMARK   11  A    between atoms: O_22  and  C_23
REMARK                            x       y       z     vdW  Elec       q    Type
REMARK                         _______ _______ _______ _____ _____    ______ ____
ROOT
ATOM      1  C   UNL     1      48.033   8.761  13.296  0.00  0.00    +0.000 C 
ENDROOT
BRANCH   1   2
ATOM      2  C   UNL     1      48.949   8.237  14.397  0.00  0.00    +0.000 A 
ATOM      3  C   UNL     1      49.893   9.092  14.981  0.00  0.00    +0.000 A 
ATOM      4  C   UNL     1      50.627   8.681  16.096  0.00  0.00    +0.000 A 
ATOM      5  C   UNL     1      50.439   7.405  16.635  0.00  0.00    +0.000 A 
ATOM      6  C   UNL     1      49.537   6.532  16.036  0.00  0.00    +0.000 A 
ATOM      7  C   UNL     1      48.796   6.947  14.927  0.00  0.00    +0.000 A 
BRANCH   6   8
ATOM      8  O   UNL     1      49.248   5.268  16.487  0.00  0.00    +0.000 OA
BRANCH   8   9
ATOM      9  C   UNL     1      47.872   4.821  16.490  0.00  0.00    +0.000 C 
ATOM     10  C   UNL     1      47.163   4.665  17.850  0.00  0.00    +0.000 C 
ATOM     11  N   UNL     1      46.796   3.280  17.521  0.00  0.00    +0.000 NA
ATOM     12  C   UNL     1      47.695   3.294  16.358  0.00  0.00    +0.000 C 
ATOM     13  H   UNL     1      45.813   3.151  17.284  0.00  0.00    +0.000 HD
ENDBRANCH   8   9
ENDBRANCH   6   8
ENDBRANCH   1   2
BRANCH   1  14
ATOM     14  C   UNL     1      48.750   8.826  11.925  0.00  0.00    +0.000 C 
BRANCH  14  15
ATOM     15  C   UNL     1      49.769   7.694  11.724  0.00  0.00    +0.000 C 
BRANCH  15  17
ATOM     16  C   UNL     1      52.101   8.535  12.123  0.00  0.00    +0.000 C 
ATOM     17  C   UNL     1      51.061   8.181  11.069  0.00  0.00    +0.000 C 
ENDBRANCH  15  17
ENDBRANCH  14  15
ENDBRANCH   1  14
BRANCH   1  18
ATOM     18  C   UNL     1      46.746   7.915  13.228  0.00  0.00    +0.000 C 
BRANCH  18  19
ATOM     19  O   UNL     1      46.296   7.776  11.872  0.00  0.00    +0.000 OA
BRANCH  19  20
ATOM     20  C   UNL     1      45.774   6.523  11.633  0.00  0.00    +0.000 A 
ATOM     21  C   UNL     1      45.273   5.825  12.718  0.00  0.00    +0.000 A 
ATOM     22  C   UNL     1      44.674   4.588  12.484  0.00  0.00    +0.000 A 
ATOM     23  C   UNL     1      44.596   4.086  11.180  0.00  0.00    +0.000 A 
ATOM     24  C   UNL     1      45.150   4.856  10.168  0.00  0.00    +0.000 A 
ATOM     25  N   UNL     1      45.734   6.057  10.365  0.00  0.00    +0.000 NA
BRANCH  23  26
ATOM     26  C   UNL     1      43.921   2.792  10.926  0.00  0.00    +0.000 C 
ATOM     27  N   UNL     1      44.361   1.998   9.910  0.00  0.00    +0.000 N 
ATOM     28  O   UNL     1      42.971   2.435  11.613  0.00  0.00    +0.000 OA
ATOM     29  H   UNL     1      45.120   2.196   9.274  0.00  0.00    +0.000 HD
ATOM     30  H   UNL     1      43.851   1.132   9.762  0.00  0.00    +0.000 HD
ENDBRANCH  23  26
ENDBRANCH  19  20
ENDBRANCH  18  19
ENDBRANCH   1  18
TORSDOF 10
ENDMDL
MODEL 8
REMARK VINA RESULT:    -5.772      3.124      6.832
REMARK INTER + INTRA:         -10.678
REMARK INTER:                  -9.237
REMARK INTRA:                  -1.441
REMARK UNBOUND:                -1.532
REMARK  Name = 
REMARK  11 active torsions:
REMARK  status: ('A' for Active; 'I' for Inactive)
REMARK    1  A    between atoms: C_1  and  C_2
REMARK    2  A    between atoms: C_2  and  C_3
REMARK    3  A    between atoms: C_3  and  C_4
REMARK    4  A    between atoms: C_4  and  C_5
REMARK    5  A    between atoms: C_5  and  C_6
REMARK    6  A    between atoms: C_5  and  C_17
REMARK    7  A    between atoms: C_6  and  O_7
REMARK    8  A    between atoms: O_7  and  C_8
REMARK    9  A    between atoms: C_11  and  C_12
REMARK   10  A    between atoms: C_21  and  O_22
REMARK   11  A    between atoms: O_22  and  C_23
REMARK                            x       y       z     vdW  Elec       q    Type
REMARK                         _______ _______ _______ _____ _____    ______ ____
ROOT
ATOM      1  C   UNL     1      45.174   5.451  12.234  0.00  0.00    +0.000 C 
ENDROOT
BRANCH   1   2
ATOM      2  C   UNL     1      45.895   6.788  12.097  0.00  0.00    +0.000 A 
ATOM      3  C   UNL     1      45.162   7.981  12.136  0.00  0.00    +0.000 A 
ATOM      4  C   UNL     1      45.816   9.215  12.174  0.00  0.00    +0.000 A 
ATOM      5  C   UNL     1      47.212   9.275  12.160  0.00  0.00    +0.000 A 
ATOM      6  C   UNL     1      47.950   8.099  12.076  0.00  0.00    +0.000 A 
ATOM      7  C   UNL     1      47.295   6.865  12.048  0.00  0.00    +0.000 A 
BRANCH   6   8
ATOM      8  O   UNL     1      49.321   8.029  12.082  0.00  0.00    +0.000 OA
BRANCH   8   9
ATOM      9  C   UNL     1      50.047   8.548  13.220  0.00  0.00    +0.000 C 
ATOM     10  C   UNL     1      51.581   8.401  13.230  0.00  0.00    +0.000 C 
ATOM     11  N   UNL     1      51.529   7.750  14.547  0.00  0.00    +0.000 NA
ATOM     12  C   UNL     1      50.069   7.611  14.446  0.00  0.00    +0.000 C 
ATOM     13  H   UNL     1      51.838   8.339  15.319  0.00  0.00    +0.000 HD
ENDBRANCH   8   9
ENDBRANCH   6   8
ENDBRANCH   1   2
BRANCH   1  14
ATOM     14  C   UNL     1      45.550   4.468  11.098  0.00  0.00    +0.000 C 
BRANCH  14  15
ATOM     15  C   UNL     1      45.296   5.043   9.697  0.00  0.00    +0.000 C 
BRANCH  15  17
ATOM     16  C   UNL     1      45.700   3.539   7.727  0.00  0.00    +0.000 C 
ATOM     17  C   UNL     1      44.677   4.017   8.748  0.00  0.00    +0.000 C 
ENDBRANCH  15  17
ENDBRANCH  14  15
ENDBRANCH   1  14
BRANCH   1  18
ATOM     18  C   UNL     1      45.441   4.844  13.626  0.00  0.00    +0.000 C 
BRANCH  18  19
ATOM     19  O   UNL     1      46.519   3.898  13.573  0.00  0.00    +0.000 OA
BRANCH  19  20
ATOM     20  C   UNL     1      47.244   3.884  14.745  0.00  0.00    +0.000 A 
ATOM     21  C   UNL     1      47.385   5.083  15.420  0.00  0.00    +0.000 A 
ATOM     22  C   UNL     1      48.052   5.074  16.645  0.00  0.00    +0.000 A 
ATOM     23  C   UNL     1      48.559   3.873  17.154  0.00  0.00    +0.000 A 
ATOM     24  C   UNL     1      48.383   2.732  16.385  0.00  0.00    +0.000 A 
ATOM     25  N   UNL     1      47.739   2.711  15.199  0.00  0.00    +0.000 NA
BRANCH  23  26
ATOM     26  C   UNL     1      49.230   3.855  18.475  0.00  0.00    +0.000 C 
ATOM     27  N   UNL     1      48.506   3.540  19.586  0.00  0.00    +0.000 N 
ATOM     28  O   UNL     1      50.421   4.126  18.576  0.00  0.00    +0.000 OA
ATOM     29  H   UNL     1      47.523   3.317  19.623  0.00  0.00    +0.000 HD
ATOM     30  H   UNL     1      49.007   3.564  20.470  0.00  0.00    +0.000 HD
ENDBRANCH  23  26
ENDBRANCH  19  20
ENDBRANCH  18  19
ENDBRANCH   1  18
TORSDOF 10
ENDMDL
MODEL 9
REMARK VINA RESULT:    -5.768      4.161      7.531
REMARK INTER + INTRA:         -10.672
REMARK INTER:                  -9.304
REMARK INTRA:                  -1.368
REMARK UNBOUND:                -1.532
REMARK  Name = 
REMARK  11 active torsions:
REMARK  status: ('A' for Active; 'I' for Inactive)
REMARK    1  A    between atoms: C_1  and  C_2
REMARK    2  A    between atoms: C_2  and  C_3
REMARK    3  A    between atoms: C_3  and  C_4
REMARK    4  A    between atoms: C_4  and  C_5
REMARK    5  A    between atoms: C_5  and  C_6
REMARK    6  A    between atoms: C_5  and  C_17
REMARK    7  A    between atoms: C_6  and  O_7
REMARK    8  A    between atoms: O_7  and  C_8
REMARK    9  A    between atoms: C_11  and  C_12
REMARK   10  A    between atoms: C_21  and  O_22
REMARK   11  A    between atoms: O_22  and  C_23
REMARK                            x       y       z     vdW  Elec       q    Type
REMARK                         _______ _______ _______ _____ _____    ______ ____
ROOT
ATOM      1  C   UNL     1      45.879   5.256  13.235  0.00  0.00    +0.000 C 
ENDROOT
BRANCH   1   2
ATOM      2  C   UNL     1      46.350   6.624  12.753  0.00  0.00    +0.000 A 
ATOM      3  C   UNL     1      45.499   7.731  12.864  0.00  0.00    +0.000 A 
ATOM      4  C   UNL     1      45.966   9.016  12.579  0.00  0.00    +0.000 A 
ATOM      5  C   UNL     1      47.286   9.213  12.166  0.00  0.00    +0.000 A 
ATOM      6  C   UNL     1      48.128   8.117  12.009  0.00  0.00    +0.000 A 
ATOM      7  C   UNL     1      47.663   6.832  12.304  0.00  0.00    +0.000 A 
BRANCH   6   8
ATOM      8  O   UNL     1      49.448   8.184  11.637  0.00  0.00    +0.000 OA
BRANCH   8   9
ATOM      9  C   UNL     1      50.392   8.841  12.513  0.00  0.00    +0.000 C 
ATOM     10  C   UNL     1      51.894   8.577  12.288  0.00  0.00    +0.000 C 
ATOM     11  N   UNL     1      52.054   8.179  13.695  0.00  0.00    +0.000 NA
ATOM     12  C   UNL     1      50.596   8.141  13.874  0.00  0.00    +0.000 C 
ATOM     13  H   UNL     1      52.526   8.872  14.275  0.00  0.00    +0.000 HD
ENDBRANCH   8   9
ENDBRANCH   6   8
ENDBRANCH   1   2
BRANCH   1  14
ATOM     14  C   UNL     1      45.234   4.429  12.097  0.00  0.00    +0.000 C 
BRANCH  14  15
ATOM     15  C   UNL     1      43.875   3.827  12.486  0.00  0.00    +0.000 C 
BRANCH  15  17
ATOM     16  C   UNL     1      42.385   5.707  11.747  0.00  0.00    +0.000 C 
ATOM     17  C   UNL     1      42.873   4.889  12.935  0.00  0.00    +0.000 C 
ENDBRANCH  15  17
ENDBRANCH  14  15
ENDBRANCH   1  14
BRANCH   1  18
ATOM     18  C   UNL     1      47.044   4.498  13.903  0.00  0.00    +0.000 C 
BRANCH  18  19
ATOM     19  O   UNL     1      46.602   3.826  15.091  0.00  0.00    +0.000 OA
BRANCH  19  20
ATOM     20  C   UNL     1      47.449   4.058  16.155  0.00  0.00    +0.000 A 
ATOM     21  C   UNL     1      47.345   3.214  17.246  0.00  0.00    +0.000 A 
ATOM     22  C   UNL     1      48.243   3.388  18.299  0.00  0.00    +0.000 A 
ATOM     23  C   UNL     1      49.211   4.397  18.230  0.00  0.00    +0.000 A 
ATOM     24  C   UNL     1      49.212   5.202  17.101  0.00  0.00    +0.000 A 
ATOM     25  N   UNL     1      48.357   5.055  16.066  0.00  0.00    +0.000 NA
BRANCH  23  26
ATOM     26  C   UNL     1      50.193   4.555  19.329  0.00  0.00    +0.000 C 
ATOM     27  N   UNL     1      51.445   4.038  19.184  0.00  0.00    +0.000 N 
ATOM     28  O   UNL     1      49.887   5.137  20.364  0.00  0.00    +0.000 OA
ATOM     29  H   UNL     1      51.800   3.530  18.387  0.00  0.00    +0.000 HD
ATOM     30  H   UNL     1      52.073   4.152  19.974  0.00  0.00    +0.000 HD
ENDBRANCH  23  26
ENDBRANCH  19  20
ENDBRANCH  18  19
ENDBRANCH   1  18
TORSDOF 10
ENDMDL
