MODEL 1
REMARK VINA RESULT:    -7.619      0.000      0.000
REMARK INTER + INTRA:         -10.303
REMARK INTER:                  -9.846
REMARK INTRA:                  -0.456
REMARK UNBOUND:                -0.456
REMARK  Name = 
REMARK  6 active torsions:
REMARK  status: ('A' for Active; 'I' for Inactive)
REMARK    1  A    between atoms: C_1  and  N_2
REMARK    2  A    between atoms: N_2  and  C_3
REMARK    3  A    between atoms: N_2  and  C_16
REMARK    4  A    between atoms: C_3  and  C_4
REMARK    5  A    between atoms: C_8  and  N_9
REMARK    6  A    between atoms: C_20  and  C_21
REMARK                            x       y       z     vdW  Elec       q    Type
REMARK                         _______ _______ _______ _____ _____    ______ ____
ROOT
ATOM      1  C   UNL     1      45.022   3.175  12.082  0.00  0.00    +0.000 C 
ENDROOT
BRANCH   1   2
ATOM      2  C   UNL     1      45.904   4.181  12.776  0.00  0.00    +0.000 A 
ATOM      3  C   UNL     1      46.044   5.472  12.254  0.00  0.00    +0.000 A 
ATOM      4  C   UNL     1      46.845   6.397  12.909  0.00  0.00    +0.000 A 
ATOM      5  C   UNL     1      47.477   6.044  14.104  0.00  0.00    +0.000 A 
ATOM      6  C   UNL     1      47.331   4.773  14.680  0.00  0.00    +0.000 A 
ATOM      7  C   UNL     1      46.563   3.841  13.972  0.00  0.00    +0.000 A 
BRANCH   6   8
ATOM      8  N   UNL     1      47.885   4.465  15.902  0.00  0.00    +0.000 N 
ATOM      9  C   UNL     1      47.999   3.077  16.366  0.00  0.00    +0.000 C 
ATOM     10  C   UNL     1      47.277   2.910  17.716  0.00  0.00    +0.000 C 
ATOM     11  N   UNL     1      47.752   3.859  18.748  0.00  0.00    +0.000 NA
ATOM     12  C   UNL     1      47.597   5.239  18.230  0.00  0.00    +0.000 C 
ATOM     13  C   UNL     1      48.299   5.489  16.869  0.00  0.00    +0.000 C 
ATOM     14  H   UNL     1      48.749   3.691  18.888  0.00  0.00    +0.000 HD
ENDBRANCH   6   8
ENDBRANCH   1   2
BRANCH   1  16
ATOM     15  C   UNL     1      43.170   4.419  10.837  0.00  0.00    +0.000 C 
ATOM     16  N   UNL     1      44.399   3.626  10.829  0.00  0.00    +0.000 N 
BRANCH  16  17
ATOM     17  C   UNL     1      45.134   3.518   9.642  0.00  0.00    +0.000 A 
ATOM     18  C   UNL     1      45.530   4.651   8.904  0.00  0.00    +0.000 A 
ATOM     19  C   UNL     1      46.258   4.551   7.715  0.00  0.00    +0.000 A 
ATOM     20  C   UNL     1      46.635   3.304   7.234  0.00  0.00    +0.000 A 
ATOM     21  C   UNL     1      46.286   2.157   7.948  0.00  0.00    +0.000 A 
ATOM     22  C   UNL     1      45.517   2.269   9.117  0.00  0.00    +0.000 A 
BRANCH  21  23
ATOM     23  C   UNL     1      46.757   0.843   7.437  0.00  0.00    +0.000 C 
ATOM     24  N   UNL     1      47.300   0.811   6.182  0.00  0.00    +0.000 N 
ATOM     25  O   UNL     1      46.618  -0.184   8.085  0.00  0.00    +0.000 OA
ATOM     26  H   UNL     1      47.234   1.580   5.534  0.00  0.00    +0.000 HD
ATOM     27  H   UNL     1      47.479  -0.110   5.803  0.00  0.00    +0.000 HD
ENDBRANCH  21  23
ENDBRANCH  16  17
ENDBRANCH   1  16
TORSDOF 5
ENDMDL
MODEL 2
REMARK VINA RESULT:    -7.357      2.479      7.672
REMARK INTER + INTRA:          -9.964
REMARK INTER:                  -9.179
REMARK INTRA:                  -0.786
REMARK UNBOUND:                -0.456
REMARK  Name = 
REMARK  6 active torsions:
REMARK  status: ('A' for Active; 'I' for Inactive)
REMARK    1  A    between atoms: C_1  and  N_2
REMARK    2  A    between atoms: N_2  and  C_3
REMARK    3  A    between atoms: N_2  and  C_16
REMARK    4  A    between atoms: C_3  and  C_4
REMARK    5  A    between atoms: C_8  and  N_9
REMARK    6  A    between atoms: C_20  and  C_21
REMARK                            x       y       z     vdW  Elec       q    Type
REMARK                         _______ _______ _______ _____ _____    ______ ____
ROOT
ATOM      1  C   UNL     1      45.606   6.591  12.792  0.00  0.00    +0.000 C 
ENDROOT
BRANCH   1   2
ATOM      2  C   UNL     1      44.964   5.313  12.318  0.00  0.00    +0.000 A 
ATOM      3  C   UNL     1      44.042   4.646  13.132  0.00  0.00    +0.000 A 
ATOM      4  C   UNL     1      43.442   3.479  12.680  0.00  0.00    +0.000 A 
ATOM      5  C   UNL     1      43.736   2.997  11.402  0.00  0.00    +0.000 A 
ATOM      6  C   UNL     1      44.626   3.658  10.541  0.00  0.00    +0.000 A 
ATOM      7  C   UNL     1      45.259   4.802  11.041  0.00  0.00    +0.000 A 
BRANCH   6   8
ATOM      8  N   UNL     1      44.841   3.225   9.252  0.00  0.00    +0.000 N 
ATOM      9  C   UNL     1      44.793   1.801   8.901  0.00  0.00    +0.000 C 
ATOM     10  C   UNL     1      46.125   1.370   8.257  0.00  0.00    +0.000 C 
ATOM     11  N   UNL     1      46.496   2.197   7.086  0.00  0.00    +0.000 NA
ATOM     12  C   UNL     1      46.543   3.618   7.505  0.00  0.00    +0.000 C 
ATOM     13  C   UNL     1      45.236   4.130   8.165  0.00  0.00    +0.000 C 
ATOM     14  H   UNL     1      45.752   2.104   6.393  0.00  0.00    +0.000 HD
ENDBRANCH   6   8
ENDBRANCH   1   2
BRANCH   1  16
ATOM     15  C   UNL     1      47.905   7.140  11.822  0.00  0.00    +0.000 C 
ATOM     16  N   UNL     1      47.074   6.576  12.884  0.00  0.00    +0.000 N 
BRANCH  16  17
ATOM     17  C   UNL     1      47.661   6.258  14.115  0.00  0.00    +0.000 A 
ATOM     18  C   UNL     1      48.560   7.129  14.759  0.00  0.00    +0.000 A 
ATOM     19  C   UNL     1      49.156   6.816  15.985  0.00  0.00    +0.000 A 
ATOM     20  C   UNL     1      48.851   5.620  16.620  0.00  0.00    +0.000 A 
ATOM     21  C   UNL     1      47.944   4.740  16.029  0.00  0.00    +0.000 A 
ATOM     22  C   UNL     1      47.387   5.046  14.778  0.00  0.00    +0.000 A 
BRANCH  21  23
ATOM     23  C   UNL     1      47.593   3.497  16.765  0.00  0.00    +0.000 C 
ATOM     24  N   UNL     1      48.604   2.615  17.035  0.00  0.00    +0.000 N 
ATOM     25  O   UNL     1      46.439   3.237  17.071  0.00  0.00    +0.000 OA
ATOM     26  H   UNL     1      49.518   2.681  16.614  0.00  0.00    +0.000 HD
ATOM     27  H   UNL     1      48.319   1.718  17.405  0.00  0.00    +0.000 HD
ENDBRANCH  21  23
ENDBRANCH  16  17
ENDBRANCH   1  16
TORSDOF 5
ENDMDL
MODEL 3
REMARK VINA RESULT:    -7.141      2.202      3.787
REMARK INTER + INTRA:          -9.685
REMARK INTER:                  -8.874
REMARK INTRA:                  -0.811
REMARK UNBOUND:                -0.456
REMARK  Name = 
REMARK  6 active torsions:
REMARK  status: ('A' for Active; 'I' for Inactive)
REMARK    1  A    between atoms: C_1  and  N_2
REMARK    2  A    between atoms: N_2  and  C_3
REMARK    3  A    between atoms: N_2  and  C_16
REMARK    4  A    between atoms: C_3  and  C_4
REMARK    5  A    between atoms: C_8  and  N_9
REMARK    6  A    between atoms: C_20  and  C_21
REMARK                            x       y       z     vdW  Elec       q    Type
REMARK                         _______ _______ _______ _____ _____    ______ ____
ROOT
ATOM      1  C   UNL     1      47.695   6.930  12.409  0.00  0.00    +0.000 C 
ENDROOT
BRANCH   1   2
ATOM      2  C   UNL     1      48.484   6.851  13.691  0.00  0.00    +0.000 A 
ATOM      3  C   UNL     1      49.659   7.594  13.841  0.00  0.00    +0.000 A 
ATOM      4  C   UNL     1      50.369   7.529  15.032  0.00  0.00    +0.000 A 
ATOM      5  C   UNL     1      49.887   6.749  16.085  0.00  0.00    +0.000 A 
ATOM      6  C   UNL     1      48.692   6.019  15.989  0.00  0.00    +0.000 A 
ATOM      7  C   UNL     1      48.024   6.058  14.760  0.00  0.00    +0.000 A 
BRANCH   6   8
ATOM      8  N   UNL     1      48.179   5.326  17.061  0.00  0.00    +0.000 N 
ATOM      9  C   UNL     1      48.630   5.588  18.433  0.00  0.00    +0.000 C 
ATOM     10  C   UNL     1      49.171   4.293  19.069  0.00  0.00    +0.000 C 
ATOM     11  N   UNL     1      48.196   3.179  19.030  0.00  0.00    +0.000 NA
ATOM     12  C   UNL     1      47.792   2.951  17.623  0.00  0.00    +0.000 C 
ATOM     13  C   UNL     1      47.234   4.212  16.911  0.00  0.00    +0.000 C 
ATOM     14  H   UNL     1      47.368   3.475  19.547  0.00  0.00    +0.000 HD
ENDBRANCH   6   8
ENDBRANCH   1   2
BRANCH   1  16
ATOM     15  C   UNL     1      45.720   8.446  12.979  0.00  0.00    +0.000 C 
ATOM     16  N   UNL     1      46.249   7.149  12.559  0.00  0.00    +0.000 N 
BRANCH  16  17
ATOM     17  C   UNL     1      45.371   6.189  12.040  0.00  0.00    +0.000 A 
ATOM     18  C   UNL     1      44.226   5.769  12.742  0.00  0.00    +0.000 A 
ATOM     19  C   UNL     1      43.349   4.805  12.233  0.00  0.00    +0.000 A 
ATOM     20  C   UNL     1      43.583   4.244  10.986  0.00  0.00    +0.000 A 
ATOM     21  C   UNL     1      44.693   4.651  10.244  0.00  0.00    +0.000 A 
ATOM     22  C   UNL     1      45.588   5.587  10.786  0.00  0.00    +0.000 A 
BRANCH  21  23
ATOM     23  C   UNL     1      44.880   4.075   8.887  0.00  0.00    +0.000 C 
ATOM     24  N   UNL     1      44.306   2.859   8.632  0.00  0.00    +0.000 N 
ATOM     25  O   UNL     1      45.565   4.632   8.043  0.00  0.00    +0.000 OA
ATOM     26  H   UNL     1      43.926   2.268   9.355  0.00  0.00    +0.000 HD
ATOM     27  H   UNL     1      44.567   2.424   7.758  0.00  0.00    +0.000 HD
ENDBRANCH  21  23
ENDBRANCH  16  17
ENDBRANCH   1  16
TORSDOF 5
ENDMDL
MODEL 4
REMARK VINA RESULT:    -6.922      3.217      7.851
REMARK INTER + INTRA:          -9.402
REMARK INTER:                  -8.716
REMARK INTRA:                  -0.686
REMARK UNBOUND:                -0.456
REMARK  Name = 
REMARK  6 active torsions:
REMARK  status: ('A' for Active; 'I' for Inactive)
REMARK    1  A    between atoms: C_1  and  N_2
REMARK    2  A    between atoms: N_2  and  C_3
REMARK    3  A    between atoms: N_2  and  C_16
REMARK    4  A    between atoms: C_3  and  C_4
REMARK    5  A    between atoms: C_8  and  N_9
REMARK    6  A    between atoms: C_20  and  C_21
REMARK                            x       y       z     vdW  Elec       q    Type
REMARK                         _______ _______ _______ _____ _____    ______ ____
ROOT
ATOM      1  C   UNL     1      49.049   6.992  14.765  0.00  0.00    +0.000 C 
ENDROOT
BRANCH   1   2
ATOM      2  C   UNL     1      47.795   7.124  13.939  0.00  0.00    +0.000 A 
ATOM      3  C   UNL     1      47.236   8.385  13.706  0.00  0.00    +0.000 A 
ATOM      4  C   UNL     1      46.092   8.499  12.929  0.00  0.00    +0.000 A 
ATOM      5  C   UNL     1      45.526   7.357  12.356  0.00  0.00    +0.000 A 
ATOM      6  C   UNL     1      46.078   6.079  12.534  0.00  0.00    +0.000 A 
ATOM      7  C   UNL     1      47.200   5.985  13.366  0.00  0.00    +0.000 A 
BRANCH   6   8
ATOM      8  N   UNL     1      45.566   4.975  11.893  0.00  0.00    +0.000 N 
ATOM      9  C   UNL     1      45.107   5.037  10.500  0.00  0.00    +0.000 C 
ATOM     10  C   UNL     1      43.634   4.595  10.408  0.00  0.00    +0.000 C 
ATOM     11  N   UNL     1      43.395   3.255  10.989  0.00  0.00    +0.000 NA
ATOM     12  C   UNL     1      43.861   3.258  12.395  0.00  0.00    +0.000 C 
ATOM     13  C   UNL     1      45.340   3.693  12.573  0.00  0.00    +0.000 C 
ATOM     14  H   UNL     1      43.969   2.587  10.474  0.00  0.00    +0.000 HD
ENDBRANCH   6   8
ENDBRANCH   1   2
BRANCH   1  16
ATOM     15  C   UNL     1      48.550   8.499  16.767  0.00  0.00    +0.000 C 
ATOM     16  N   UNL     1      48.885   7.187  16.213  0.00  0.00    +0.000 N 
BRANCH  16  17
ATOM     17  C   UNL     1      48.790   6.055  17.032  0.00  0.00    +0.000 A 
ATOM     18  C   UNL     1      48.106   6.080  18.263  0.00  0.00    +0.000 A 
ATOM     19  C   UNL     1      48.013   4.956  19.089  0.00  0.00    +0.000 A 
ATOM     20  C   UNL     1      48.589   3.756  18.696  0.00  0.00    +0.000 A 
ATOM     21  C   UNL     1      49.254   3.680  17.471  0.00  0.00    +0.000 A 
ATOM     22  C   UNL     1      49.378   4.827  16.672  0.00  0.00    +0.000 A 
BRANCH  21  23
ATOM     23  C   UNL     1      49.806   2.365  17.053  0.00  0.00    +0.000 C 
ATOM     24  N   UNL     1      50.811   1.831  17.812  0.00  0.00    +0.000 N 
ATOM     25  O   UNL     1      49.421   1.801  16.040  0.00  0.00    +0.000 OA
ATOM     26  H   UNL     1      51.306   2.356  18.517  0.00  0.00    +0.000 HD
ATOM     27  H   UNL     1      51.266   1.013  17.429  0.00  0.00    +0.000 HD
ENDBRANCH  21  23
ENDBRANCH  16  17
ENDBRANCH   1  16
TORSDOF 5
ENDMDL
MODEL 5
REMARK VINA RESULT:    -6.920      3.339      7.864
REMARK INTER + INTRA:          -9.398
REMARK INTER:                  -8.533
REMARK INTRA:                  -0.865
REMARK UNBOUND:                -0.456
REMARK  Name = 
REMARK  6 active torsions:
REMARK  status: ('A' for Active; 'I' for Inactive)
REMARK    1  A    between atoms: C_1  and  N_2
REMARK    2  A    between atoms: N_2  and  C_3
REMARK    3  A    between atoms: N_2  and  C_16
REMARK    4  A    between atoms: C_3  and  C_4
REMARK    5  A    between atoms: C_8  and  N_9
REMARK    6  A    between atoms: C_20  and  C_21
REMARK                            x       y       z     vdW  Elec       q    Type
REMARK                         _______ _______ _______ _____ _____    ______ ____
ROOT
ATOM      1  C   UNL     1      49.099   7.350  14.015  0.00  0.00    +0.000 C 
ENDROOT
BRANCH   1   2
ATOM      2  C   UNL     1      47.722   7.422  13.407  0.00  0.00    +0.000 A 
ATOM      3  C   UNL     1      47.287   8.598  12.788  0.00  0.00    +0.000 A 
ATOM      4  C   UNL     1      46.024   8.649  12.214  0.00  0.00    +0.000 A 
ATOM      5  C   UNL     1      45.210   7.515  12.228  0.00  0.00    +0.000 A 
ATOM      6  C   UNL     1      45.624   6.304  12.804  0.00  0.00    +0.000 A 
ATOM      7  C   UNL     1      46.879   6.295  13.423  0.00  0.00    +0.000 A 
BRANCH   6   8
ATOM      8  N   UNL     1      44.852   5.167  12.733  0.00  0.00    +0.000 N 
ATOM      9  C   UNL     1      45.441   3.854  12.445  0.00  0.00    +0.000 C 
ATOM     10  C   UNL     1      44.777   3.238  11.199  0.00  0.00    +0.000 C 
ATOM     11  N   UNL     1      43.304   3.149  11.313  0.00  0.00    +0.000 NA
ATOM     12  C   UNL     1      42.767   4.503  11.587  0.00  0.00    +0.000 C 
ATOM     13  C   UNL     1      43.387   5.193  12.830  0.00  0.00    +0.000 C 
ATOM     14  H   UNL     1      43.091   2.563  12.120  0.00  0.00    +0.000 HD
ENDBRANCH   6   8
ENDBRANCH   1   2
BRANCH   1  16
ATOM     15  C   UNL     1      48.613   8.690  16.136  0.00  0.00    +0.000 C 
ATOM     16  N   UNL     1      49.162   7.506  15.476  0.00  0.00    +0.000 N 
BRANCH  16  17
ATOM     17  C   UNL     1      49.512   6.392  16.251  0.00  0.00    +0.000 A 
ATOM     18  C   UNL     1      50.843   6.137  16.633  0.00  0.00    +0.000 A 
ATOM     19  C   UNL     1      51.200   5.024  17.399  0.00  0.00    +0.000 A 
ATOM     20  C   UNL     1      50.225   4.136  17.830  0.00  0.00    +0.000 A 
ATOM     21  C   UNL     1      48.889   4.365  17.497  0.00  0.00    +0.000 A 
ATOM     22  C   UNL     1      48.550   5.462  16.689  0.00  0.00    +0.000 A 
BRANCH  21  23
ATOM     23  C   UNL     1      47.864   3.428  18.025  0.00  0.00    +0.000 C 
ATOM     24  N   UNL     1      48.114   2.831  19.230  0.00  0.00    +0.000 N 
ATOM     25  O   UNL     1      46.858   3.152  17.388  0.00  0.00    +0.000 OA
ATOM     26  H   UNL     1      49.016   2.856  19.680  0.00  0.00    +0.000 HD
ATOM     27  H   UNL     1      47.476   2.093  19.497  0.00  0.00    +0.000 HD
ENDBRANCH  21  23
ENDBRANCH  16  17
ENDBRANCH   1  16
TORSDOF 5
ENDMDL
MODEL 6
REMARK VINA RESULT:    -6.646      3.788      5.514
REMARK INTER + INTRA:          -9.045
REMARK INTER:                  -8.015
REMARK INTRA:                  -1.030
REMARK UNBOUND:                -0.456
REMARK  Name = 
REMARK  6 active torsions:
REMARK  status: ('A' for Active; 'I' for Inactive)
REMARK    1  A    between atoms: C_1  and  N_2
REMARK    2  A    between atoms: N_2  and  C_3
REMARK    3  A    between atoms: N_2  and  C_16
REMARK    4  A    between atoms: C_3  and  C_4
REMARK    5  A    between atoms: C_8  and  N_9
REMARK    6  A    between atoms: C_20  and  C_21
REMARK                            x       y       z     vdW  Elec       q    Type
REMARK                         _______ _______ _______ _____ _____    ______ ____
ROOT
ATOM      1  C   UNL     1      49.657   7.774  14.537  0.00  0.00    +0.000 C 
ENDROOT
BRANCH   1   2
ATOM      2  C   UNL     1      49.071   7.985  15.909  0.00  0.00    +0.000 A 
ATOM      3  C   UNL     1      48.739   9.274  16.342  0.00  0.00    +0.000 A 
ATOM      4  C   UNL     1      48.184   9.456  17.601  0.00  0.00    +0.000 A 
ATOM      5  C   UNL     1      47.927   8.349  18.413  0.00  0.00    +0.000 A 
ATOM      6  C   UNL     1      48.209   7.038  18.001  0.00  0.00    +0.000 A 
ATOM      7  C   UNL     1      48.819   6.885  16.750  0.00  0.00    +0.000 A 
BRANCH   6   8
ATOM      8  N   UNL     1      47.870   5.949  18.770  0.00  0.00    +0.000 N 
ATOM      9  C   UNL     1      47.814   6.029  20.235  0.00  0.00    +0.000 C 
ATOM     10  C   UNL     1      48.756   4.981  20.858  0.00  0.00    +0.000 C 
ATOM     11  N   UNL     1      48.482   3.605  20.388  0.00  0.00    +0.000 NA
ATOM     12  C   UNL     1      48.568   3.583  18.909  0.00  0.00    +0.000 C 
ATOM     13  C   UNL     1      47.646   4.613  18.204  0.00  0.00    +0.000 C 
ATOM     14  H   UNL     1      47.521   3.375  20.646  0.00  0.00    +0.000 HD
ENDBRANCH   6   8
ENDBRANCH   1   2
BRANCH   1  16
ATOM     15  C   UNL     1      49.196   8.959  12.321  0.00  0.00    +0.000 C 
ATOM     16  N   UNL     1      48.767   8.078  13.407  0.00  0.00    +0.000 N 
BRANCH  16  17
ATOM     17  C   UNL     1      47.608   7.308  13.244  0.00  0.00    +0.000 A 
ATOM     18  C   UNL     1      46.375   7.883  12.884  0.00  0.00    +0.000 A 
ATOM     19  C   UNL     1      45.213   7.121  12.727  0.00  0.00    +0.000 A 
ATOM     20  C   UNL     1      45.255   5.746  12.907  0.00  0.00    +0.000 A 
ATOM     21  C   UNL     1      46.464   5.131  13.238  0.00  0.00    +0.000 A 
ATOM     22  C   UNL     1      47.612   5.913  13.436  0.00  0.00    +0.000 A 
BRANCH  21  23
ATOM     23  C   UNL     1      46.486   3.650  13.362  0.00  0.00    +0.000 C 
ATOM     24  N   UNL     1      45.551   2.942  12.659  0.00  0.00    +0.000 N 
ATOM     25  O   UNL     1      47.271   3.082  14.106  0.00  0.00    +0.000 OA
ATOM     26  H   UNL     1      44.755   3.373  12.214  0.00  0.00    +0.000 HD
ATOM     27  H   UNL     1      45.494   1.955  12.871  0.00  0.00    +0.000 HD
ENDBRANCH  21  23
ENDBRANCH  16  17
ENDBRANCH   1  16
TORSDOF 5
ENDMDL
MODEL 7
REMARK VINA RESULT:    -6.487      3.739      5.446
REMARK INTER + INTRA:          -8.839
REMARK INTER:                  -8.005
REMARK INTRA:                  -0.834
REMARK UNBOUND:                -0.456
REMARK  Name = 
REMARK  6 active torsions:
REMARK  status: ('A' for Active; 'I' for Inactive)
REMARK    1  A    between atoms: C_1  and  N_2
REMARK    2  A    between atoms: N_2  and  C_3
REMARK    3  A    between atoms: N_2  and  C_16
REMARK    4  A    between atoms: C_3  and  C_4
REMARK    5  A    between atoms: C_8  and  N_9
REMARK    6  A    between atoms: C_20  and  C_21
REMARK                            x       y       z     vdW  Elec       q    Type
REMARK                         _______ _______ _______ _____ _____    ______ ____
ROOT
ATOM      1  C   UNL     1      48.840   8.442  15.000  0.00  0.00    +0.000 C 
ENDROOT
BRANCH   1   2
ATOM      2  C   UNL     1      49.918   7.586  15.612  0.00  0.00    +0.000 A 
ATOM      3  C   UNL     1      51.266   7.871  15.369  0.00  0.00    +0.000 A 
ATOM      4  C   UNL     1      52.253   7.088  15.951  0.00  0.00    +0.000 A 
ATOM      5  C   UNL     1      51.894   6.042  16.804  0.00  0.00    +0.000 A 
ATOM      6  C   UNL     1      50.555   5.747  17.104  0.00  0.00    +0.000 A 
ATOM      7  C   UNL     1      49.579   6.517  16.462  0.00  0.00    +0.000 A 
BRANCH   6   8
ATOM      8  N   UNL     1      50.216   4.773  18.015  0.00  0.00    +0.000 N 
ATOM      9  C   UNL     1      49.739   3.452  17.588  0.00  0.00    +0.000 C 
ATOM     10  C   UNL     1      48.352   3.168  18.195  0.00  0.00    +0.000 C 
ATOM     11  N   UNL     1      48.330   3.292  19.670  0.00  0.00    +0.000 NA
ATOM     12  C   UNL     1      48.804   4.647  20.039  0.00  0.00    +0.000 C 
ATOM     13  C   UNL     1      50.199   5.010  19.464  0.00  0.00    +0.000 C 
ATOM     14  H   UNL     1      48.997   2.618  20.048  0.00  0.00    +0.000 HD
ENDBRANCH   6   8
ENDBRANCH   1   2
BRANCH   1  16
ATOM     15  C   UNL     1      49.444   8.482  12.517  0.00  0.00    +0.000 C 
ATOM     16  N   UNL     1      48.512   8.153  13.595  0.00  0.00    +0.000 N 
BRANCH  16  17
ATOM     17  C   UNL     1      47.420   7.319  13.324  0.00  0.00    +0.000 A 
ATOM     18  C   UNL     1      46.197   7.825  12.843  0.00  0.00    +0.000 A 
ATOM     19  C   UNL     1      45.101   6.999  12.576  0.00  0.00    +0.000 A 
ATOM     20  C   UNL     1      45.202   5.628  12.764  0.00  0.00    +0.000 A 
ATOM     21  C   UNL     1      46.405   5.082  13.214  0.00  0.00    +0.000 A 
ATOM     22  C   UNL     1      47.483   5.926  13.520  0.00  0.00    +0.000 A 
BRANCH  21  23
ATOM     23  C   UNL     1      46.498   3.604  13.346  0.00  0.00    +0.000 C 
ATOM     24  N   UNL     1      45.573   2.850  12.677  0.00  0.00    +0.000 N 
ATOM     25  O   UNL     1      47.331   3.076  14.068  0.00  0.00    +0.000 OA
ATOM     26  H   UNL     1      44.745   3.242  12.255  0.00  0.00    +0.000 HD
ATOM     27  H   UNL     1      45.567   1.863  12.897  0.00  0.00    +0.000 HD
ENDBRANCH  21  23
ENDBRANCH  16  17
ENDBRANCH   1  16
TORSDOF 5
ENDMDL
MODEL 8
REMARK VINA RESULT:    -6.477      2.875      4.096
REMARK INTER + INTRA:          -8.827
REMARK INTER:                  -8.023
REMARK INTRA:                  -0.803
REMARK UNBOUND:                -0.456
REMARK  Name = 
REMARK  6 active torsions:
REMARK  status: ('A' for Active; 'I' for Inactive)
REMARK    1  A    between atoms: C_1  and  N_2
REMARK    2  A    between atoms: N_2  and  C_3
REMARK    3  A    between atoms: N_2  and  C_16
REMARK    4  A    between atoms: C_3  and  C_4
REMARK    5  A    between atoms: C_8  and  N_9
REMARK    6  A    between atoms: C_20  and  C_21
REMARK                            x       y       z     vdW  Elec       q    Type
REMARK                         _______ _______ _______ _____ _____    ______ ____
ROOT
ATOM      1  C   UNL     1      47.773   7.549  12.767  0.00  0.00    +0.000 C 
ENDROOT
BRANCH   1   2
ATOM      2  C   UNL     1      48.174   7.541  14.219  0.00  0.00    +0.000 A 
ATOM      3  C   UNL     1      48.253   8.741  14.934  0.00  0.00    +0.000 A 
ATOM      4  C   UNL     1      48.605   8.722  16.276  0.00  0.00    +0.000 A 
ATOM      5  C   UNL     1      48.846   7.502  16.913  0.00  0.00    +0.000 A 
ATOM      6  C   UNL     1      48.740   6.274  16.241  0.00  0.00    +0.000 A 
ATOM      7  C   UNL     1      48.436   6.324  14.876  0.00  0.00    +0.000 A 
BRANCH   6   8
ATOM      8  N   UNL     1      48.890   5.075  16.899  0.00  0.00    +0.000 N 
ATOM      9  C   UNL     1      48.121   3.885  16.514  0.00  0.00    +0.000 C 
ATOM     10  C   UNL     1      47.318   3.361  17.720  0.00  0.00    +0.000 C 
ATOM     11  N   UNL     1      48.165   3.090  18.904  0.00  0.00    +0.000 NA
ATOM     12  C   UNL     1      48.901   4.327  19.253  0.00  0.00    +0.000 C 
ATOM     13  C   UNL     1      49.737   4.919  18.088  0.00  0.00    +0.000 C 
ATOM     14  H   UNL     1      48.853   2.384  18.637  0.00  0.00    +0.000 HD
ENDBRANCH   6   8
ENDBRANCH   1   2
BRANCH   1  16
ATOM     15  C   UNL     1      45.492   8.697  12.685  0.00  0.00    +0.000 C 
ATOM     16  N   UNL     1      46.327   7.511  12.501  0.00  0.00    +0.000 N 
BRANCH  16  17
ATOM     17  C   UNL     1      45.804   6.406  11.817  0.00  0.00    +0.000 A 
ATOM     18  C   UNL     1      46.039   6.199  10.444  0.00  0.00    +0.000 A 
ATOM     19  C   UNL     1      45.515   5.103   9.753  0.00  0.00    +0.000 A 
ATOM     20  C   UNL     1      44.749   4.160  10.425  0.00  0.00    +0.000 A 
ATOM     21  C   UNL     1      44.514   4.313  11.792  0.00  0.00    +0.000 A 
ATOM     22  C   UNL     1      45.009   5.441  12.464  0.00  0.00    +0.000 A 
BRANCH  21  23
ATOM     23  C   UNL     1      43.742   3.253  12.492  0.00  0.00    +0.000 C 
ATOM     24  N   UNL     1      43.491   2.096  11.807  0.00  0.00    +0.000 N 
ATOM     25  O   UNL     1      43.297   3.423  13.618  0.00  0.00    +0.000 OA
ATOM     26  H   UNL     1      43.644   2.000  10.815  0.00  0.00    +0.000 HD
ATOM     27  H   UNL     1      42.845   1.454  12.248  0.00  0.00    +0.000 HD
ENDBRANCH  21  23
ENDBRANCH  16  17
ENDBRANCH   1  16
TORSDOF 5
ENDMDL
MODEL 9
REMARK VINA RESULT:    -6.390      2.562      4.150
REMARK INTER + INTRA:          -8.714
REMARK INTER:                  -7.945
REMARK INTRA:                  -0.769
REMARK UNBOUND:                -0.456
REMARK  Name = 
REMARK  6 active torsions:
REMARK  status: ('A' for Active; 'I' for Inactive)
REMARK    1  A    between atoms: C_1  and  N_2
REMARK    2  A    between atoms: N_2  and  C_3
REMARK    3  A    between atoms: N_2  and  C_16
REMARK    4  A    between atoms: C_3  and  C_4
REMARK    5  A    between atoms: C_8  and  N_9
REMARK    6  A    between atoms: C_20  and  C_21
REMARK                            x       y       z     vdW  Elec       q    Type
REMARK                         _______ _______ _______ _____ _____    ______ ____
ROOT
ATOM      1  C   UNL     1      47.469   6.471  13.040  0.00  0.00    +0.000 C 
ENDROOT
BRANCH   1   2
ATOM      2  C   UNL     1      47.670   5.798  14.373  0.00  0.00    +0.000 A 
ATOM      3  C   UNL     1      47.102   4.543  14.620  0.00  0.00    +0.000 A 
ATOM      4  C   UNL     1      47.308   3.923  15.844  0.00  0.00    +0.000 A 
ATOM      5  C   UNL     1      48.109   4.538  16.808  0.00  0.00    +0.000 A 
ATOM      6  C   UNL     1      48.728   5.778  16.585  0.00  0.00    +0.000 A 
ATOM      7  C   UNL     1      48.461   6.408  15.364  0.00  0.00    +0.000 A 
BRANCH   6   8
ATOM      8  N   UNL     1      49.588   6.334  17.505  0.00  0.00    +0.000 N 
ATOM      9  C   UNL     1      49.095   6.969  18.733  0.00  0.00    +0.000 C 
ATOM     10  C   UNL     1      49.586   8.427  18.808  0.00  0.00    +0.000 C 
ATOM     11  N   UNL     1      51.057   8.548  18.698  0.00  0.00    +0.000 NA
ATOM     12  C   UNL     1      51.493   7.906  17.436  0.00  0.00    +0.000 C 
ATOM     13  C   UNL     1      51.036   6.431  17.284  0.00  0.00    +0.000 C 
ATOM     14  H   UNL     1      51.470   8.024  19.470  0.00  0.00    +0.000 HD
ENDBRANCH   6   8
ENDBRANCH   1   2
BRANCH   1  16
ATOM     15  C   UNL     1      45.672   8.284  12.919  0.00  0.00    +0.000 C 
ATOM     16  N   UNL     1      46.094   6.895  12.737  0.00  0.00    +0.000 N 
BRANCH  16  17
ATOM     17  C   UNL     1      45.267   6.019  12.023  0.00  0.00    +0.000 A 
ATOM     18  C   UNL     1      44.045   5.553  12.544  0.00  0.00    +0.000 A 
ATOM     19  C   UNL     1      43.219   4.672  11.840  0.00  0.00    +0.000 A 
ATOM     20  C   UNL     1      43.583   4.243  10.571  0.00  0.00    +0.000 A 
ATOM     21  C   UNL     1      44.774   4.702  10.005  0.00  0.00    +0.000 A 
ATOM     22  C   UNL     1      45.615   5.550  10.741  0.00  0.00    +0.000 A 
BRANCH  21  23
ATOM     23  C   UNL     1      45.103   4.271   8.621  0.00  0.00    +0.000 C 
ATOM     24  N   UNL     1      44.305   3.319   8.049  0.00  0.00    +0.000 N 
ATOM     25  O   UNL     1      46.081   4.704   8.031  0.00  0.00    +0.000 OA
ATOM     26  H   UNL     1      43.632   2.779   8.570  0.00  0.00    +0.000 HD
ATOM     27  H   UNL     1      44.633   2.940   7.170  0.00  0.00    +0.000 HD
ENDBRANCH  21  23
ENDBRANCH  16  17
ENDBRANCH   1  16
TORSDOF 5
ENDMDL
