MODEL 1
REMARK VINA RESULT:    -8.387      0.000      0.000
REMARK INTER + INTRA:         -13.003
REMARK INTER:                 -12.065
REMARK INTRA:                  -0.938
REMARK UNBOUND:                -0.938
REMARK  Name = 
REMARK  8 active torsions:
REMARK  status: ('A' for Active; 'I' for Inactive)
REMARK    1  A    between atoms: C_2  and  C_4
REMARK    2  A    between atoms: C_7  and  N_8
REMARK    3  A    between atoms: N_8  and  C_9
REMARK    4  A    between atoms: C_9  and  C_10
REMARK    5  A    between atoms: C_10  and  O_11
REMARK    6  A    between atoms: C_10  and  C_12
REMARK    7  A    between atoms: C_17  and  C_18
REMARK    8  A    between atoms: C_18  and  C_19
REMARK                            x       y       z     vdW  Elec       q    Type
REMARK                         _______ _______ _______ _____ _____    ______ ____
ROOT
ATOM      1  C   UNL     1      43.561   5.792  12.159  0.00  0.00    +0.000 C 
ENDROOT
BRANCH   1   2
ATOM      2  C   UNL     1      45.049   5.721  12.461  0.00  0.00    +0.000 A 
ATOM      3  C   UNL     1      45.950   6.627  11.893  0.00  0.00    +0.000 A 
ATOM      4  C   UNL     1      47.287   6.617  12.286  0.00  0.00    +0.000 A 
ATOM      5  F   UNL     1      48.129   7.512  11.755  0.00  0.00    +0.000 F 
ATOM      6  C   UNL     1      47.750   5.711  13.232  0.00  0.00    +0.000 A 
ATOM      7  C   UNL     1      46.876   4.769  13.787  0.00  0.00    +0.000 A 
ATOM      8  C   UNL     1      45.527   4.782  13.393  0.00  0.00    +0.000 A 
BRANCH   7   9
ATOM      9  C   UNL     1      47.372   3.755  14.789  0.00  0.00    +0.000 C 
BRANCH   9  10
ATOM     10  C   UNL     1      47.070   4.191  16.217  0.00  0.00    +0.000 C 
ATOM     11  C   UNL     1      48.193   5.029  16.861  0.00  0.00    +0.000 C 
ATOM     12  N   UNL     1      48.180   4.158  18.040  0.00  0.00    +0.000 NA
ATOM     13  C   UNL     1      47.315   3.186  17.361  0.00  0.00    +0.000 C 
ATOM     14  H   UNL     1      47.759   4.584  18.865  0.00  0.00    +0.000 HD
ENDBRANCH   9  10
ENDBRANCH   7   9
ENDBRANCH   1   2
BRANCH   1  15
ATOM     15  O   UNL     1      42.807   5.706  13.371  0.00  0.00    +0.000 OA
ATOM     16  H   UNL     1      43.230   5.046  13.944  0.00  0.00    +0.000 HD
ENDBRANCH   1  15
BRANCH   1  17
ATOM     17  C   UNL     1      43.169   4.668  11.176  0.00  0.00    +0.000 C 
BRANCH  17  18
ATOM     18  N   UNL     1      43.700   4.922   9.841  0.00  0.00    +0.000 N 
ATOM     19  H   UNL     1      43.057   5.416   9.221  0.00  0.00    +0.000 HD
BRANCH  18  23
ATOM     20  C   UNL     1      46.213   2.101   7.967  0.00  0.00    +0.000 A 
ATOM     21  C   UNL     1      45.240   1.660   8.866  0.00  0.00    +0.000 A 
ATOM     22  C   UNL     1      44.390   2.584   9.482  0.00  0.00    +0.000 A 
ATOM     23  C   UNL     1      44.466   3.954   9.195  0.00  0.00    +0.000 A 
ATOM     24  C   UNL     1      45.464   4.379   8.309  0.00  0.00    +0.000 A 
ATOM     25  C   UNL     1      46.335   3.467   7.704  0.00  0.00    +0.000 A 
BRANCH  20  27
ATOM     26  N   UNL     1      48.237   1.704   6.678  0.00  0.00    +0.000 N 
ATOM     27  C   UNL     1      47.152   1.159   7.309  0.00  0.00    +0.000 C 
ATOM     28  O   UNL     1      46.994  -0.052   7.359  0.00  0.00    +0.000 OA
ATOM     29  H   UNL     1      48.926   1.048   6.332  0.00  0.00    +0.000 HD
ATOM     30  H   UNL     1      48.531   2.655   6.836  0.00  0.00    +0.000 HD
ENDBRANCH  20  27
ENDBRANCH  18  23
ENDBRANCH  17  18
ENDBRANCH   1  17
TORSDOF 8
ENDMDL
MODEL 2
REMARK VINA RESULT:    -8.331      2.210      3.283
REMARK INTER + INTRA:         -12.922
REMARK INTER:                 -11.909
REMARK INTRA:                  -1.013
REMARK UNBOUND:                -0.938
REMARK  Name = 
REMARK  8 active torsions:
REMARK  status: ('A' for Active; 'I' for Inactive)
REMARK    1  A    between atoms: C_2  and  C_4
REMARK    2  A    between atoms: C_7  and  N_8
REMARK    3  A    between atoms: N_8  and  C_9
REMARK    4  A    between atoms: C_9  and  C_10
REMARK    5  A    between atoms: C_10  and  O_11
REMARK    6  A    between atoms: C_10  and  C_12
REMARK    7  A    between atoms: C_17  and  C_18
REMARK    8  A    between atoms: C_18  and  C_19
REMARK                            x       y       z     vdW  Elec       q    Type
REMARK                         _______ _______ _______ _____ _____    ______ ____
ROOT
ATOM      1  C   UNL     1      43.362   5.698  12.230  0.00  0.00    +0.000 C 
ENDROOT
BRANCH   1   2
ATOM      2  C   UNL     1      44.809   5.597  12.680  0.00  0.00    +0.000 A 
ATOM      3  C   UNL     1      45.306   4.431  13.272  0.00  0.00    +0.000 A 
ATOM      4  C   UNL     1      46.666   4.322  13.557  0.00  0.00    +0.000 A 
ATOM      5  F   UNL     1      47.129   3.187  14.095  0.00  0.00    +0.000 F 
ATOM      6  C   UNL     1      47.545   5.360  13.274  0.00  0.00    +0.000 A 
ATOM      7  C   UNL     1      47.065   6.551  12.716  0.00  0.00    +0.000 A 
ATOM      8  C   UNL     1      45.695   6.660  12.425  0.00  0.00    +0.000 A 
BRANCH   7   9
ATOM      9  C   UNL     1      48.002   7.702  12.435  0.00  0.00    +0.000 C 
BRANCH   9  10
ATOM     10  C   UNL     1      49.452   7.238  12.384  0.00  0.00    +0.000 C 
ATOM     11  C   UNL     1      50.305   7.732  13.569  0.00  0.00    +0.000 C 
ATOM     12  N   UNL     1      51.329   8.220  12.641  0.00  0.00    +0.000 NA
ATOM     13  C   UNL     1      50.441   8.014  11.491  0.00  0.00    +0.000 C 
ATOM     14  H   UNL     1      52.175   7.650  12.622  0.00  0.00    +0.000 HD
ENDBRANCH   9  10
ENDBRANCH   7   9
ENDBRANCH   1   2
BRANCH   1  15
ATOM     15  O   UNL     1      42.483   5.513  13.343  0.00  0.00    +0.000 OA
ATOM     16  H   UNL     1      42.280   6.387  13.716  0.00  0.00    +0.000 HD
ENDBRANCH   1  15
BRANCH   1  17
ATOM     17  C   UNL     1      43.082   4.661  11.119  0.00  0.00    +0.000 C 
BRANCH  17  18
ATOM     18  N   UNL     1      43.789   4.998   9.889  0.00  0.00    +0.000 N 
ATOM     19  H   UNL     1      43.228   5.518   9.212  0.00  0.00    +0.000 HD
BRANCH  18  23
ATOM     20  C   UNL     1      46.230   2.093   8.049  0.00  0.00    +0.000 A 
ATOM     21  C   UNL     1      46.381   3.436   7.698  0.00  0.00    +0.000 A 
ATOM     22  C   UNL     1      45.588   4.411   8.311  0.00  0.00    +0.000 A 
ATOM     23  C   UNL     1      44.658   4.079   9.306  0.00  0.00    +0.000 A 
ATOM     24  C   UNL     1      44.504   2.724   9.627  0.00  0.00    +0.000 A 
ATOM     25  C   UNL     1      45.276   1.737   9.004  0.00  0.00    +0.000 A 
BRANCH  20  27
ATOM     26  N   UNL     1      47.933   1.410   6.452  0.00  0.00    +0.000 N 
ATOM     27  C   UNL     1      47.031   1.023   7.406  0.00  0.00    +0.000 C 
ATOM     28  O   UNL     1      46.926  -0.150   7.735  0.00  0.00    +0.000 OA
ATOM     29  H   UNL     1      48.550   0.687   6.103  0.00  0.00    +0.000 HD
ATOM     30  H   UNL     1      48.224   2.369   6.343  0.00  0.00    +0.000 HD
ENDBRANCH  20  27
ENDBRANCH  18  23
ENDBRANCH  17  18
ENDBRANCH   1  17
TORSDOF 8
ENDMDL
MODEL 3
REMARK VINA RESULT:    -7.710      2.892      3.615
REMARK INTER + INTRA:         -12.029
REMARK INTER:                 -11.653
REMARK INTRA:                  -0.376
REMARK UNBOUND:                -0.938
REMARK  Name = 
REMARK  8 active torsions:
REMARK  status: ('A' for Active; 'I' for Inactive)
REMARK    1  A    between atoms: C_2  and  C_4
REMARK    2  A    between atoms: C_7  and  N_8
REMARK    3  A    between atoms: N_8  and  C_9
REMARK    4  A    between atoms: C_9  and  C_10
REMARK    5  A    between atoms: C_10  and  O_11
REMARK    6  A    between atoms: C_10  and  C_12
REMARK    7  A    between atoms: C_17  and  C_18
REMARK    8  A    between atoms: C_18  and  C_19
REMARK                            x       y       z     vdW  Elec       q    Type
REMARK                         _______ _______ _______ _____ _____    ______ ____
ROOT
ATOM      1  C   UNL     1      44.424   3.735  12.450  0.00  0.00    +0.000 C 
ENDROOT
BRANCH   1   2
ATOM      2  C   UNL     1      44.978   5.122  12.171  0.00  0.00    +0.000 A 
ATOM      3  C   UNL     1      44.146   6.169  11.758  0.00  0.00    +0.000 A 
ATOM      4  C   UNL     1      44.661   7.457  11.634  0.00  0.00    +0.000 A 
ATOM      5  F   UNL     1      43.842   8.452  11.268  0.00  0.00    +0.000 F 
ATOM      6  C   UNL     1      45.996   7.727  11.903  0.00  0.00    +0.000 A 
ATOM      7  C   UNL     1      46.858   6.690  12.280  0.00  0.00    +0.000 A 
ATOM      8  C   UNL     1      46.339   5.391  12.409  0.00  0.00    +0.000 A 
BRANCH   7   9
ATOM      9  C   UNL     1      48.320   6.960  12.541  0.00  0.00    +0.000 C 
BRANCH   9  10
ATOM     10  C   UNL     1      48.919   7.862  11.470  0.00  0.00    +0.000 C 
ATOM     11  C   UNL     1      50.450   7.743  11.342  0.00  0.00    +0.000 C 
ATOM     12  N   UNL     1      50.580   9.201  11.421  0.00  0.00    +0.000 NA
ATOM     13  C   UNL     1      49.173   9.344  11.813  0.00  0.00    +0.000 C 
ATOM     14  H   UNL     1      50.812   9.645  10.533  0.00  0.00    +0.000 HD
ENDBRANCH   9  10
ENDBRANCH   7   9
ENDBRANCH   1   2
BRANCH   1  15
ATOM     15  O   UNL     1      45.493   2.802  12.627  0.00  0.00    +0.000 OA
ATOM     16  H   UNL     1      46.222   3.063  12.041  0.00  0.00    +0.000 HD
ENDBRANCH   1  15
BRANCH   1  17
ATOM     17  C   UNL     1      43.489   3.301  11.299  0.00  0.00    +0.000 C 
BRANCH  17  18
ATOM     18  N   UNL     1      43.834   3.976  10.053  0.00  0.00    +0.000 N 
ATOM     19  H   UNL     1      43.054   4.463   9.610  0.00  0.00    +0.000 HD
BRANCH  18  23
ATOM     20  C   UNL     1      46.635   2.292   7.386  0.00  0.00    +0.000 A 
ATOM     21  C   UNL     1      45.962   1.463   8.285  0.00  0.00    +0.000 A 
ATOM     22  C   UNL     1      45.019   2.006   9.164  0.00  0.00    +0.000 A 
ATOM     23  C   UNL     1      44.703   3.372   9.146  0.00  0.00    +0.000 A 
ATOM     24  C   UNL     1      45.405   4.191   8.254  0.00  0.00    +0.000 A 
ATOM     25  C   UNL     1      46.367   3.663   7.385  0.00  0.00    +0.000 A 
BRANCH  20  27
ATOM     26  N   UNL     1      48.800   2.504   6.299  0.00  0.00    +0.000 N 
ATOM     27  C   UNL     1      47.660   1.764   6.453  0.00  0.00    +0.000 C 
ATOM     28  O   UNL     1      47.518   0.695   5.875  0.00  0.00    +0.000 OA
ATOM     29  H   UNL     1      49.536   2.079   5.751  0.00  0.00    +0.000 HD
ATOM     30  H   UNL     1      49.057   3.238   6.942  0.00  0.00    +0.000 HD
ENDBRANCH  20  27
ENDBRANCH  18  23
ENDBRANCH  17  18
ENDBRANCH   1  17
TORSDOF 8
ENDMDL
MODEL 4
REMARK VINA RESULT:    -7.447      2.570      3.948
REMARK INTER + INTRA:         -11.650
REMARK INTER:                 -10.879
REMARK INTRA:                  -0.771
REMARK UNBOUND:                -0.938
REMARK  Name = 
REMARK  8 active torsions:
REMARK  status: ('A' for Active; 'I' for Inactive)
REMARK    1  A    between atoms: C_2  and  C_4
REMARK    2  A    between atoms: C_7  and  N_8
REMARK    3  A    between atoms: N_8  and  C_9
REMARK    4  A    between atoms: C_9  and  C_10
REMARK    5  A    between atoms: C_10  and  O_11
REMARK    6  A    between atoms: C_10  and  C_12
REMARK    7  A    between atoms: C_17  and  C_18
REMARK    8  A    between atoms: C_18  and  C_19
REMARK                            x       y       z     vdW  Elec       q    Type
REMARK                         _______ _______ _______ _____ _____    ______ ____
ROOT
ATOM      1  C   UNL     1      44.765   4.095  12.613  0.00  0.00    +0.000 C 
ENDROOT
BRANCH   1   2
ATOM      2  C   UNL     1      45.889   4.978  13.127  0.00  0.00    +0.000 A 
ATOM      3  C   UNL     1      46.552   4.689  14.325  0.00  0.00    +0.000 A 
ATOM      4  C   UNL     1      47.660   5.443  14.705  0.00  0.00    +0.000 A 
ATOM      5  F   UNL     1      48.301   5.132  15.838  0.00  0.00    +0.000 F 
ATOM      6  C   UNL     1      48.119   6.492  13.919  0.00  0.00    +0.000 A 
ATOM      7  C   UNL     1      47.450   6.826  12.735  0.00  0.00    +0.000 A 
ATOM      8  C   UNL     1      46.334   6.063  12.350  0.00  0.00    +0.000 A 
BRANCH   7   9
ATOM      9  C   UNL     1      47.915   7.986  11.888  0.00  0.00    +0.000 C 
BRANCH   9  10
ATOM     10  C   UNL     1      47.477   9.318  12.481  0.00  0.00    +0.000 C 
ATOM     11  C   UNL     1      46.026   9.706  12.137  0.00  0.00    +0.000 C 
ATOM     12  N   UNL     1      46.473  11.030  11.696  0.00  0.00    +0.000 NA
ATOM     13  C   UNL     1      47.880  10.616  11.753  0.00  0.00    +0.000 C 
ATOM     14  H   UNL     1      46.235  11.783  12.340  0.00  0.00    +0.000 HD
ENDBRANCH   9  10
ENDBRANCH   7   9
ENDBRANCH   1   2
BRANCH   1  15
ATOM     15  O   UNL     1      45.187   2.729  12.576  0.00  0.00    +0.000 OA
ATOM     16  H   UNL     1      45.077   2.354  13.465  0.00  0.00    +0.000 HD
ENDBRANCH   1  15
BRANCH   1  17
ATOM     17  C   UNL     1      44.312   4.577  11.217  0.00  0.00    +0.000 C 
BRANCH  17  18
ATOM     18  N   UNL     1      43.962   3.452  10.356  0.00  0.00    +0.000 N 
ATOM     19  H   UNL     1      43.598   2.640  10.855  0.00  0.00    +0.000 HD
BRANCH  18  23
ATOM     20  C   UNL     1      46.557   2.626   7.136  0.00  0.00    +0.000 A 
ATOM     21  C   UNL     1      46.185   1.593   7.997  0.00  0.00    +0.000 A 
ATOM     22  C   UNL     1      45.313   1.850   9.060  0.00  0.00    +0.000 A 
ATOM     23  C   UNL     1      44.768   3.125   9.268  0.00  0.00    +0.000 A 
ATOM     24  C   UNL     1      45.172   4.154   8.407  0.00  0.00    +0.000 A 
ATOM     25  C   UNL     1      46.061   3.913   7.355  0.00  0.00    +0.000 A 
BRANCH  20  27
ATOM     26  N   UNL     1      48.834   2.411   6.309  0.00  0.00    +0.000 N 
ATOM     27  C   UNL     1      47.499   2.404   6.011  0.00  0.00    +0.000 C 
ATOM     28  O   UNL     1      47.107   2.184   4.874  0.00  0.00    +0.000 OA
ATOM     29  H   UNL     1      49.459   2.148   5.558  0.00  0.00    +0.000 HD
ATOM     30  H   UNL     1      49.176   2.332   7.254  0.00  0.00    +0.000 HD
ENDBRANCH  20  27
ENDBRANCH  18  23
ENDBRANCH  17  18
ENDBRANCH   1  17
TORSDOF 8
ENDMDL
MODEL 5
REMARK VINA RESULT:    -7.113      2.815      4.854
REMARK INTER + INTRA:         -11.170
REMARK INTER:                 -10.334
REMARK INTRA:                  -0.835
REMARK UNBOUND:                -0.938
REMARK  Name = 
REMARK  8 active torsions:
REMARK  status: ('A' for Active; 'I' for Inactive)
REMARK    1  A    between atoms: C_2  and  C_4
REMARK    2  A    between atoms: C_7  and  N_8
REMARK    3  A    between atoms: N_8  and  C_9
REMARK    4  A    between atoms: C_9  and  C_10
REMARK    5  A    between atoms: C_10  and  O_11
REMARK    6  A    between atoms: C_10  and  C_12
REMARK    7  A    between atoms: C_17  and  C_18
REMARK    8  A    between atoms: C_18  and  C_19
REMARK                            x       y       z     vdW  Elec       q    Type
REMARK                         _______ _______ _______ _____ _____    ______ ____
ROOT
ATOM      1  C   UNL     1      44.520   4.942  12.350  0.00  0.00    +0.000 C 
ENDROOT
BRANCH   1   2
ATOM      2  C   UNL     1      45.325   6.230  12.393  0.00  0.00    +0.000 A 
ATOM      3  C   UNL     1      46.686   6.226  12.717  0.00  0.00    +0.000 A 
ATOM      4  C   UNL     1      47.425   7.403  12.624  0.00  0.00    +0.000 A 
ATOM      5  F   UNL     1      48.734   7.374  12.908  0.00  0.00    +0.000 F 
ATOM      6  C   UNL     1      46.833   8.594  12.224  0.00  0.00    +0.000 A 
ATOM      7  C   UNL     1      45.465   8.632  11.931  0.00  0.00    +0.000 A 
ATOM      8  C   UNL     1      44.720   7.444  12.021  0.00  0.00    +0.000 A 
BRANCH   7   9
ATOM      9  C   UNL     1      44.799   9.926  11.528  0.00  0.00    +0.000 C 
BRANCH   9  10
ATOM     10  C   UNL     1      43.631   9.679  10.581  0.00  0.00    +0.000 C 
ATOM     11  C   UNL     1      43.625  10.603   9.348  0.00  0.00    +0.000 C 
ATOM     12  N   UNL     1      42.224  10.951   9.604  0.00  0.00    +0.000 NA
ATOM     13  C   UNL     1      42.264  10.305  10.921  0.00  0.00    +0.000 C 
ATOM     14  H   UNL     1      41.566  10.525   8.951  0.00  0.00    +0.000 HD
ENDBRANCH   9  10
ENDBRANCH   7   9
ENDBRANCH   1   2
BRANCH   1  15
ATOM     15  O   UNL     1      45.364   3.821  12.627  0.00  0.00    +0.000 OA
ATOM     16  H   UNL     1      44.967   3.318  13.356  0.00  0.00    +0.000 HD
ENDBRANCH   1  15
BRANCH   1  17
ATOM     17  C   UNL     1      43.833   4.797  10.974  0.00  0.00    +0.000 C 
BRANCH  17  18
ATOM     18  N   UNL     1      43.930   3.429  10.476  0.00  0.00    +0.000 N 
ATOM     19  H   UNL     1      43.970   2.718  11.208  0.00  0.00    +0.000 HD
BRANCH  18  23
ATOM     20  C   UNL     1      46.508   2.709   7.217  0.00  0.00    +0.000 A 
ATOM     21  C   UNL     1      46.096   1.638   8.013  0.00  0.00    +0.000 A 
ATOM     22  C   UNL     1      45.229   1.861   9.088  0.00  0.00    +0.000 A 
ATOM     23  C   UNL     1      44.729   3.139   9.372  0.00  0.00    +0.000 A 
ATOM     24  C   UNL     1      45.172   4.204   8.577  0.00  0.00    +0.000 A 
ATOM     25  C   UNL     1      46.058   3.997   7.513  0.00  0.00    +0.000 A 
BRANCH  20  27
ATOM     26  N   UNL     1      48.782   2.499   6.380  0.00  0.00    +0.000 N 
ATOM     27  C   UNL     1      47.446   2.522   6.084  0.00  0.00    +0.000 C 
ATOM     28  O   UNL     1      47.051   2.356   4.938  0.00  0.00    +0.000 OA
ATOM     29  H   UNL     1      49.403   2.260   5.618  0.00  0.00    +0.000 HD
ATOM     30  H   UNL     1      49.123   2.375   7.321  0.00  0.00    +0.000 HD
ENDBRANCH  20  27
ENDBRANCH  18  23
ENDBRANCH  17  18
ENDBRANCH   1  17
TORSDOF 8
ENDMDL
MODEL 6
REMARK VINA RESULT:    -6.884      3.387      8.180
REMARK INTER + INTRA:         -10.841
REMARK INTER:                 -10.276
REMARK INTRA:                  -0.564
REMARK UNBOUND:                -0.938
REMARK  Name = 
REMARK  8 active torsions:
REMARK  status: ('A' for Active; 'I' for Inactive)
REMARK    1  A    between atoms: C_2  and  C_4
REMARK    2  A    between atoms: C_7  and  N_8
REMARK    3  A    between atoms: N_8  and  C_9
REMARK    4  A    between atoms: C_9  and  C_10
REMARK    5  A    between atoms: C_10  and  O_11
REMARK    6  A    between atoms: C_10  and  C_12
REMARK    7  A    between atoms: C_17  and  C_18
REMARK    8  A    between atoms: C_18  and  C_19
REMARK                            x       y       z     vdW  Elec       q    Type
REMARK                         _______ _______ _______ _____ _____    ______ ____
ROOT
ATOM      1  C   UNL     1      46.106   5.115  14.033  0.00  0.00    +0.000 C 
ENDROOT
BRANCH   1   2
ATOM      2  C   UNL     1      45.097   4.773  12.950  0.00  0.00    +0.000 A 
ATOM      3  C   UNL     1      43.831   5.370  12.920  0.00  0.00    +0.000 A 
ATOM      4  C   UNL     1      42.977   5.134  11.845  0.00  0.00    +0.000 A 
ATOM      5  F   UNL     1      41.782   5.738  11.818  0.00  0.00    +0.000 F 
ATOM      6  C   UNL     1      43.353   4.303  10.797  0.00  0.00    +0.000 A 
ATOM      7  C   UNL     1      44.599   3.664  10.822  0.00  0.00    +0.000 A 
ATOM      8  C   UNL     1      45.462   3.905  11.904  0.00  0.00    +0.000 A 
BRANCH   7   9
ATOM      9  C   UNL     1      45.008   2.730   9.709  0.00  0.00    +0.000 C 
BRANCH   9  10
ATOM     10  C   UNL     1      45.139   3.469   8.383  0.00  0.00    +0.000 C 
ATOM     11  C   UNL     1      46.224   2.891   7.454  0.00  0.00    +0.000 C 
ATOM     12  N   UNL     1      46.794   4.229   7.271  0.00  0.00    +0.000 NA
ATOM     13  C   UNL     1      45.959   4.775   8.347  0.00  0.00    +0.000 C 
ATOM     14  H   UNL     1      46.608   4.636   6.354  0.00  0.00    +0.000 HD
ENDBRANCH   9  10
ENDBRANCH   7   9
ENDBRANCH   1   2
BRANCH   1  15
ATOM     15  O   UNL     1      46.922   6.214  13.620  0.00  0.00    +0.000 OA
ATOM     16  H   UNL     1      46.387   6.789  13.047  0.00  0.00    +0.000 HD
ENDBRANCH   1  15
BRANCH   1  17
ATOM     17  C   UNL     1      46.966   3.874  14.361  0.00  0.00    +0.000 C 
BRANCH  17  18
ATOM     18  N   UNL     1      46.985   3.607  15.795  0.00  0.00    +0.000 N 
ATOM     19  H   UNL     1      46.219   4.040  16.312  0.00  0.00    +0.000 HD
BRANCH  18  23
ATOM     20  C   UNL     1      50.739   3.469  17.710  0.00  0.00    +0.000 A 
ATOM     21  C   UNL     1      50.086   4.695  17.573  0.00  0.00    +0.000 A 
ATOM     22  C   UNL     1      48.833   4.752  16.953  0.00  0.00    +0.000 A 
ATOM     23  C   UNL     1      48.192   3.595  16.490  0.00  0.00    +0.000 A 
ATOM     24  C   UNL     1      48.874   2.378  16.616  0.00  0.00    +0.000 A 
ATOM     25  C   UNL     1      50.137   2.311  17.213  0.00  0.00    +0.000 A 
BRANCH  20  27
ATOM     26  N   UNL     1      52.210   3.852  19.610  0.00  0.00    +0.000 N 
ATOM     27  C   UNL     1      52.079   3.364  18.338  0.00  0.00    +0.000 C 
ATOM     28  O   UNL     1      53.021   2.831  17.767  0.00  0.00    +0.000 OA
ATOM     29  H   UNL     1      53.095   3.673  20.066  0.00  0.00    +0.000 HD
ATOM     30  H   UNL     1      51.413   4.055  20.193  0.00  0.00    +0.000 HD
ENDBRANCH  20  27
ENDBRANCH  18  23
ENDBRANCH  17  18
ENDBRANCH   1  17
TORSDOF 8
ENDMDL
MODEL 7
REMARK VINA RESULT:    -6.811      2.757      7.597
REMARK INTER + INTRA:         -10.735
REMARK INTER:                 -10.047
REMARK INTRA:                  -0.688
REMARK UNBOUND:                -0.938
REMARK  Name = 
REMARK  8 active torsions:
REMARK  status: ('A' for Active; 'I' for Inactive)
REMARK    1  A    between atoms: C_2  and  C_4
REMARK    2  A    between atoms: C_7  and  N_8
REMARK    3  A    between atoms: N_8  and  C_9
REMARK    4  A    between atoms: C_9  and  C_10
REMARK    5  A    between atoms: C_10  and  O_11
REMARK    6  A    between atoms: C_10  and  C_12
REMARK    7  A    between atoms: C_17  and  C_18
REMARK    8  A    between atoms: C_18  and  C_19
REMARK                            x       y       z     vdW  Elec       q    Type
REMARK                         _______ _______ _______ _____ _____    ______ ____
ROOT
ATOM      1  C   UNL     1      44.691   6.754  11.992  0.00  0.00    +0.000 C 
ENDROOT
BRANCH   1   2
ATOM      2  C   UNL     1      44.536   5.347  11.441  0.00  0.00    +0.000 A 
ATOM      3  C   UNL     1      44.070   4.299  12.241  0.00  0.00    +0.000 A 
ATOM      4  C   UNL     1      43.818   3.051  11.675  0.00  0.00    +0.000 A 
ATOM      5  F   UNL     1      43.343   2.068  12.450  0.00  0.00    +0.000 F 
ATOM      6  C   UNL     1      44.031   2.820  10.322  0.00  0.00    +0.000 A 
ATOM      7  C   UNL     1      44.533   3.842   9.507  0.00  0.00    +0.000 A 
ATOM      8  C   UNL     1      44.784   5.101  10.077  0.00  0.00    +0.000 A 
BRANCH   7   9
ATOM      9  C   UNL     1      44.804   3.596   8.042  0.00  0.00    +0.000 C 
BRANCH   9  10
ATOM     10  C   UNL     1      46.237   3.133   7.812  0.00  0.00    +0.000 C 
ATOM     11  C   UNL     1      46.644   3.088   6.326  0.00  0.00    +0.000 C 
ATOM     12  N   UNL     1      47.141   1.720   6.494  0.00  0.00    +0.000 NA
ATOM     13  C   UNL     1      46.532   1.620   7.825  0.00  0.00    +0.000 C 
ATOM     14  H   UNL     1      48.158   1.646   6.495  0.00  0.00    +0.000 HD
ENDBRANCH   9  10
ENDBRANCH   7   9
ENDBRANCH   1   2
BRANCH   1  15
ATOM     15  O   UNL     1      43.991   7.689  11.167  0.00  0.00    +0.000 OA
ATOM     16  H   UNL     1      43.664   7.215  10.384  0.00  0.00    +0.000 HD
ENDBRANCH   1  15
BRANCH   1  17
ATOM     17  C   UNL     1      46.189   7.116  12.099  0.00  0.00    +0.000 C 
BRANCH  17  18
ATOM     18  N   UNL     1      47.002   5.934  12.364  0.00  0.00    +0.000 N 
ATOM     19  H   UNL     1      46.744   5.116  11.811  0.00  0.00    +0.000 HD
BRANCH  18  23
ATOM     20  C   UNL     1      48.098   5.222  16.374  0.00  0.00    +0.000 A 
ATOM     21  C   UNL     1      47.255   4.318  15.724  0.00  0.00    +0.000 A 
ATOM     22  C   UNL     1      46.896   4.535  14.389  0.00  0.00    +0.000 A 
ATOM     23  C   UNL     1      47.391   5.629  13.666  0.00  0.00    +0.000 A 
ATOM     24  C   UNL     1      48.216   6.537  14.342  0.00  0.00    +0.000 A 
ATOM     25  C   UNL     1      48.563   6.343  15.684  0.00  0.00    +0.000 A 
BRANCH  20  27
ATOM     26  N   UNL     1      47.471   4.849  18.694  0.00  0.00    +0.000 N 
ATOM     27  C   UNL     1      48.484   5.046  17.795  0.00  0.00    +0.000 C 
ATOM     28  O   UNL     1      49.654   5.035  18.151  0.00  0.00    +0.000 OA
ATOM     29  H   UNL     1      47.753   4.618  19.638  0.00  0.00    +0.000 HD
ATOM     30  H   UNL     1      46.537   4.598  18.408  0.00  0.00    +0.000 HD
ENDBRANCH  20  27
ENDBRANCH  18  23
ENDBRANCH  17  18
ENDBRANCH   1  17
TORSDOF 8
ENDMDL
MODEL 8
REMARK VINA RESULT:    -6.646      3.320      7.463
REMARK INTER + INTRA:         -10.498
REMARK INTER:                  -9.587
REMARK INTRA:                  -0.911
REMARK UNBOUND:                -0.938
REMARK  Name = 
REMARK  8 active torsions:
REMARK  status: ('A' for Active; 'I' for Inactive)
REMARK    1  A    between atoms: C_2  and  C_4
REMARK    2  A    between atoms: C_7  and  N_8
REMARK    3  A    between atoms: N_8  and  C_9
REMARK    4  A    between atoms: C_9  and  C_10
REMARK    5  A    between atoms: C_10  and  O_11
REMARK    6  A    between atoms: C_10  and  C_12
REMARK    7  A    between atoms: C_17  and  C_18
REMARK    8  A    between atoms: C_18  and  C_19
REMARK                            x       y       z     vdW  Elec       q    Type
REMARK                         _______ _______ _______ _____ _____    ______ ____
ROOT
ATOM      1  C   UNL     1      46.641   4.427  13.641  0.00  0.00    +0.000 C 
ENDROOT
BRANCH   1   2
ATOM      2  C   UNL     1      45.434   4.280  12.731  0.00  0.00    +0.000 A 
ATOM      3  C   UNL     1      44.235   4.949  12.999  0.00  0.00    +0.000 A 
ATOM      4  C   UNL     1      43.189   4.896  12.080  0.00  0.00    +0.000 A 
ATOM      5  F   UNL     1      42.060   5.569  12.339  0.00  0.00    +0.000 F 
ATOM      6  C   UNL     1      43.307   4.179  10.897  0.00  0.00    +0.000 A 
ATOM      7  C   UNL     1      44.483   3.470  10.623  0.00  0.00    +0.000 A 
ATOM      8  C   UNL     1      45.539   3.525  11.548  0.00  0.00    +0.000 A 
BRANCH   7   9
ATOM      9  C   UNL     1      44.614   2.656   9.358  0.00  0.00    +0.000 C 
BRANCH   9  10
ATOM     10  C   UNL     1      44.925   3.541   8.157  0.00  0.00    +0.000 C 
ATOM     11  C   UNL     1      46.040   2.987   7.248  0.00  0.00    +0.000 C 
ATOM     12  N   UNL     1      46.730   4.279   7.291  0.00  0.00    +0.000 NA
ATOM     13  C   UNL     1      45.848   4.759   8.361  0.00  0.00    +0.000 C 
ATOM     14  H   UNL     1      46.662   4.813   6.425  0.00  0.00    +0.000 HD
ENDBRANCH   9  10
ENDBRANCH   7   9
ENDBRANCH   1   2
BRANCH   1  15
ATOM     15  O   UNL     1      46.220   4.655  14.988  0.00  0.00    +0.000 OA
ATOM     16  H   UNL     1      45.492   4.044  15.185  0.00  0.00    +0.000 HD
ENDBRANCH   1  15
BRANCH   1  17
ATOM     17  C   UNL     1      47.544   5.575  13.136  0.00  0.00    +0.000 C 
BRANCH  17  18
ATOM     18  N   UNL     1      47.375   6.777  13.946  0.00  0.00    +0.000 N 
ATOM     19  H   UNL     1      47.036   6.600  14.892  0.00  0.00    +0.000 HD
BRANCH  18  23
ATOM     20  C   UNL     1      45.982  10.277  12.050  0.00  0.00    +0.000 A 
ATOM     21  C   UNL     1      45.098   9.220  12.270  0.00  0.00    +0.000 A 
ATOM     22  C   UNL     1      45.543   8.059  12.911  0.00  0.00    +0.000 A 
ATOM     23  C   UNL     1      46.860   7.939  13.375  0.00  0.00    +0.000 A 
ATOM     24  C   UNL     1      47.739   9.000  13.124  0.00  0.00    +0.000 A 
ATOM     25  C   UNL     1      47.311  10.157  12.463  0.00  0.00    +0.000 A 
BRANCH  20  27
ATOM     26  N   UNL     1      46.187  11.807  10.170  0.00  0.00    +0.000 N 
ATOM     27  C   UNL     1      45.560  11.516  11.351  0.00  0.00    +0.000 C 
ATOM     28  O   UNL     1      44.665  12.229  11.783  0.00  0.00    +0.000 OA
ATOM     29  H   UNL     1      45.813  12.590   9.649  0.00  0.00    +0.000 HD
ATOM     30  H   UNL     1      46.731  11.124   9.666  0.00  0.00    +0.000 HD
ENDBRANCH  20  27
ENDBRANCH  18  23
ENDBRANCH  17  18
ENDBRANCH   1  17
TORSDOF 8
ENDMDL
MODEL 9
REMARK VINA RESULT:    -6.549      3.655      5.826
REMARK INTER + INTRA:         -10.358
REMARK INTER:                  -9.153
REMARK INTRA:                  -1.205
REMARK UNBOUND:                -0.938
REMARK  Name = 
REMARK  8 active torsions:
REMARK  status: ('A' for Active; 'I' for Inactive)
REMARK    1  A    between atoms: C_2  and  C_4
REMARK    2  A    between atoms: C_7  and  N_8
REMARK    3  A    between atoms: N_8  and  C_9
REMARK    4  A    between atoms: C_9  and  C_10
REMARK    5  A    between atoms: C_10  and  O_11
REMARK    6  A    between atoms: C_10  and  C_12
REMARK    7  A    between atoms: C_17  and  C_18
REMARK    8  A    between atoms: C_18  and  C_19
REMARK                            x       y       z     vdW  Elec       q    Type
REMARK                         _______ _______ _______ _____ _____    ______ ____
ROOT
ATOM      1  C   UNL     1      48.635   8.360  16.178  0.00  0.00    +0.000 C 
ENDROOT
BRANCH   1   2
ATOM      2  C   UNL     1      48.465   7.560  17.458  0.00  0.00    +0.000 A 
ATOM      3  C   UNL     1      47.947   8.146  18.618  0.00  0.00    +0.000 A 
ATOM      4  C   UNL     1      47.684   7.357  19.736  0.00  0.00    +0.000 A 
ATOM      5  F   UNL     1      47.159   7.929  20.828  0.00  0.00    +0.000 F 
ATOM      6  C   UNL     1      47.936   5.992  19.728  0.00  0.00    +0.000 A 
ATOM      7  C   UNL     1      48.489   5.388  18.592  0.00  0.00    +0.000 A 
ATOM      8  C   UNL     1      48.752   6.183  17.463  0.00  0.00    +0.000 A 
BRANCH   7   9
ATOM      9  C   UNL     1      48.802   3.911  18.579  0.00  0.00    +0.000 C 
BRANCH   9  10
ATOM     10  C   UNL     1      49.397   3.481  17.244  0.00  0.00    +0.000 C 
ATOM     11  C   UNL     1      48.469   2.572  16.415  0.00  0.00    +0.000 C 
ATOM     12  N   UNL     1      49.559   1.609  16.231  0.00  0.00    +0.000 NA
ATOM     13  C   UNL     1      50.387   2.299  17.227  0.00  0.00    +0.000 C 
ATOM     14  H   UNL     1      49.954   1.606  15.292  0.00  0.00    +0.000 HD
ENDBRANCH   9  10
ENDBRANCH   7   9
ENDBRANCH   1   2
BRANCH   1  15
ATOM     15  O   UNL     1      47.493   9.194  15.960  0.00  0.00    +0.000 OA
ATOM     16  H   UNL     1      47.618  10.015  16.464  0.00  0.00    +0.000 HD
ENDBRANCH   1  15
BRANCH   1  17
ATOM     17  C   UNL     1      48.863   7.404  14.985  0.00  0.00    +0.000 C 
BRANCH  17  18
ATOM     18  N   UNL     1      47.830   7.570  13.968  0.00  0.00    +0.000 N 
ATOM     19  H   UNL     1      47.323   8.454  14.027  0.00  0.00    +0.000 HD
BRANCH  18  23
ATOM     20  C   UNL     1      45.484   4.334  12.624  0.00  0.00    +0.000 A 
ATOM     21  C   UNL     1      46.423   4.125  13.636  0.00  0.00    +0.000 A 
ATOM     22  C   UNL     1      47.197   5.193  14.101  0.00  0.00    +0.000 A 
ATOM     23  C   UNL     1      47.031   6.490  13.598  0.00  0.00    +0.000 A 
ATOM     24  C   UNL     1      46.101   6.676  12.568  0.00  0.00    +0.000 A 
ATOM     25  C   UNL     1      45.337   5.610  12.078  0.00  0.00    +0.000 A 
BRANCH  20  27
ATOM     26  N   UNL     1      44.943   2.805  10.811  0.00  0.00    +0.000 N 
ATOM     27  C   UNL     1      44.660   3.225  12.082  0.00  0.00    +0.000 C 
ATOM     28  O   UNL     1      43.792   2.679  12.749  0.00  0.00    +0.000 OA
ATOM     29  H   UNL     1      44.452   1.978  10.497  0.00  0.00    +0.000 HD
ATOM     30  H   UNL     1      45.801   3.050  10.341  0.00  0.00    +0.000 HD
ENDBRANCH  20  27
ENDBRANCH  18  23
ENDBRANCH  17  18
ENDBRANCH   1  17
TORSDOF 8
ENDMDL
