MODEL 1
REMARK VINA RESULT:    -8.095      0.000      0.000
REMARK INTER + INTRA:         -12.104
REMARK INTER:                 -11.407
REMARK INTRA:                  -0.697
REMARK UNBOUND:                -0.697
REMARK  Name = 
REMARK  8 active torsions:
REMARK  status: ('A' for Active; 'I' for Inactive)
REMARK    1  A    between atoms: C_1  and  S_2
REMARK    2  A    between atoms: S_2  and  C_3
REMARK    3  A    between atoms: C_5  and  C_6
REMARK    4  A    between atoms: C_6  and  C_7
REMARK    5  A    between atoms: C_7  and  N_8
REMARK    6  A    between atoms: C_12  and  C_13
REMARK    7  A    between atoms: C_19  and  N_20
REMARK    8  A    between atoms: N_20  and  C_21
REMARK                            x       y       z     vdW  Elec       q    Type
REMARK                         _______ _______ _______ _____ _____    ______ ____
ROOT
ATOM      1  C   UNL     1      46.717   6.799  12.855  0.00  0.00    +0.000 A 
ATOM      2  C   UNL     1      45.397   6.704  12.399  0.00  0.00    +0.000 A 
ATOM      3  C   UNL     1      44.605   5.607  12.762  0.00  0.00    +0.000 A 
ATOM      4  C   UNL     1      45.149   4.626  13.611  0.00  0.00    +0.000 A 
ATOM      5  C   UNL     1      46.453   4.720  14.099  0.00  0.00    +0.000 A 
ATOM      6  C   UNL     1      47.239   5.805  13.691  0.00  0.00    +0.000 A 
ENDROOT
BRANCH   1   8
ATOM      7  C   UNL     1      46.607   9.512  12.440  0.00  0.00    +0.000 C 
ATOM      8  S   UNL     1      47.768   8.130  12.293  0.00  0.00    +0.000 S 
ENDBRANCH   1   8
BRANCH   5   9
ATOM      9  N   UNL     1      47.022   3.732  14.934  0.00  0.00    +0.000 N 
ATOM     10  H   UNL     1      46.372   2.952  15.036  0.00  0.00    +0.000 HD
BRANCH   9  11
ATOM     11  C   UNL     1      47.783   3.991  16.135  0.00  0.00    +0.000 C 
ATOM     12  C   UNL     1      48.225   2.701  16.857  0.00  0.00    +0.000 C 
ATOM     13  N   UNL     1      47.717   3.237  18.131  0.00  0.00    +0.000 NA
ATOM     14  C   UNL     1      46.981   4.293  17.413  0.00  0.00    +0.000 C 
ATOM     15  H   UNL     1      48.452   3.591  18.744  0.00  0.00    +0.000 HD
ENDBRANCH   9  11
ENDBRANCH   5   9
BRANCH   3  16
ATOM     16  C   UNL     1      43.201   5.439  12.219  0.00  0.00    +0.000 C 
BRANCH  16  17
ATOM     17  C   UNL     1      43.166   4.487  11.021  0.00  0.00    +0.000 C 
BRANCH  17  18
ATOM     18  N   UNL     1      43.922   5.023   9.885  0.00  0.00    +0.000 N 
ATOM     19  C   UNL     1      44.710   4.025   9.276  0.00  0.00    +0.000 A 
ATOM     20  C   UNL     1      45.492   4.350   8.175  0.00  0.00    +0.000 A 
ATOM     21  C   UNL     1      46.247   3.350   7.554  0.00  0.00    +0.000 A 
ATOM     22  C   UNL     1      46.211   2.044   8.049  0.00  0.00    +0.000 A 
ATOM     23  C   UNL     1      45.405   1.808   9.147  0.00  0.00    +0.000 A 
ATOM     24  N   UNL     1      44.665   2.766   9.757  0.00  0.00    +0.000 NA
ATOM     25  H   UNL     1      44.533   5.791  10.151  0.00  0.00    +0.000 HD
BRANCH  22  26
ATOM     26  C   UNL     1      47.014   0.982   7.399  0.00  0.00    +0.000 C 
ATOM     27  N   UNL     1      47.947   1.335   6.466  0.00  0.00    +0.000 N 
ATOM     28  O   UNL     1      46.846  -0.198   7.683  0.00  0.00    +0.000 OA
ATOM     29  H   UNL     1      48.170   2.268   6.158  0.00  0.00    +0.000 HD
ATOM     30  H   UNL     1      48.475   0.574   6.049  0.00  0.00    +0.000 HD
ENDBRANCH  22  26
ENDBRANCH  17  18
ENDBRANCH  16  17
ENDBRANCH   3  16
TORSDOF 7
ENDMDL
MODEL 2
REMARK VINA RESULT:    -6.939      3.068      4.929
REMARK INTER + INTRA:         -10.476
REMARK INTER:                  -9.778
REMARK INTRA:                  -0.698
REMARK UNBOUND:                -0.697
REMARK  Name = 
REMARK  8 active torsions:
REMARK  status: ('A' for Active; 'I' for Inactive)
REMARK    1  A    between atoms: C_1  and  S_2
REMARK    2  A    between atoms: S_2  and  C_3
REMARK    3  A    between atoms: C_5  and  C_6
REMARK    4  A    between atoms: C_6  and  C_7
REMARK    5  A    between atoms: C_7  and  N_8
REMARK    6  A    between atoms: C_12  and  C_13
REMARK    7  A    between atoms: C_19  and  N_20
REMARK    8  A    between atoms: N_20  and  C_21
REMARK                            x       y       z     vdW  Elec       q    Type
REMARK                         _______ _______ _______ _____ _____    ______ ____
ROOT
ATOM      1  C   UNL     1      47.357   7.552  12.150  0.00  0.00    +0.000 A 
ATOM      2  C   UNL     1      46.668   6.335  12.125  0.00  0.00    +0.000 A 
ATOM      3  C   UNL     1      45.272   6.313  12.246  0.00  0.00    +0.000 A 
ATOM      4  C   UNL     1      44.581   7.533  12.362  0.00  0.00    +0.000 A 
ATOM      5  C   UNL     1      45.249   8.758  12.358  0.00  0.00    +0.000 A 
ATOM      6  C   UNL     1      46.647   8.753  12.277  0.00  0.00    +0.000 A 
ENDROOT
BRANCH   1   8
ATOM      7  C   UNL     1      49.451   8.714  13.496  0.00  0.00    +0.000 C 
ATOM      8  S   UNL     1      49.143   7.575  12.122  0.00  0.00    +0.000 S 
ENDBRANCH   1   8
BRANCH   5   9
ATOM      9  N   UNL     1      44.572   9.991  12.497  0.00  0.00    +0.000 N 
ATOM     10  H   UNL     1      43.994   9.973  13.339  0.00  0.00    +0.000 HD
BRANCH   9  11
ATOM     11  C   UNL     1      43.970  10.739  11.417  0.00  0.00    +0.000 C 
ATOM     12  C   UNL     1      42.655  10.110  10.910  0.00  0.00    +0.000 C 
ATOM     13  N   UNL     1      43.140  10.210   9.522  0.00  0.00    +0.000 NA
ATOM     14  C   UNL     1      44.509  10.470  10.001  0.00  0.00    +0.000 C 
ATOM     15  H   UNL     1      42.730  10.989   9.005  0.00  0.00    +0.000 HD
ENDBRANCH   9  11
ENDBRANCH   5   9
BRANCH   3  16
ATOM     16  C   UNL     1      44.509   5.007  12.302  0.00  0.00    +0.000 C 
BRANCH  16  17
ATOM     17  C   UNL     1      43.884   4.655  10.950  0.00  0.00    +0.000 C 
BRANCH  17  18
ATOM     18  N   UNL     1      44.071   3.239  10.622  0.00  0.00    +0.000 N 
ATOM     19  C   UNL     1      44.886   3.079   9.482  0.00  0.00    +0.000 A 
ATOM     20  C   UNL     1      45.178   1.801   9.026  0.00  0.00    +0.000 A 
ATOM     21  C   UNL     1      46.013   1.646   7.914  0.00  0.00    +0.000 A 
ATOM     22  C   UNL     1      46.536   2.773   7.277  0.00  0.00    +0.000 A 
ATOM     23  C   UNL     1      46.196   4.008   7.798  0.00  0.00    +0.000 A 
ATOM     24  N   UNL     1      45.391   4.173   8.876  0.00  0.00    +0.000 NA
ATOM     25  H   UNL     1      43.191   2.759  10.452  0.00  0.00    +0.000 HD
BRANCH  22  26
ATOM     26  C   UNL     1      47.416   2.615   6.096  0.00  0.00    +0.000 C 
ATOM     27  N   UNL     1      48.770   2.587   6.277  0.00  0.00    +0.000 N 
ATOM     28  O   UNL     1      46.947   2.517   4.967  0.00  0.00    +0.000 OA
ATOM     29  H   UNL     1      49.262   2.655   7.153  0.00  0.00    +0.000 HD
ATOM     30  H   UNL     1      49.332   2.474   5.440  0.00  0.00    +0.000 HD
ENDBRANCH  22  26
ENDBRANCH  17  18
ENDBRANCH  16  17
ENDBRANCH   3  16
TORSDOF 7
ENDMDL
MODEL 3
REMARK VINA RESULT:    -6.936      2.712      3.438
REMARK INTER + INTRA:         -10.472
REMARK INTER:                  -9.939
REMARK INTRA:                  -0.532
REMARK UNBOUND:                -0.697
REMARK  Name = 
REMARK  8 active torsions:
REMARK  status: ('A' for Active; 'I' for Inactive)
REMARK    1  A    between atoms: C_1  and  S_2
REMARK    2  A    between atoms: S_2  and  C_3
REMARK    3  A    between atoms: C_5  and  C_6
REMARK    4  A    between atoms: C_6  and  C_7
REMARK    5  A    between atoms: C_7  and  N_8
REMARK    6  A    between atoms: C_12  and  C_13
REMARK    7  A    between atoms: C_19  and  N_20
REMARK    8  A    between atoms: N_20  and  C_21
REMARK                            x       y       z     vdW  Elec       q    Type
REMARK                         _______ _______ _______ _____ _____    ______ ____
ROOT
ATOM      1  C   UNL     1      44.307   9.100  11.195  0.00  0.00    +0.000 A 
ATOM      2  C   UNL     1      43.762   7.813  11.128  0.00  0.00    +0.000 A 
ATOM      3  C   UNL     1      44.239   6.801  11.971  0.00  0.00    +0.000 A 
ATOM      4  C   UNL     1      45.249   7.111  12.900  0.00  0.00    +0.000 A 
ATOM      5  C   UNL     1      45.783   8.396  13.001  0.00  0.00    +0.000 A 
ATOM      6  C   UNL     1      45.319   9.381  12.122  0.00  0.00    +0.000 A 
ENDROOT
BRANCH   1   8
ATOM      7  C   UNL     1      45.128  11.553  10.270  0.00  0.00    +0.000 C 
ATOM      8  S   UNL     1      43.788  10.358  10.037  0.00  0.00    +0.000 S 
ENDBRANCH   1   8
BRANCH   5   9
ATOM      9  N   UNL     1      46.815   8.718  13.913  0.00  0.00    +0.000 N 
ATOM     10  H   UNL     1      46.689   9.673  14.251  0.00  0.00    +0.000 HD
BRANCH   9  11
ATOM     11  C   UNL     1      48.204   8.351  13.765  0.00  0.00    +0.000 C 
ATOM     12  C   UNL     1      48.527   7.769  12.373  0.00  0.00    +0.000 C 
ATOM     13  N   UNL     1      49.217   6.631  13.006  0.00  0.00    +0.000 NA
ATOM     14  C   UNL     1      48.621   6.973  14.310  0.00  0.00    +0.000 C 
ATOM     15  H   UNL     1      50.234   6.712  12.985  0.00  0.00    +0.000 HD
ENDBRANCH   9  11
ENDBRANCH   5   9
BRANCH   3  16
ATOM     16  C   UNL     1      43.723   5.381  11.865  0.00  0.00    +0.000 C 
BRANCH  16  17
ATOM     17  C   UNL     1      43.695   4.895  10.414  0.00  0.00    +0.000 C 
BRANCH  17  18
ATOM     18  N   UNL     1      43.860   3.440  10.330  0.00  0.00    +0.000 N 
ATOM     19  C   UNL     1      44.776   3.084   9.320  0.00  0.00    +0.000 A 
ATOM     20  C   UNL     1      45.063   1.743   9.100  0.00  0.00    +0.000 A 
ATOM     21  C   UNL     1      45.997   1.396   8.119  0.00  0.00    +0.000 A 
ATOM     22  C   UNL     1      46.624   2.396   7.372  0.00  0.00    +0.000 A 
ATOM     23  C   UNL     1      46.282   3.705   7.658  0.00  0.00    +0.000 A 
ATOM     24  N   UNL     1      45.381   4.056   8.608  0.00  0.00    +0.000 NA
ATOM     25  H   UNL     1      42.982   2.960  10.146  0.00  0.00    +0.000 HD
BRANCH  22  26
ATOM     26  C   UNL     1      47.610   2.033   6.328  0.00  0.00    +0.000 C 
ATOM     27  N   UNL     1      48.843   2.622   6.348  0.00  0.00    +0.000 N 
ATOM     28  O   UNL     1      47.332   1.223   5.451  0.00  0.00    +0.000 OA
ATOM     29  H   UNL     1      49.179   3.294   7.018  0.00  0.00    +0.000 HD
ATOM     30  H   UNL     1      49.486   2.341   5.615  0.00  0.00    +0.000 HD
ENDBRANCH  22  26
ENDBRANCH  17  18
ENDBRANCH  16  17
ENDBRANCH   3  16
TORSDOF 7
ENDMDL
MODEL 4
REMARK VINA RESULT:    -6.869      2.499      4.226
REMARK INTER + INTRA:         -10.378
REMARK INTER:                  -9.556
REMARK INTRA:                  -0.822
REMARK UNBOUND:                -0.697
REMARK  Name = 
REMARK  8 active torsions:
REMARK  status: ('A' for Active; 'I' for Inactive)
REMARK    1  A    between atoms: C_1  and  S_2
REMARK    2  A    between atoms: S_2  and  C_3
REMARK    3  A    between atoms: C_5  and  C_6
REMARK    4  A    between atoms: C_6  and  C_7
REMARK    5  A    between atoms: C_7  and  N_8
REMARK    6  A    between atoms: C_12  and  C_13
REMARK    7  A    between atoms: C_19  and  N_20
REMARK    8  A    between atoms: N_20  and  C_21
REMARK                            x       y       z     vdW  Elec       q    Type
REMARK                         _______ _______ _______ _____ _____    ______ ____
ROOT
ATOM      1  C   UNL     1      46.842   4.938  14.080  0.00  0.00    +0.000 A 
ATOM      2  C   UNL     1      45.543   4.786  13.581  0.00  0.00    +0.000 A 
ATOM      3  C   UNL     1      45.117   5.548  12.485  0.00  0.00    +0.000 A 
ATOM      4  C   UNL     1      46.023   6.439  11.883  0.00  0.00    +0.000 A 
ATOM      5  C   UNL     1      47.331   6.582  12.349  0.00  0.00    +0.000 A 
ATOM      6  C   UNL     1      47.722   5.840  13.470  0.00  0.00    +0.000 A 
ENDROOT
BRANCH   1   8
ATOM      7  C   UNL     1      48.238   5.390  16.402  0.00  0.00    +0.000 C 
ATOM      8  S   UNL     1      47.347   4.062  15.553  0.00  0.00    +0.000 S 
ENDBRANCH   1   8
BRANCH   5   9
ATOM      9  N   UNL     1      48.246   7.490  11.770  0.00  0.00    +0.000 N 
ATOM     10  H   UNL     1      49.078   6.987  11.456  0.00  0.00    +0.000 HD
BRANCH   9  11
ATOM     11  C   UNL     1      48.544   8.811  12.275  0.00  0.00    +0.000 C 
ATOM     12  C   UNL     1      47.498   9.865  11.856  0.00  0.00    +0.000 C 
ATOM     13  N   UNL     1      48.578  10.763  11.411  0.00  0.00    +0.000 NA
ATOM     14  C   UNL     1      49.547   9.653  11.467  0.00  0.00    +0.000 C 
ATOM     15  H   UNL     1      48.776  11.516  12.070  0.00  0.00    +0.000 HD
ENDBRANCH   9  11
ENDBRANCH   5   9
BRANCH   3  16
ATOM     16  C   UNL     1      43.694   5.461  11.975  0.00  0.00    +0.000 C 
BRANCH  16  17
ATOM     17  C   UNL     1      43.640   5.002  10.516  0.00  0.00    +0.000 C 
BRANCH  17  18
ATOM     18  N   UNL     1      43.829   3.553  10.399  0.00  0.00    +0.000 N 
ATOM     19  C   UNL     1      44.743   3.236   9.373  0.00  0.00    +0.000 A 
ATOM     20  C   UNL     1      45.051   1.905   9.122  0.00  0.00    +0.000 A 
ATOM     21  C   UNL     1      45.983   1.596   8.125  0.00  0.00    +0.000 A 
ATOM     22  C   UNL     1      46.585   2.623   7.395  0.00  0.00    +0.000 A 
ATOM     23  C   UNL     1      46.223   3.919   7.712  0.00  0.00    +0.000 A 
ATOM     24  N   UNL     1      45.324   4.234   8.677  0.00  0.00    +0.000 NA
ATOM     25  H   UNL     1      42.959   3.061  10.212  0.00  0.00    +0.000 HD
BRANCH  22  26
ATOM     26  C   UNL     1      47.568   2.301   6.334  0.00  0.00    +0.000 C 
ATOM     27  N   UNL     1      47.114   1.877   5.118  0.00  0.00    +0.000 N 
ATOM     28  O   UNL     1      48.772   2.405   6.537  0.00  0.00    +0.000 OA
ATOM     29  H   UNL     1      46.153   1.758   4.840  0.00  0.00    +0.000 HD
ATOM     30  H   UNL     1      47.823   1.670   4.422  0.00  0.00    +0.000 HD
ENDBRANCH  22  26
ENDBRANCH  17  18
ENDBRANCH  16  17
ENDBRANCH   3  16
TORSDOF 7
ENDMDL
MODEL 5
REMARK VINA RESULT:    -6.742      3.047      7.748
REMARK INTER + INTRA:         -10.198
REMARK INTER:                  -9.440
REMARK INTRA:                  -0.757
REMARK UNBOUND:                -0.697
REMARK  Name = 
REMARK  8 active torsions:
REMARK  status: ('A' for Active; 'I' for Inactive)
REMARK    1  A    between atoms: C_1  and  S_2
REMARK    2  A    between atoms: S_2  and  C_3
REMARK    3  A    between atoms: C_5  and  C_6
REMARK    4  A    between atoms: C_6  and  C_7
REMARK    5  A    between atoms: C_7  and  N_8
REMARK    6  A    between atoms: C_12  and  C_13
REMARK    7  A    between atoms: C_19  and  N_20
REMARK    8  A    between atoms: N_20  and  C_21
REMARK                            x       y       z     vdW  Elec       q    Type
REMARK                         _______ _______ _______ _____ _____    ______ ____
ROOT
ATOM      1  C   UNL     1      44.326   3.508  10.330  0.00  0.00    +0.000 A 
ATOM      2  C   UNL     1      44.930   4.699  10.750  0.00  0.00    +0.000 A 
ATOM      3  C   UNL     1      45.801   5.387   9.895  0.00  0.00    +0.000 A 
ATOM      4  C   UNL     1      46.031   4.876   8.605  0.00  0.00    +0.000 A 
ATOM      5  C   UNL     1      45.415   3.707   8.158  0.00  0.00    +0.000 A 
ATOM      6  C   UNL     1      44.579   3.015   9.043  0.00  0.00    +0.000 A 
ENDROOT
BRANCH   1   8
ATOM      7  C   UNL     1      43.515   3.570  12.953  0.00  0.00    +0.000 C 
ATOM      8  S   UNL     1      43.315   2.565  11.461  0.00  0.00    +0.000 S 
ENDBRANCH   1   8
BRANCH   5   9
ATOM      9  N   UNL     1      45.654   3.168   6.873  0.00  0.00    +0.000 N 
ATOM     10  H   UNL     1      45.158   2.281   6.775  0.00  0.00    +0.000 HD
BRANCH   9  11
ATOM     11  C   UNL     1      46.924   3.182   6.185  0.00  0.00    +0.000 C 
ATOM     12  C   UNL     1      46.982   2.185   5.009  0.00  0.00    +0.000 C 
ATOM     13  N   UNL     1      48.268   1.667   5.509  0.00  0.00    +0.000 NA
ATOM     14  C   UNL     1      48.057   2.342   6.802  0.00  0.00    +0.000 C 
ATOM     15  H   UNL     1      49.074   2.015   4.989  0.00  0.00    +0.000 HD
ENDBRANCH   9  11
ENDBRANCH   5   9
BRANCH   3  16
ATOM     16  C   UNL     1      46.529   6.633  10.354  0.00  0.00    +0.000 C 
BRANCH  16  17
ATOM     17  C   UNL     1      46.072   7.079  11.744  0.00  0.00    +0.000 C 
BRANCH  17  18
ATOM     18  N   UNL     1      47.211   7.399  12.610  0.00  0.00    +0.000 N 
ATOM     19  C   UNL     1      47.320   6.482  13.675  0.00  0.00    +0.000 A 
ATOM     20  C   UNL     1      48.350   6.625  14.596  0.00  0.00    +0.000 A 
ATOM     21  C   UNL     1      48.474   5.694  15.632  0.00  0.00    +0.000 A 
ATOM     22  C   UNL     1      47.563   4.640  15.732  0.00  0.00    +0.000 A 
ATOM     23  C   UNL     1      46.571   4.571  14.772  0.00  0.00    +0.000 A 
ATOM     24  N   UNL     1      46.440   5.464  13.760  0.00  0.00    +0.000 NA
ATOM     25  H   UNL     1      47.151   8.335  13.002  0.00  0.00    +0.000 HD
BRANCH  22  26
ATOM     26  C   UNL     1      47.686   3.655  16.831  0.00  0.00    +0.000 C 
ATOM     27  N   UNL     1      48.925   3.374  17.333  0.00  0.00    +0.000 N 
ATOM     28  O   UNL     1      46.698   3.090  17.286  0.00  0.00    +0.000 OA
ATOM     29  H   UNL     1      49.800   3.776  17.039  0.00  0.00    +0.000 HD
ATOM     30  H   UNL     1      48.961   2.695  18.086  0.00  0.00    +0.000 HD
ENDBRANCH  22  26
ENDBRANCH  17  18
ENDBRANCH  16  17
ENDBRANCH   3  16
TORSDOF 7
ENDMDL
MODEL 6
REMARK VINA RESULT:    -6.450      3.739      7.139
REMARK INTER + INTRA:          -9.786
REMARK INTER:                  -8.900
REMARK INTRA:                  -0.887
REMARK UNBOUND:                -0.697
REMARK  Name = 
REMARK  8 active torsions:
REMARK  status: ('A' for Active; 'I' for Inactive)
REMARK    1  A    between atoms: C_1  and  S_2
REMARK    2  A    between atoms: S_2  and  C_3
REMARK    3  A    between atoms: C_5  and  C_6
REMARK    4  A    between atoms: C_6  and  C_7
REMARK    5  A    between atoms: C_7  and  N_8
REMARK    6  A    between atoms: C_12  and  C_13
REMARK    7  A    between atoms: C_19  and  N_20
REMARK    8  A    between atoms: N_20  and  C_21
REMARK                            x       y       z     vdW  Elec       q    Type
REMARK                         _______ _______ _______ _____ _____    ______ ____
ROOT
ATOM      1  C   UNL     1      44.798   9.465  11.560  0.00  0.00    +0.000 A 
ATOM      2  C   UNL     1      46.090   9.688  12.049  0.00  0.00    +0.000 A 
ATOM      3  C   UNL     1      46.931   8.605  12.336  0.00  0.00    +0.000 A 
ATOM      4  C   UNL     1      46.465   7.300  12.096  0.00  0.00    +0.000 A 
ATOM      5  C   UNL     1      45.191   7.059  11.580  0.00  0.00    +0.000 A 
ATOM      6  C   UNL     1      44.353   8.155  11.339  0.00  0.00    +0.000 A 
ENDROOT
BRANCH   1   8
ATOM      7  C   UNL     1      42.287   9.957  10.561  0.00  0.00    +0.000 C 
ATOM      8  S   UNL     1      43.680  10.836  11.312  0.00  0.00    +0.000 S 
ENDBRANCH   1   8
BRANCH   5   9
ATOM      9  N   UNL     1      44.699   5.753  11.355  0.00  0.00    +0.000 N 
ATOM     10  H   UNL     1      44.002   5.772  10.610  0.00  0.00    +0.000 HD
BRANCH   9  11
ATOM     11  C   UNL     1      44.395   4.787  12.386  0.00  0.00    +0.000 C 
ATOM     12  C   UNL     1      45.476   3.696  12.525  0.00  0.00    +0.000 C 
ATOM     13  N   UNL     1      44.434   2.655  12.486  0.00  0.00    +0.000 NA
ATOM     14  C   UNL     1      43.448   3.637  12.001  0.00  0.00    +0.000 C 
ATOM     15  H   UNL     1      44.213   2.268  13.404  0.00  0.00    +0.000 HD
ENDBRANCH   9  11
ENDBRANCH   5   9
BRANCH   3  16
ATOM     16  C   UNL     1      48.303   8.816  12.941  0.00  0.00    +0.000 C 
BRANCH  16  17
ATOM     17  C   UNL     1      49.048   7.493  13.135  0.00  0.00    +0.000 C 
BRANCH  17  18
ATOM     18  N   UNL     1      49.758   7.457  14.418  0.00  0.00    +0.000 N 
ATOM     19  C   UNL     1      49.213   6.483  15.279  0.00  0.00    +0.000 A 
ATOM     20  C   UNL     1      49.765   6.302  16.540  0.00  0.00    +0.000 A 
ATOM     21  C   UNL     1      49.243   5.312  17.379  0.00  0.00    +0.000 A 
ATOM     22  C   UNL     1      48.175   4.525  16.944  0.00  0.00    +0.000 A 
ATOM     23  C   UNL     1      47.687   4.771  15.673  0.00  0.00    +0.000 A 
ATOM     24  N   UNL     1      48.186   5.724  14.848  0.00  0.00    +0.000 NA
ATOM     25  H   UNL     1      49.738   8.353  14.899  0.00  0.00    +0.000 HD
BRANCH  22  26
ATOM     26  C   UNL     1      47.614   3.480  17.830  0.00  0.00    +0.000 C 
ATOM     27  N   UNL     1      48.289   3.146  18.970  0.00  0.00    +0.000 N 
ATOM     28  O   UNL     1      46.563   2.912  17.551  0.00  0.00    +0.000 OA
ATOM     29  H   UNL     1      49.153   3.545  19.298  0.00  0.00    +0.000 HD
ATOM     30  H   UNL     1      47.865   2.427  19.547  0.00  0.00    +0.000 HD
ENDBRANCH  22  26
ENDBRANCH  17  18
ENDBRANCH  16  17
ENDBRANCH   3  16
TORSDOF 7
ENDMDL
MODEL 7
REMARK VINA RESULT:    -6.190      4.121      8.208
REMARK INTER + INTRA:          -9.421
REMARK INTER:                  -8.810
REMARK INTRA:                  -0.611
REMARK UNBOUND:                -0.697
REMARK  Name = 
REMARK  8 active torsions:
REMARK  status: ('A' for Active; 'I' for Inactive)
REMARK    1  A    between atoms: C_1  and  S_2
REMARK    2  A    between atoms: S_2  and  C_3
REMARK    3  A    between atoms: C_5  and  C_6
REMARK    4  A    between atoms: C_6  and  C_7
REMARK    5  A    between atoms: C_7  and  N_8
REMARK    6  A    between atoms: C_12  and  C_13
REMARK    7  A    between atoms: C_19  and  N_20
REMARK    8  A    between atoms: N_20  and  C_21
REMARK                            x       y       z     vdW  Elec       q    Type
REMARK                         _______ _______ _______ _____ _____    ______ ____
ROOT
ATOM      1  C   UNL     1      45.115   5.521  11.771  0.00  0.00    +0.000 A 
ATOM      2  C   UNL     1      46.264   6.150  12.263  0.00  0.00    +0.000 A 
ATOM      3  C   UNL     1      46.354   7.549  12.267  0.00  0.00    +0.000 A 
ATOM      4  C   UNL     1      45.262   8.301  11.799  0.00  0.00    +0.000 A 
ATOM      5  C   UNL     1      44.097   7.692  11.333  0.00  0.00    +0.000 A 
ATOM      6  C   UNL     1      44.045   6.293  11.300  0.00  0.00    +0.000 A 
ENDROOT
BRANCH   1   8
ATOM      7  C   UNL     1      43.252   3.506  11.652  0.00  0.00    +0.000 C 
ATOM      8  S   UNL     1      45.048   3.740  11.648  0.00  0.00    +0.000 S 
ENDBRANCH   1   8
BRANCH   5   9
ATOM      9  N   UNL     1      43.000   8.433  10.837  0.00  0.00    +0.000 N 
ATOM     10  H   UNL     1      42.626   7.978  10.003  0.00  0.00    +0.000 HD
BRANCH   9  11
ATOM     11  C   UNL     1      42.928   9.875  10.772  0.00  0.00    +0.000 C 
ATOM     12  C   UNL     1      41.482  10.401  10.666  0.00  0.00    +0.000 C 
ATOM     13  N   UNL     1      41.874  11.259   9.534  0.00  0.00    +0.000 NA
ATOM     14  C   UNL     1      43.140  10.519   9.390  0.00  0.00    +0.000 C 
ATOM     15  H   UNL     1      41.997  12.239   9.791  0.00  0.00    +0.000 HD
ENDBRANCH   9  11
ENDBRANCH   5   9
BRANCH   3  16
ATOM     16  C   UNL     1      47.616   8.253  12.719  0.00  0.00    +0.000 C 
BRANCH  16  17
ATOM     17  C   UNL     1      48.711   7.258  13.111  0.00  0.00    +0.000 C 
BRANCH  17  18
ATOM     18  N   UNL     1      49.192   7.496  14.475  0.00  0.00    +0.000 N 
ATOM     19  C   UNL     1      48.776   6.474  15.352  0.00  0.00    +0.000 A 
ATOM     20  C   UNL     1      49.146   6.529  16.690  0.00  0.00    +0.000 A 
ATOM     21  C   UNL     1      48.759   5.495  17.549  0.00  0.00    +0.000 A 
ATOM     22  C   UNL     1      48.003   4.429  17.057  0.00  0.00    +0.000 A 
ATOM     23  C   UNL     1      47.681   4.452  15.712  0.00  0.00    +0.000 A 
ATOM     24  N   UNL     1      48.052   5.445  14.867  0.00  0.00    +0.000 NA
ATOM     25  H   UNL     1      48.874   8.385  14.851  0.00  0.00    +0.000 HD
BRANCH  22  26
ATOM     26  C   UNL     1      47.585   3.335  17.964  0.00  0.00    +0.000 C 
ATOM     27  N   UNL     1      48.276   3.137  19.125  0.00  0.00    +0.000 N 
ATOM     28  O   UNL     1      46.637   2.610  17.682  0.00  0.00    +0.000 OA
ATOM     29  H   UNL     1      49.063   3.670  19.456  0.00  0.00    +0.000 HD
ATOM     30  H   UNL     1      47.952   2.378  19.716  0.00  0.00    +0.000 HD
ENDBRANCH  22  26
ENDBRANCH  17  18
ENDBRANCH  16  17
ENDBRANCH   3  16
TORSDOF 7
ENDMDL
MODEL 8
REMARK VINA RESULT:    -6.185      3.393      5.828
REMARK INTER + INTRA:          -9.413
REMARK INTER:                  -8.967
REMARK INTRA:                  -0.446
REMARK UNBOUND:                -0.697
REMARK  Name = 
REMARK  8 active torsions:
REMARK  status: ('A' for Active; 'I' for Inactive)
REMARK    1  A    between atoms: C_1  and  S_2
REMARK    2  A    between atoms: S_2  and  C_3
REMARK    3  A    between atoms: C_5  and  C_6
REMARK    4  A    between atoms: C_6  and  C_7
REMARK    5  A    between atoms: C_7  and  N_8
REMARK    6  A    between atoms: C_12  and  C_13
REMARK    7  A    between atoms: C_19  and  N_20
REMARK    8  A    between atoms: N_20  and  C_21
REMARK                            x       y       z     vdW  Elec       q    Type
REMARK                         _______ _______ _______ _____ _____    ______ ____
ROOT
ATOM      1  C   UNL     1      49.342   6.250  19.363  0.00  0.00    +0.000 A 
ATOM      2  C   UNL     1      48.191   5.872  18.663  0.00  0.00    +0.000 A 
ATOM      3  C   UNL     1      48.167   4.668  17.945  0.00  0.00    +0.000 A 
ATOM      4  C   UNL     1      49.304   3.841  17.968  0.00  0.00    +0.000 A 
ATOM      5  C   UNL     1      50.449   4.187  18.685  0.00  0.00    +0.000 A 
ATOM      6  C   UNL     1      50.465   5.412  19.362  0.00  0.00    +0.000 A 
ENDROOT
BRANCH   1   8
ATOM      7  C   UNL     1      47.736   7.922  20.836  0.00  0.00    +0.000 C 
ATOM      8  S   UNL     1      49.419   7.839  20.175  0.00  0.00    +0.000 S 
ENDBRANCH   1   8
BRANCH   5   9
ATOM      9  N   UNL     1      51.608   3.378  18.699  0.00  0.00    +0.000 N 
ATOM     10  H   UNL     1      52.363   3.867  19.181  0.00  0.00    +0.000 HD
BRANCH   9  11
ATOM     11  C   UNL     1      52.075   2.570  17.596  0.00  0.00    +0.000 C 
ATOM     12  C   UNL     1      51.448   1.160  17.575  0.00  0.00    +0.000 C 
ATOM     13  N   UNL     1      52.786   0.564  17.415  0.00  0.00    +0.000 NA
ATOM     14  C   UNL     1      53.418   1.843  17.787  0.00  0.00    +0.000 C 
ATOM     15  H   UNL     1      52.986   0.269  16.459  0.00  0.00    +0.000 HD
ENDBRANCH   9  11
ENDBRANCH   5   9
BRANCH   3  16
ATOM     16  C   UNL     1      46.964   4.274  17.114  0.00  0.00    +0.000 C 
BRANCH  16  17
ATOM     17  C   UNL     1      47.329   4.083  15.641  0.00  0.00    +0.000 C 
BRANCH  17  18
ATOM     18  N   UNL     1      46.955   5.250  14.836  0.00  0.00    +0.000 N 
ATOM     19  C   UNL     1      46.292   4.867  13.653  0.00  0.00    +0.000 A 
ATOM     20  C   UNL     1      45.856   5.844  12.767  0.00  0.00    +0.000 A 
ATOM     21  C   UNL     1      45.170   5.461  11.610  0.00  0.00    +0.000 A 
ATOM     22  C   UNL     1      44.937   4.108  11.357  0.00  0.00    +0.000 A 
ATOM     23  C   UNL     1      45.402   3.201  12.292  0.00  0.00    +0.000 A 
ATOM     24  N   UNL     1      46.066   3.558  13.419  0.00  0.00    +0.000 NA
ATOM     25  H   UNL     1      47.758   5.819  14.580  0.00  0.00    +0.000 HD
BRANCH  22  26
ATOM     26  C   UNL     1      44.216   3.696  10.130  0.00  0.00    +0.000 C 
ATOM     27  N   UNL     1      43.913   4.641   9.191  0.00  0.00    +0.000 N 
ATOM     28  O   UNL     1      43.886   2.529   9.954  0.00  0.00    +0.000 OA
ATOM     29  H   UNL     1      44.136   5.622   9.230  0.00  0.00    +0.000 HD
ATOM     30  H   UNL     1      43.421   4.312   8.367  0.00  0.00    +0.000 HD
ENDBRANCH  22  26
ENDBRANCH  17  18
ENDBRANCH  16  17
ENDBRANCH   3  16
TORSDOF 7
ENDMDL
MODEL 9
REMARK VINA RESULT:    -6.147      3.556      5.730
REMARK INTER + INTRA:          -9.359
REMARK INTER:                  -8.858
REMARK INTRA:                  -0.502
REMARK UNBOUND:                -0.697
REMARK  Name = 
REMARK  8 active torsions:
REMARK  status: ('A' for Active; 'I' for Inactive)
REMARK    1  A    between atoms: C_1  and  S_2
REMARK    2  A    between atoms: S_2  and  C_3
REMARK    3  A    between atoms: C_5  and  C_6
REMARK    4  A    between atoms: C_6  and  C_7
REMARK    5  A    between atoms: C_7  and  N_8
REMARK    6  A    between atoms: C_12  and  C_13
REMARK    7  A    between atoms: C_19  and  N_20
REMARK    8  A    between atoms: N_20  and  C_21
REMARK                            x       y       z     vdW  Elec       q    Type
REMARK                         _______ _______ _______ _____ _____    ______ ____
ROOT
ATOM      1  C   UNL     1      52.364   6.169  16.739  0.00  0.00    +0.000 A 
ATOM      2  C   UNL     1      51.698   6.993  15.824  0.00  0.00    +0.000 A 
ATOM      3  C   UNL     1      50.305   6.916  15.692  0.00  0.00    +0.000 A 
ATOM      4  C   UNL     1      49.593   6.022  16.512  0.00  0.00    +0.000 A 
ATOM      5  C   UNL     1      50.237   5.215  17.450  0.00  0.00    +0.000 A 
ATOM      6  C   UNL     1      51.633   5.280  17.537  0.00  0.00    +0.000 A 
ENDROOT
BRANCH   1   8
ATOM      7  C   UNL     1      54.426   4.506  17.464  0.00  0.00    +0.000 C 
ATOM      8  S   UNL     1      54.149   6.175  16.820  0.00  0.00    +0.000 S 
ENDBRANCH   1   8
BRANCH   5   9
ATOM      9  N   UNL     1      49.539   4.295  18.266  0.00  0.00    +0.000 N 
ATOM     10  H   UNL     1      49.875   4.364  19.227  0.00  0.00    +0.000 HD
BRANCH   9  11
ATOM     11  C   UNL     1      49.185   2.947  17.888  0.00  0.00    +0.000 C 
ATOM     12  C   UNL     1      50.318   2.216  17.137  0.00  0.00    +0.000 C 
ATOM     13  N   UNL     1      49.365   1.809  16.090  0.00  0.00    +0.000 NA
ATOM     14  C   UNL     1      48.375   2.779  16.591  0.00  0.00    +0.000 C 
ATOM     15  H   UNL     1      49.066   0.836  16.171  0.00  0.00    +0.000 HD
ENDBRANCH   9  11
ENDBRANCH   5   9
BRANCH   3  16
ATOM     16  C   UNL     1      49.568   7.738  14.655  0.00  0.00    +0.000 C 
BRANCH  16  17
ATOM     17  C   UNL     1      48.147   7.220  14.426  0.00  0.00    +0.000 C 
BRANCH  17  18
ATOM     18  N   UNL     1      47.753   7.331  13.018  0.00  0.00    +0.000 N 
ATOM     19  C   UNL     1      46.832   6.325  12.661  0.00  0.00    +0.000 A 
ATOM     20  C   UNL     1      46.342   6.278  11.363  0.00  0.00    +0.000 A 
ATOM     21  C   UNL     1      45.403   5.298  11.022  0.00  0.00    +0.000 A 
ATOM     22  C   UNL     1      44.977   4.380  11.984  0.00  0.00    +0.000 A 
ATOM     23  C   UNL     1      45.514   4.500  13.252  0.00  0.00    +0.000 A 
ATOM     24  N   UNL     1      46.421   5.447  13.598  0.00  0.00    +0.000 NA
ATOM     25  H   UNL     1      48.548   7.272  12.386  0.00  0.00    +0.000 HD
BRANCH  22  26
ATOM     26  C   UNL     1      43.988   3.337  11.627  0.00  0.00    +0.000 C 
ATOM     27  N   UNL     1      43.752   2.320  12.507  0.00  0.00    +0.000 N 
ATOM     28  O   UNL     1      43.391   3.373  10.557  0.00  0.00    +0.000 OA
ATOM     29  H   UNL     1      44.180   2.192  13.410  0.00  0.00    +0.000 HD
ATOM     30  H   UNL     1      43.065   1.630  12.221  0.00  0.00    +0.000 HD
ENDBRANCH  22  26
ENDBRANCH  17  18
ENDBRANCH  16  17
ENDBRANCH   3  16
TORSDOF 7
ENDMDL
