MODEL 1
REMARK VINA RESULT:    -7.772      0.000      0.000
REMARK INTER + INTRA:         -12.018
REMARK INTER:                 -10.952
REMARK INTRA:                  -1.066
REMARK UNBOUND:                -1.066
REMARK  Name = 
REMARK  7 active torsions:
REMARK  status: ('A' for Active; 'I' for Inactive)
REMARK    1  A    between atoms: C_2  and  C_21
REMARK    2  A    between atoms: N_3  and  C_4
REMARK    3  A    between atoms: C_4  and  C_5
REMARK    4  A    between atoms: C_8  and  C_9
REMARK    5  A    between atoms: C_9  and  N_10
REMARK    6  A    between atoms: N_10  and  C_11
REMARK    7  A    between atoms: C_11  and  C_12
REMARK                            x       y       z     vdW  Elec       q    Type
REMARK                         _______ _______ _______ _____ _____    ______ ____
ROOT
ATOM      1  C   UNL     1      46.120   6.317  12.392  0.00  0.00    +0.000 A 
ATOM      2  C   UNL     1      46.126   6.237  10.994  0.00  0.00    +0.000 A 
ATOM      3  C   UNL     1      45.416   5.233  10.336  0.00  0.00    +0.000 A 
ATOM      4  C   UNL     1      44.682   4.286  11.063  0.00  0.00    +0.000 A 
ATOM      5  C   UNL     1      44.654   4.383  12.462  0.00  0.00    +0.000 A 
ATOM      6  C   UNL     1      45.359   5.394  13.120  0.00  0.00    +0.000 A 
ENDROOT
BRANCH   1   7
ATOM      7  C   UNL     1      46.910   7.397  13.082  0.00  0.00    +0.000 C 
BRANCH   7  10
ATOM      8  O   UNL     1      49.572   6.855  13.853  0.00  0.00    +0.000 OA
ATOM      9  C   UNL     1      48.675   6.763  14.687  0.00  0.00    +0.000 C 
ATOM     10  N   UNL     1      47.357   6.978  14.384  0.00  0.00    +0.000 N 
ATOM     11  H   UNL     1      46.687   7.089  15.137  0.00  0.00    +0.000 HD
BRANCH   9  12
ATOM     12  C   UNL     1      48.953   6.346  16.065  0.00  0.00    +0.000 A 
ATOM     13  C   UNL     1      49.683   7.173  16.908  0.00  0.00    +0.000 A 
ATOM     14  S   UNL     1      49.921   6.518  18.466  0.00  0.00    +0.000 S 
ATOM     15  C   UNL     1      49.026   5.125  18.077  0.00  0.00    +0.000 A 
ATOM     16  N   UNL     1      48.814   4.147  18.999  0.00  0.00    +0.000 NA
ATOM     17  C   UNL     1      48.093   3.163  18.579  0.00  0.00    +0.000 A 
ATOM     18  N   UNL     1      47.567   3.062  17.316  0.00  0.00    +0.000 N 
ATOM     19  C   UNL     1      47.816   3.986  16.331  0.00  0.00    +0.000 A 
ATOM     20  O   UNL     1      47.450   3.792  15.179  0.00  0.00    +0.000 OA
ATOM     21  C   UNL     1      48.580   5.140  16.769  0.00  0.00    +0.000 A 
ATOM     22  H   UNL     1      47.041   2.248  17.039  0.00  0.00    +0.000 HD
ENDBRANCH   9  12
ENDBRANCH   7  10
ENDBRANCH   1   7
BRANCH   4  23
ATOM     23  C   UNL     1      43.938   3.176  10.360  0.00  0.00    +0.000 C 
BRANCH  23  24
ATOM     24  N   UNL     1      44.368   2.931   8.987  0.00  0.00    +0.000 NA
ATOM     25  H   UNL     1      44.720   3.785   8.556  0.00  0.00    +0.000 HD
BRANCH  24  26
ATOM     26  C   UNL     1      45.419   1.907   8.885  0.00  0.00    +0.000 C 
BRANCH  26  27
ATOM     27  C   UNL     1      46.229   2.040   7.610  0.00  0.00    +0.000 A 
ATOM     28  N   UNL     1      46.326   3.284   7.044  0.00  0.00    +0.000 NA
ATOM     29  C   UNL     1      47.058   3.366   5.911  0.00  0.00    +0.000 A 
ATOM     30  C   UNL     1      47.702   2.269   5.366  0.00  0.00    +0.000 A 
ATOM     31  N   UNL     1      47.654   1.043   5.931  0.00  0.00    +0.000 NA
ATOM     32  C   UNL     1      46.912   0.954   7.060  0.00  0.00    +0.000 A 
ATOM     33 CL   UNL     1      46.919  -0.622   7.747  0.00  0.00    +0.000 Cl
ENDBRANCH  26  27
ENDBRANCH  24  26
ENDBRANCH  23  24
ENDBRANCH   4  23
TORSDOF 7
ENDMDL
MODEL 2
REMARK VINA RESULT:    -7.601      1.569      1.809
REMARK INTER + INTRA:         -11.778
REMARK INTER:                 -10.613
REMARK INTRA:                  -1.165
REMARK UNBOUND:                -1.066
REMARK  Name = 
REMARK  7 active torsions:
REMARK  status: ('A' for Active; 'I' for Inactive)
REMARK    1  A    between atoms: C_2  and  C_21
REMARK    2  A    between atoms: N_3  and  C_4
REMARK    3  A    between atoms: C_4  and  C_5
REMARK    4  A    between atoms: C_8  and  C_9
REMARK    5  A    between atoms: C_9  and  N_10
REMARK    6  A    between atoms: N_10  and  C_11
REMARK    7  A    between atoms: C_11  and  C_12
REMARK                            x       y       z     vdW  Elec       q    Type
REMARK                         _______ _______ _______ _____ _____    ______ ____
ROOT
ATOM      1  C   UNL     1      46.619   6.631  12.841  0.00  0.00    +0.000 A 
ATOM      2  C   UNL     1      45.722   6.913  11.802  0.00  0.00    +0.000 A 
ATOM      3  C   UNL     1      44.889   5.919  11.291  0.00  0.00    +0.000 A 
ATOM      4  C   UNL     1      44.933   4.617  11.809  0.00  0.00    +0.000 A 
ATOM      5  C   UNL     1      45.810   4.341  12.868  0.00  0.00    +0.000 A 
ATOM      6  C   UNL     1      46.639   5.340  13.384  0.00  0.00    +0.000 A 
ENDROOT
BRANCH   1   7
ATOM      7  C   UNL     1      47.523   7.714  13.363  0.00  0.00    +0.000 C 
BRANCH   7  10
ATOM      8  O   UNL     1      49.952   6.969  14.597  0.00  0.00    +0.000 OA
ATOM      9  C   UNL     1      48.980   7.235  15.298  0.00  0.00    +0.000 C 
ATOM     10  N   UNL     1      47.759   7.574  14.775  0.00  0.00    +0.000 N 
ATOM     11  H   UNL     1      47.055   7.977  15.383  0.00  0.00    +0.000 HD
BRANCH   9  12
ATOM     12  C   UNL     1      49.044   7.143  16.761  0.00  0.00    +0.000 A 
ATOM     13  C   UNL     1      49.378   8.260  17.514  0.00  0.00    +0.000 A 
ATOM     14  S   UNL     1      49.418   7.962  19.193  0.00  0.00    +0.000 S 
ATOM     15  C   UNL     1      48.954   6.340  18.972  0.00  0.00    +0.000 A 
ATOM     16  N   UNL     1      48.773   5.510  20.035  0.00  0.00    +0.000 NA
ATOM     17  C   UNL     1      48.391   4.318  19.724  0.00  0.00    +0.000 A 
ATOM     18  N   UNL     1      48.181   3.873  18.443  0.00  0.00    +0.000 N 
ATOM     19  C   UNL     1      48.424   4.649  17.337  0.00  0.00    +0.000 A 
ATOM     20  O   UNL     1      48.363   4.177  16.210  0.00  0.00    +0.000 OA
ATOM     21  C   UNL     1      48.805   6.019  17.636  0.00  0.00    +0.000 A 
ATOM     22  H   UNL     1      47.918   2.916  18.266  0.00  0.00    +0.000 HD
ENDBRANCH   9  12
ENDBRANCH   7  10
ENDBRANCH   1   7
BRANCH   4  23
ATOM     23  C   UNL     1      44.058   3.527  11.239  0.00  0.00    +0.000 C 
BRANCH  23  24
ATOM     24  N   UNL     1      44.787   2.394  10.679  0.00  0.00    +0.000 NA
ATOM     25  H   UNL     1      44.592   1.539  11.199  0.00  0.00    +0.000 HD
BRANCH  24  26
ATOM     26  C   UNL     1      44.469   2.144   9.264  0.00  0.00    +0.000 C 
BRANCH  26  27
ATOM     27  C   UNL     1      45.714   1.981   8.416  0.00  0.00    +0.000 A 
ATOM     28  N   UNL     1      46.132   0.705   8.137  0.00  0.00    +0.000 NA
ATOM     29  C   UNL     1      47.243   0.598   7.375  0.00  0.00    +0.000 A 
ATOM     30  C   UNL     1      47.906   1.703   6.874  0.00  0.00    +0.000 A 
ATOM     31  N   UNL     1      47.488   2.967   7.101  0.00  0.00    +0.000 NA
ATOM     32  C   UNL     1      46.381   3.081   7.874  0.00  0.00    +0.000 A 
ATOM     33 CL   UNL     1      45.881   4.711   8.097  0.00  0.00    +0.000 Cl
ENDBRANCH  26  27
ENDBRANCH  24  26
ENDBRANCH  23  24
ENDBRANCH   4  23
TORSDOF 7
ENDMDL
MODEL 3
REMARK VINA RESULT:    -7.519      2.360      3.052
REMARK INTER + INTRA:         -11.662
REMARK INTER:                 -10.543
REMARK INTRA:                  -1.118
REMARK UNBOUND:                -1.066
REMARK  Name = 
REMARK  7 active torsions:
REMARK  status: ('A' for Active; 'I' for Inactive)
REMARK    1  A    between atoms: C_2  and  C_21
REMARK    2  A    between atoms: N_3  and  C_4
REMARK    3  A    between atoms: C_4  and  C_5
REMARK    4  A    between atoms: C_8  and  C_9
REMARK    5  A    between atoms: C_9  and  N_10
REMARK    6  A    between atoms: N_10  and  C_11
REMARK    7  A    between atoms: C_11  and  C_12
REMARK                            x       y       z     vdW  Elec       q    Type
REMARK                         _______ _______ _______ _____ _____    ______ ____
ROOT
ATOM      1  C   UNL     1      47.186   6.266  13.223  0.00  0.00    +0.000 A 
ATOM      2  C   UNL     1      46.859   4.972  13.648  0.00  0.00    +0.000 A 
ATOM      3  C   UNL     1      45.954   4.194  12.928  0.00  0.00    +0.000 A 
ATOM      4  C   UNL     1      45.356   4.693  11.763  0.00  0.00    +0.000 A 
ATOM      5  C   UNL     1      45.704   5.977  11.322  0.00  0.00    +0.000 A 
ATOM      6  C   UNL     1      46.617   6.754  12.040  0.00  0.00    +0.000 A 
ENDROOT
BRANCH   1   7
ATOM      7  C   UNL     1      48.150   7.097  14.027  0.00  0.00    +0.000 C 
BRANCH   7  10
ATOM      8  O   UNL     1      50.304   6.444  15.733  0.00  0.00    +0.000 OA
ATOM      9  C   UNL     1      49.170   6.514  16.198  0.00  0.00    +0.000 C 
ATOM     10  N   UNL     1      48.070   6.793  15.431  0.00  0.00    +0.000 N 
ATOM     11  H   UNL     1      47.198   7.037  15.887  0.00  0.00    +0.000 HD
BRANCH   9  12
ATOM     12  C   UNL     1      48.906   6.232  17.613  0.00  0.00    +0.000 A 
ATOM     13  C   UNL     1      49.214   4.987  18.144  0.00  0.00    +0.000 A 
ATOM     14  S   UNL     1      48.825   4.836  19.798  0.00  0.00    +0.000 S 
ATOM     15  C   UNL     1      48.266   6.441  19.869  0.00  0.00    +0.000 A 
ATOM     16  N   UNL     1      47.808   6.974  21.034  0.00  0.00    +0.000 NA
ATOM     17  C   UNL     1      47.446   8.210  20.951  0.00  0.00    +0.000 A 
ATOM     18  N   UNL     1      47.491   8.963  19.806  0.00  0.00    +0.000 N 
ATOM     19  C   UNL     1      47.874   8.448  18.592  0.00  0.00    +0.000 A 
ATOM     20  O   UNL     1      47.766   9.107  17.566  0.00  0.00    +0.000 OA
ATOM     21  C   UNL     1      48.342   7.074  18.643  0.00  0.00    +0.000 A 
ATOM     22  H   UNL     1      47.159   9.915  19.800  0.00  0.00    +0.000 HD
ENDBRANCH   9  12
ENDBRANCH   7  10
ENDBRANCH   1   7
BRANCH   4  23
ATOM     23  C   UNL     1      44.349   3.869  10.996  0.00  0.00    +0.000 C 
BRANCH  23  24
ATOM     24  N   UNL     1      44.804   2.527  10.644  0.00  0.00    +0.000 NA
ATOM     25  H   UNL     1      44.399   1.828  11.267  0.00  0.00    +0.000 HD
BRANCH  24  26
ATOM     26  C   UNL     1      44.472   2.148   9.262  0.00  0.00    +0.000 C 
BRANCH  26  27
ATOM     27  C   UNL     1      45.707   1.980   8.400  0.00  0.00    +0.000 A 
ATOM     28  N   UNL     1      46.131   0.704   8.135  0.00  0.00    +0.000 NA
ATOM     29  C   UNL     1      47.232   0.592   7.360  0.00  0.00    +0.000 A 
ATOM     30  C   UNL     1      47.881   1.695   6.834  0.00  0.00    +0.000 A 
ATOM     31  N   UNL     1      47.456   2.959   7.048  0.00  0.00    +0.000 NA
ATOM     32  C   UNL     1      46.359   3.077   7.833  0.00  0.00    +0.000 A 
ATOM     33 CL   UNL     1      45.850   4.706   8.038  0.00  0.00    +0.000 Cl
ENDBRANCH  26  27
ENDBRANCH  24  26
ENDBRANCH  23  24
ENDBRANCH   4  23
TORSDOF 7
ENDMDL
MODEL 4
REMARK VINA RESULT:    -7.384      2.101      2.629
REMARK INTER + INTRA:         -11.471
REMARK INTER:                 -10.250
REMARK INTRA:                  -1.221
REMARK UNBOUND:                -1.066
REMARK  Name = 
REMARK  7 active torsions:
REMARK  status: ('A' for Active; 'I' for Inactive)
REMARK    1  A    between atoms: C_2  and  C_21
REMARK    2  A    between atoms: N_3  and  C_4
REMARK    3  A    between atoms: C_4  and  C_5
REMARK    4  A    between atoms: C_8  and  C_9
REMARK    5  A    between atoms: C_9  and  N_10
REMARK    6  A    between atoms: N_10  and  C_11
REMARK    7  A    between atoms: C_11  and  C_12
REMARK                            x       y       z     vdW  Elec       q    Type
REMARK                         _______ _______ _______ _____ _____    ______ ____
ROOT
ATOM      1  C   UNL     1      45.470   7.248  12.448  0.00  0.00    +0.000 A 
ATOM      2  C   UNL     1      46.014   6.102  13.041  0.00  0.00    +0.000 A 
ATOM      3  C   UNL     1      45.500   4.838  12.751  0.00  0.00    +0.000 A 
ATOM      4  C   UNL     1      44.430   4.693  11.856  0.00  0.00    +0.000 A 
ATOM      5  C   UNL     1      43.904   5.839  11.241  0.00  0.00    +0.000 A 
ATOM      6  C   UNL     1      44.425   7.103  11.527  0.00  0.00    +0.000 A 
ENDROOT
BRANCH   1   7
ATOM      7  C   UNL     1      46.027   8.603  12.792  0.00  0.00    +0.000 C 
BRANCH   7  10
ATOM      8  O   UNL     1      48.617   9.614  13.292  0.00  0.00    +0.000 OA
ATOM      9  C   UNL     1      47.974   9.126  14.217  0.00  0.00    +0.000 C 
ATOM     10  N   UNL     1      46.725   8.587  14.050  0.00  0.00    +0.000 N 
ATOM     11  H   UNL     1      46.160   8.385  14.867  0.00  0.00    +0.000 HD
BRANCH   9  12
ATOM     12  C   UNL     1      48.535   9.027  15.569  0.00  0.00    +0.000 A 
ATOM     13  C   UNL     1      48.760  10.177  16.314  0.00  0.00    +0.000 A 
ATOM     14  S   UNL     1      49.430   9.871  17.853  0.00  0.00    +0.000 S 
ATOM     15  C   UNL     1      49.407   8.190  17.589  0.00  0.00    +0.000 A 
ATOM     16  N   UNL     1      49.830   7.323  18.549  0.00  0.00    +0.000 NA
ATOM     17  C   UNL     1      49.728   6.078  18.227  0.00  0.00    +0.000 A 
ATOM     18  N   UNL     1      49.249   5.616  17.027  0.00  0.00    +0.000 N 
ATOM     19  C   UNL     1      48.883   6.453  16.002  0.00  0.00    +0.000 A 
ATOM     20  O   UNL     1      48.597   6.009  14.898  0.00  0.00    +0.000 OA
ATOM     21  C   UNL     1      48.929   7.867  16.333  0.00  0.00    +0.000 A 
ATOM     22  H   UNL     1      49.230   4.630  16.824  0.00  0.00    +0.000 HD
ENDBRANCH   9  12
ENDBRANCH   7  10
ENDBRANCH   1   7
BRANCH   4  23
ATOM     23  C   UNL     1      43.846   3.332  11.562  0.00  0.00    +0.000 C 
BRANCH  23  24
ATOM     24  N   UNL     1      44.735   2.436  10.828  0.00  0.00    +0.000 NA
ATOM     25  H   UNL     1      44.723   1.499  11.229  0.00  0.00    +0.000 HD
BRANCH  24  26
ATOM     26  C   UNL     1      44.391   2.321   9.402  0.00  0.00    +0.000 C 
BRANCH  26  27
ATOM     27  C   UNL     1      45.615   2.133   8.529  0.00  0.00    +0.000 A 
ATOM     28  N   UNL     1      45.980   0.850   8.212  0.00  0.00    +0.000 NA
ATOM     29  C   UNL     1      47.073   0.720   7.429  0.00  0.00    +0.000 A 
ATOM     30  C   UNL     1      47.770   1.813   6.944  0.00  0.00    +0.000 A 
ATOM     31  N   UNL     1      47.403   3.085   7.209  0.00  0.00    +0.000 NA
ATOM     32  C   UNL     1      46.314   3.221   8.003  0.00  0.00    +0.000 A 
ATOM     33 CL   UNL     1      45.880   4.862   8.275  0.00  0.00    +0.000 Cl
ENDBRANCH  26  27
ENDBRANCH  24  26
ENDBRANCH  23  24
ENDBRANCH   4  23
TORSDOF 7
ENDMDL
MODEL 5
REMARK VINA RESULT:    -7.154      5.084      9.885
REMARK INTER + INTRA:         -11.147
REMARK INTER:                 -10.290
REMARK INTRA:                  -0.857
REMARK UNBOUND:                -1.066
REMARK  Name = 
REMARK  7 active torsions:
REMARK  status: ('A' for Active; 'I' for Inactive)
REMARK    1  A    between atoms: C_2  and  C_21
REMARK    2  A    between atoms: N_3  and  C_4
REMARK    3  A    between atoms: C_4  and  C_5
REMARK    4  A    between atoms: C_8  and  C_9
REMARK    5  A    between atoms: C_9  and  N_10
REMARK    6  A    between atoms: N_10  and  C_11
REMARK    7  A    between atoms: C_11  and  C_12
REMARK                            x       y       z     vdW  Elec       q    Type
REMARK                         _______ _______ _______ _____ _____    ______ ____
ROOT
ATOM      1  C   UNL     1      48.665   3.356  17.170  0.00  0.00    +0.000 A 
ATOM      2  C   UNL     1      49.409   4.479  17.550  0.00  0.00    +0.000 A 
ATOM      3  C   UNL     1      50.783   4.382  17.770  0.00  0.00    +0.000 A 
ATOM      4  C   UNL     1      51.444   3.156  17.612  0.00  0.00    +0.000 A 
ATOM      5  C   UNL     1      50.704   2.037  17.205  0.00  0.00    +0.000 A 
ATOM      6  C   UNL     1      49.329   2.137  16.977  0.00  0.00    +0.000 A 
ENDROOT
BRANCH   1   7
ATOM      7  C   UNL     1      47.180   3.479  16.957  0.00  0.00    +0.000 C 
BRANCH   7  10
ATOM      8  O   UNL     1      47.318   2.967  14.183  0.00  0.00    +0.000 OA
ATOM      9  C   UNL     1      46.934   4.067  14.572  0.00  0.00    +0.000 C 
ATOM     10  N   UNL     1      46.870   4.403  15.899  0.00  0.00    +0.000 N 
ATOM     11  H   UNL     1      46.362   5.236  16.174  0.00  0.00    +0.000 HD
BRANCH   9  12
ATOM     12  C   UNL     1      46.578   5.130  13.627  0.00  0.00    +0.000 A 
ATOM     13  C   UNL     1      47.494   6.129  13.326  0.00  0.00    +0.000 A 
ATOM     14  S   UNL     1      46.902   7.286  12.222  0.00  0.00    +0.000 S 
ATOM     15  C   UNL     1      45.415   6.472  12.081  0.00  0.00    +0.000 A 
ATOM     16  N   UNL     1      44.441   6.929  11.249  0.00  0.00    +0.000 NA
ATOM     17  C   UNL     1      43.379   6.198  11.216  0.00  0.00    +0.000 A 
ATOM     18  N   UNL     1      43.196   5.051  11.947  0.00  0.00    +0.000 N 
ATOM     19  C   UNL     1      44.119   4.592  12.854  0.00  0.00    +0.000 A 
ATOM     20  O   UNL     1      43.864   3.648  13.590  0.00  0.00    +0.000 OA
ATOM     21  C   UNL     1      45.356   5.353  12.889  0.00  0.00    +0.000 A 
ATOM     22  H   UNL     1      42.326   4.544  11.903  0.00  0.00    +0.000 HD
ENDBRANCH   9  12
ENDBRANCH   7  10
ENDBRANCH   1   7
BRANCH   4  23
ATOM     23  C   UNL     1      52.925   3.035  17.881  0.00  0.00    +0.000 C 
BRANCH  23  24
ATOM     24  N   UNL     1      53.276   2.084  18.931  0.00  0.00    +0.000 NA
ATOM     25  H   UNL     1      52.692   1.250  18.880  0.00  0.00    +0.000 HD
BRANCH  24  26
ATOM     26  C   UNL     1      54.682   1.654  18.875  0.00  0.00    +0.000 C 
BRANCH  26  27
ATOM     27  C   UNL     1      54.830   0.153  19.020  0.00  0.00    +0.000 A 
ATOM     28  N   UNL     1      55.011  -0.350  20.283  0.00  0.00    +0.000 NA
ATOM     29  C   UNL     1      55.135  -1.693  20.375  0.00  0.00    +0.000 A 
ATOM     30  C   UNL     1      55.053  -2.520  19.269  0.00  0.00    +0.000 A 
ATOM     31  N   UNL     1      54.833  -2.049  18.023  0.00  0.00    +0.000 NA
ATOM     32  C   UNL     1      54.720  -0.703  17.923  0.00  0.00    +0.000 A 
ATOM     33 CL   UNL     1      54.408  -0.171  16.319  0.00  0.00    +0.000 Cl
ENDBRANCH  26  27
ENDBRANCH  24  26
ENDBRANCH  23  24
ENDBRANCH   4  23
TORSDOF 7
ENDMDL
MODEL 6
REMARK VINA RESULT:    -7.078      3.618      8.690
REMARK INTER + INTRA:         -11.040
REMARK INTER:                  -9.633
REMARK INTRA:                  -1.407
REMARK UNBOUND:                -1.066
REMARK  Name = 
REMARK  7 active torsions:
REMARK  status: ('A' for Active; 'I' for Inactive)
REMARK    1  A    between atoms: C_2  and  C_21
REMARK    2  A    between atoms: N_3  and  C_4
REMARK    3  A    between atoms: C_4  and  C_5
REMARK    4  A    between atoms: C_8  and  C_9
REMARK    5  A    between atoms: C_9  and  N_10
REMARK    6  A    between atoms: N_10  and  C_11
REMARK    7  A    between atoms: C_11  and  C_12
REMARK                            x       y       z     vdW  Elec       q    Type
REMARK                         _______ _______ _______ _____ _____    ______ ____
ROOT
ATOM      1  C   UNL     1      48.063   7.897  13.537  0.00  0.00    +0.000 A 
ATOM      2  C   UNL     1      47.727   8.994  14.341  0.00  0.00    +0.000 A 
ATOM      3  C   UNL     1      48.173   9.073  15.659  0.00  0.00    +0.000 A 
ATOM      4  C   UNL     1      48.969   8.055  16.204  0.00  0.00    +0.000 A 
ATOM      5  C   UNL     1      49.328   6.971  15.390  0.00  0.00    +0.000 A 
ATOM      6  C   UNL     1      48.887   6.896  14.067  0.00  0.00    +0.000 A 
ENDROOT
BRANCH   1   7
ATOM      7  C   UNL     1      47.553   7.823  12.123  0.00  0.00    +0.000 C 
BRANCH   7  10
ATOM      8  O   UNL     1      44.760   7.461  12.327  0.00  0.00    +0.000 OA
ATOM      9  C   UNL     1      45.463   6.517  11.976  0.00  0.00    +0.000 C 
ATOM     10  N   UNL     1      46.827   6.604  11.883  0.00  0.00    +0.000 N 
ATOM     11  H   UNL     1      47.338   5.873  11.401  0.00  0.00    +0.000 HD
BRANCH   9  12
ATOM     12  C   UNL     1      44.887   5.198  11.692  0.00  0.00    +0.000 A 
ATOM     13  C   UNL     1      44.180   4.523  12.677  0.00  0.00    +0.000 A 
ATOM     14  S   UNL     1      43.598   3.000  12.174  0.00  0.00    +0.000 S 
ATOM     15  C   UNL     1      44.239   3.209  10.613  0.00  0.00    +0.000 A 
ATOM     16  N   UNL     1      44.068   2.263   9.651  0.00  0.00    +0.000 NA
ATOM     17  C   UNL     1      44.578   2.565   8.506  0.00  0.00    +0.000 A 
ATOM     18  N   UNL     1      45.256   3.727   8.233  0.00  0.00    +0.000 N 
ATOM     19  C   UNL     1      45.519   4.676   9.190  0.00  0.00    +0.000 A 
ATOM     20  O   UNL     1      46.246   5.630   8.948  0.00  0.00    +0.000 OA
ATOM     21  C   UNL     1      44.918   4.406  10.485  0.00  0.00    +0.000 A 
ATOM     22  H   UNL     1      45.663   3.887   7.325  0.00  0.00    +0.000 HD
ENDBRANCH   9  12
ENDBRANCH   7  10
ENDBRANCH   1   7
BRANCH   4  23
ATOM     23  C   UNL     1      49.429   8.117  17.641  0.00  0.00    +0.000 C 
BRANCH  23  24
ATOM     24  N   UNL     1      48.619   7.336  18.572  0.00  0.00    +0.000 NA
ATOM     25  H   UNL     1      47.731   7.068  18.149  0.00  0.00    +0.000 HD
BRANCH  24  26
ATOM     26  C   UNL     1      49.288   6.110  19.033  0.00  0.00    +0.000 C 
BRANCH  26  27
ATOM     27  C   UNL     1      48.890   4.897  18.217  0.00  0.00    +0.000 A 
ATOM     28  N   UNL     1      47.552   4.678  18.012  0.00  0.00    +0.000 NA
ATOM     29  C   UNL     1      47.234   3.590  17.277  0.00  0.00    +0.000 A 
ATOM     30  C   UNL     1      48.196   2.758  16.733  0.00  0.00    +0.000 A 
ATOM     31  N   UNL     1      49.520   2.979  16.887  0.00  0.00    +0.000 NA
ATOM     32  C   UNL     1      49.844   4.062  17.632  0.00  0.00    +0.000 A 
ATOM     33 CL   UNL     1      51.541   4.306  17.762  0.00  0.00    +0.000 Cl
ENDBRANCH  26  27
ENDBRANCH  24  26
ENDBRANCH  23  24
ENDBRANCH   4  23
TORSDOF 7
ENDMDL
MODEL 7
REMARK VINA RESULT:    -7.067      2.470      3.030
REMARK INTER + INTRA:         -11.024
REMARK INTER:                 -10.015
REMARK INTRA:                  -1.009
REMARK UNBOUND:                -1.066
REMARK  Name = 
REMARK  7 active torsions:
REMARK  status: ('A' for Active; 'I' for Inactive)
REMARK    1  A    between atoms: C_2  and  C_21
REMARK    2  A    between atoms: N_3  and  C_4
REMARK    3  A    between atoms: C_4  and  C_5
REMARK    4  A    between atoms: C_8  and  C_9
REMARK    5  A    between atoms: C_9  and  N_10
REMARK    6  A    between atoms: N_10  and  C_11
REMARK    7  A    between atoms: C_11  and  C_12
REMARK                            x       y       z     vdW  Elec       q    Type
REMARK                         _______ _______ _______ _____ _____    ______ ____
ROOT
ATOM      1  C   UNL     1      46.922   4.753  14.107  0.00  0.00    +0.000 A 
ATOM      2  C   UNL     1      47.509   5.764  13.336  0.00  0.00    +0.000 A 
ATOM      3  C   UNL     1      46.941   6.157  12.125  0.00  0.00    +0.000 A 
ATOM      4  C   UNL     1      45.769   5.546  11.657  0.00  0.00    +0.000 A 
ATOM      5  C   UNL     1      45.166   4.553  12.442  0.00  0.00    +0.000 A 
ATOM      6  C   UNL     1      45.732   4.165  13.659  0.00  0.00    +0.000 A 
ENDROOT
BRANCH   1   7
ATOM      7  C   UNL     1      47.564   4.330  15.401  0.00  0.00    +0.000 C 
BRANCH   7  10
ATOM      8  O   UNL     1      49.763   5.892  16.239  0.00  0.00    +0.000 OA
ATOM      9  C   UNL     1      48.651   6.122  16.706  0.00  0.00    +0.000 C 
ATOM     10  N   UNL     1      47.542   5.389  16.375  0.00  0.00    +0.000 N 
ATOM     11  H   UNL     1      46.624   5.739  16.626  0.00  0.00    +0.000 HD
BRANCH   9  12
ATOM     12  C   UNL     1      48.447   7.167  17.715  0.00  0.00    +0.000 A 
ATOM     13  C   UNL     1      48.572   8.505  17.365  0.00  0.00    +0.000 A 
ATOM     14  S   UNL     1      48.316   9.576  18.667  0.00  0.00    +0.000 S 
ATOM     15  C   UNL     1      47.993   8.291  19.733  0.00  0.00    +0.000 A 
ATOM     16  N   UNL     1      47.663   8.522  21.033  0.00  0.00    +0.000 NA
ATOM     17  C   UNL     1      47.413   7.459  21.719  0.00  0.00    +0.000 A 
ATOM     18  N   UNL     1      47.470   6.179  21.227  0.00  0.00    +0.000 N 
ATOM     19  C   UNL     1      47.870   5.892  19.946  0.00  0.00    +0.000 A 
ATOM     20  O   UNL     1      48.046   4.736  19.584  0.00  0.00    +0.000 OA
ATOM     21  C   UNL     1      48.112   7.060  19.116  0.00  0.00    +0.000 A 
ATOM     22  H   UNL     1      47.297   5.388  21.827  0.00  0.00    +0.000 HD
ENDBRANCH   9  12
ENDBRANCH   7  10
ENDBRANCH   1   7
BRANCH   4  23
ATOM     23  C   UNL     1      45.166   5.943  10.331  0.00  0.00    +0.000 C 
BRANCH  23  24
ATOM     24  N   UNL     1      45.884   5.442   9.163  0.00  0.00    +0.000 NA
ATOM     25  H   UNL     1      46.763   5.001   9.434  0.00  0.00    +0.000 HD
BRANCH  24  26
ATOM     26  C   UNL     1      45.110   4.464   8.384  0.00  0.00    +0.000 C 
BRANCH  26  27
ATOM     27  C   UNL     1      45.946   3.271   7.966  0.00  0.00    +0.000 A 
ATOM     28  N   UNL     1      47.040   3.506   7.173  0.00  0.00    +0.000 NA
ATOM     29  C   UNL     1      47.764   2.420   6.824  0.00  0.00    +0.000 A 
ATOM     30  C   UNL     1      47.447   1.147   7.262  0.00  0.00    +0.000 A 
ATOM     31  N   UNL     1      46.399   0.898   8.078  0.00  0.00    +0.000 NA
ATOM     32  C   UNL     1      45.663   1.982   8.422  0.00  0.00    +0.000 A 
ATOM     33 CL   UNL     1      44.367   1.605   9.486  0.00  0.00    +0.000 Cl
ENDBRANCH  26  27
ENDBRANCH  24  26
ENDBRANCH  23  24
ENDBRANCH   4  23
TORSDOF 7
ENDMDL
MODEL 8
REMARK VINA RESULT:    -6.950      3.387      4.667
REMARK INTER + INTRA:         -10.860
REMARK INTER:                 -10.030
REMARK INTRA:                  -0.830
REMARK UNBOUND:                -1.066
REMARK  Name = 
REMARK  7 active torsions:
REMARK  status: ('A' for Active; 'I' for Inactive)
REMARK    1  A    between atoms: C_2  and  C_21
REMARK    2  A    between atoms: N_3  and  C_4
REMARK    3  A    between atoms: C_4  and  C_5
REMARK    4  A    between atoms: C_8  and  C_9
REMARK    5  A    between atoms: C_9  and  N_10
REMARK    6  A    between atoms: N_10  and  C_11
REMARK    7  A    between atoms: C_11  and  C_12
REMARK                            x       y       z     vdW  Elec       q    Type
REMARK                         _______ _______ _______ _____ _____    ______ ____
ROOT
ATOM      1  C   UNL     1      48.561   5.966  15.771  0.00  0.00    +0.000 A 
ATOM      2  C   UNL     1      48.342   6.482  14.487  0.00  0.00    +0.000 A 
ATOM      3  C   UNL     1      47.485   5.837  13.597  0.00  0.00    +0.000 A 
ATOM      4  C   UNL     1      46.824   4.659  13.973  0.00  0.00    +0.000 A 
ATOM      5  C   UNL     1      47.022   4.157  15.267  0.00  0.00    +0.000 A 
ATOM      6  C   UNL     1      47.875   4.808  16.161  0.00  0.00    +0.000 A 
ENDROOT
BRANCH   1   7
ATOM      7  C   UNL     1      49.507   6.668  16.708  0.00  0.00    +0.000 C 
BRANCH   7  10
ATOM      8  O   UNL     1      49.755   5.509  19.271  0.00  0.00    +0.000 OA
ATOM      9  C   UNL     1      50.591   5.247  18.411  0.00  0.00    +0.000 C 
ATOM     10  N   UNL     1      50.558   5.793  17.155  0.00  0.00    +0.000 N 
ATOM     11  H   UNL     1      51.142   5.397  16.428  0.00  0.00    +0.000 HD
BRANCH   9  12
ATOM     12  C   UNL     1      51.733   4.372  18.697  0.00  0.00    +0.000 A 
ATOM     13  C   UNL     1      52.754   4.811  19.529  0.00  0.00    +0.000 A 
ATOM     14  S   UNL     1      54.004   3.669  19.734  0.00  0.00    +0.000 S 
ATOM     15  C   UNL     1      53.206   2.536  18.747  0.00  0.00    +0.000 A 
ATOM     16  N   UNL     1      53.734   1.303  18.525  0.00  0.00    +0.000 NA
ATOM     17  C   UNL     1      53.009   0.535  17.785  0.00  0.00    +0.000 A 
ATOM     18  N   UNL     1      51.802   0.890  17.236  0.00  0.00    +0.000 N 
ATOM     19  C   UNL     1      51.266   2.146  17.370  0.00  0.00    +0.000 A 
ATOM     20  O   UNL     1      50.261   2.472  16.751  0.00  0.00    +0.000 OA
ATOM     21  C   UNL     1      52.020   3.033  18.240  0.00  0.00    +0.000 A 
ATOM     22  H   UNL     1      51.301   0.254  16.635  0.00  0.00    +0.000 HD
ENDBRANCH   9  12
ENDBRANCH   7  10
ENDBRANCH   1   7
BRANCH   4  23
ATOM     23  C   UNL     1      45.920   3.935  13.003  0.00  0.00    +0.000 C 
BRANCH  23  24
ATOM     24  N   UNL     1      44.499   4.004  13.331  0.00  0.00    +0.000 NA
ATOM     25  H   UNL     1      44.340   4.592  14.149  0.00  0.00    +0.000 HD
BRANCH  24  26
ATOM     26  C   UNL     1      43.677   4.530  12.230  0.00  0.00    +0.000 C 
BRANCH  26  27
ATOM     27  C   UNL     1      44.252   4.188  10.870  0.00  0.00    +0.000 A 
ATOM     28  N   UNL     1      43.891   2.990  10.309  0.00  0.00    +0.000 NA
ATOM     29  C   UNL     1      44.419   2.721   9.094  0.00  0.00    +0.000 A 
ATOM     30  C   UNL     1      45.249   3.609   8.435  0.00  0.00    +0.000 A 
ATOM     31  N   UNL     1      45.583   4.812   8.951  0.00  0.00    +0.000 NA
ATOM     32  C   UNL     1      45.066   5.082  10.173  0.00  0.00    +0.000 A 
ATOM     33 CL   UNL     1      45.501   6.639  10.758  0.00  0.00    +0.000 Cl
ENDBRANCH  26  27
ENDBRANCH  24  26
ENDBRANCH  23  24
ENDBRANCH   4  23
TORSDOF 7
ENDMDL
MODEL 9
REMARK VINA RESULT:    -6.932      3.905      8.533
REMARK INTER + INTRA:         -10.835
REMARK INTER:                  -9.618
REMARK INTRA:                  -1.217
REMARK UNBOUND:                -1.066
REMARK  Name = 
REMARK  7 active torsions:
REMARK  status: ('A' for Active; 'I' for Inactive)
REMARK    1  A    between atoms: C_2  and  C_21
REMARK    2  A    between atoms: N_3  and  C_4
REMARK    3  A    between atoms: C_4  and  C_5
REMARK    4  A    between atoms: C_8  and  C_9
REMARK    5  A    between atoms: C_9  and  N_10
REMARK    6  A    between atoms: N_10  and  C_11
REMARK    7  A    between atoms: C_11  and  C_12
REMARK                            x       y       z     vdW  Elec       q    Type
REMARK                         _______ _______ _______ _____ _____    ______ ____
ROOT
ATOM      1  C   UNL     1      48.382   7.867  13.778  0.00  0.00    +0.000 A 
ATOM      2  C   UNL     1      48.216   8.961  14.635  0.00  0.00    +0.000 A 
ATOM      3  C   UNL     1      48.305   8.802  16.018  0.00  0.00    +0.000 A 
ATOM      4  C   UNL     1      48.564   7.542  16.574  0.00  0.00    +0.000 A 
ATOM      5  C   UNL     1      48.758   6.451  15.714  0.00  0.00    +0.000 A 
ATOM      6  C   UNL     1      48.676   6.613  14.329  0.00  0.00    +0.000 A 
ENDROOT
BRANCH   1   7
ATOM      7  C   UNL     1      48.261   8.058  12.289  0.00  0.00    +0.000 C 
BRANCH   7  10
ATOM      8  O   UNL     1      45.475   7.907  11.853  0.00  0.00    +0.000 OA
ATOM      9  C   UNL     1      46.193   6.989  11.469  0.00  0.00    +0.000 C 
ATOM     10  N   UNL     1      47.548   6.972  11.671  0.00  0.00    +0.000 N 
ATOM     11  H   UNL     1      48.116   6.302  11.165  0.00  0.00    +0.000 HD
BRANCH   9  12
ATOM     12  C   UNL     1      45.631   5.800  10.818  0.00  0.00    +0.000 A 
ATOM     13  C   UNL     1      45.879   5.562   9.473  0.00  0.00    +0.000 A 
ATOM     14  S   UNL     1      45.133   4.145   8.884  0.00  0.00    +0.000 S 
ATOM     15  C   UNL     1      44.486   3.783  10.415  0.00  0.00    +0.000 A 
ATOM     16  N   UNL     1      43.747   2.659  10.617  0.00  0.00    +0.000 NA
ATOM     17  C   UNL     1      43.346   2.493  11.832  0.00  0.00    +0.000 A 
ATOM     18  N   UNL     1      43.608   3.355  12.867  0.00  0.00    +0.000 N 
ATOM     19  C   UNL     1      44.284   4.538  12.696  0.00  0.00    +0.000 A 
ATOM     20  O   UNL     1      44.376   5.349  13.608  0.00  0.00    +0.000 OA
ATOM     21  C   UNL     1      44.803   4.746  11.355  0.00  0.00    +0.000 A 
ATOM     22  H   UNL     1      43.235   3.186  13.787  0.00  0.00    +0.000 HD
ENDBRANCH   9  12
ENDBRANCH   7  10
ENDBRANCH   1   7
BRANCH   4  23
ATOM     23  C   UNL     1      48.629   7.355  18.071  0.00  0.00    +0.000 C 
BRANCH  23  24
ATOM     24  N   UNL     1      47.652   6.413  18.608  0.00  0.00    +0.000 NA
ATOM     25  H   UNL     1      47.152   5.936  17.858  0.00  0.00    +0.000 HD
BRANCH  24  26
ATOM     26  C   UNL     1      48.254   5.387  19.474  0.00  0.00    +0.000 C 
BRANCH  26  27
ATOM     27  C   UNL     1      49.244   4.514  18.728  0.00  0.00    +0.000 A 
ATOM     28  N   UNL     1      50.571   4.643  19.045  0.00  0.00    +0.000 NA
ATOM     29  C   UNL     1      51.424   3.847  18.364  0.00  0.00    +0.000 A 
ATOM     30  C   UNL     1      50.989   2.930  17.423  0.00  0.00    +0.000 A 
ATOM     31  N   UNL     1      49.683   2.757  17.127  0.00  0.00    +0.000 NA
ATOM     32  C   UNL     1      48.824   3.561  17.799  0.00  0.00    +0.000 A 
ATOM     33 CL   UNL     1      47.178   3.268  17.401  0.00  0.00    +0.000 Cl
ENDBRANCH  26  27
ENDBRANCH  24  26
ENDBRANCH  23  24
ENDBRANCH   4  23
TORSDOF 7
ENDMDL
