MODEL 1
REMARK VINA RESULT:    -8.348      0.000      0.000
REMARK INTER + INTRA:         -12.756
REMARK INTER:                 -11.765
REMARK INTRA:                  -0.991
REMARK UNBOUND:                -0.991
REMARK  Name = 
REMARK  8 active torsions:
REMARK  status: ('A' for Active; 'I' for Inactive)
REMARK    1  A    between atoms: C_1  and  C_2
REMARK    2  A    between atoms: C_6  and  C_7
REMARK    3  A    between atoms: C_7  and  N_8
REMARK    4  A    between atoms: N_8  and  C_9
REMARK    5  A    between atoms: C_9  and  C_10
REMARK    6  A    between atoms: C_13  and  C_14
REMARK    7  A    between atoms: C_14  and  N_15
REMARK    8  A    between atoms: C_16  and  C_18
REMARK                            x       y       z     vdW  Elec       q    Type
REMARK                         _______ _______ _______ _____ _____    ______ ____
ROOT
ATOM      1  C   UNL     1      44.609   5.580  11.706  0.00  0.00    +0.000 A 
ATOM      2  C   UNL     1      45.582   6.434  11.165  0.00  0.00    +0.000 A 
ATOM      3  C   UNL     1      46.772   6.684  11.853  0.00  0.00    +0.000 A 
ATOM      4  C   UNL     1      47.016   6.081  13.093  0.00  0.00    +0.000 A 
ATOM      5  C   UNL     1      46.027   5.259  13.650  0.00  0.00    +0.000 A 
ATOM      6  C   UNL     1      44.839   5.006  12.963  0.00  0.00    +0.000 A 
ENDROOT
BRANCH   1   7
ATOM      7  C   UNL     1      43.348   5.265  10.934  0.00  0.00    +0.000 C 
BRANCH   7   8
ATOM      8  N   UNL     1      43.603   4.573   9.669  0.00  0.00    +0.000 NA
ATOM      9  H   UNL     1      42.716   4.447   9.177  0.00  0.00    +0.000 HD
BRANCH   8  10
ATOM     10  C   UNL     1      44.166   3.231   9.878  0.00  0.00    +0.000 C 
BRANCH  10  16
ATOM     11  C   UNL     1      46.920  -0.111   7.641  0.00  0.00    +0.000 C 
ATOM     12  C   UNL     1      46.552   1.335   7.783  0.00  0.00    +0.000 A 
ATOM     13  C   UNL     1      47.178   2.312   7.016  0.00  0.00    +0.000 A 
ATOM     14  C   UNL     1      46.806   3.641   7.191  0.00  0.00    +0.000 A 
ATOM     15  C   UNL     1      45.828   3.956   8.125  0.00  0.00    +0.000 A 
ATOM     16  C   UNL     1      45.252   2.926   8.867  0.00  0.00    +0.000 A 
ATOM     17  N   UNL     1      45.594   1.624   8.696  0.00  0.00    +0.000 NA
ENDBRANCH  10  16
ENDBRANCH   8  10
ENDBRANCH   7   8
ENDBRANCH   1   7
BRANCH   4  18
ATOM     18  C   UNL     1      48.301   6.335  13.837  0.00  0.00    +0.000 C 
BRANCH  18  19
ATOM     19  N   UNL     1      48.051   6.605  15.229  0.00  0.00    +0.000 N 
ATOM     20  C   UNL     1      49.025   6.428  16.177  0.00  0.00    +0.000 C 
ATOM     21  O   UNL     1      50.164   6.074  15.882  0.00  0.00    +0.000 OA
ATOM     22  H   UNL     1      47.079   6.679  15.514  0.00  0.00    +0.000 HD
BRANCH  20  23
ATOM     23  C   UNL     1      48.654   6.744  17.561  0.00  0.00    +0.000 A 
ATOM     24  C   UNL     1      48.309   8.045  17.903  0.00  0.00    +0.000 A 
ATOM     25  S   UNL     1      47.864   8.227  19.539  0.00  0.00    +0.000 S 
ATOM     26  C   UNL     1      48.169   6.585  19.861  0.00  0.00    +0.000 A 
ATOM     27  N   UNL     1      48.010   6.077  21.114  0.00  0.00    +0.000 NA
ATOM     28  C   UNL     1      48.303   4.824  21.220  0.00  0.00    +0.000 A 
ATOM     29  N   UNL     1      48.732   4.028  20.189  0.00  0.00    +0.000 N 
ATOM     30  C   UNL     1      48.874   4.490  18.901  0.00  0.00    +0.000 A 
ATOM     31  O   UNL     1      49.213   3.740  17.992  0.00  0.00    +0.000 OA
ATOM     32  C   UNL     1      48.576   5.899  18.730  0.00  0.00    +0.000 A 
ATOM     33  H   UNL     1      48.933   3.053  20.336  0.00  0.00    +0.000 HD
ENDBRANCH  20  23
ENDBRANCH  18  19
ENDBRANCH   4  18
TORSDOF 7
ENDMDL
MODEL 2
REMARK VINA RESULT:    -8.018      1.354      1.575
REMARK INTER + INTRA:         -12.291
REMARK INTER:                 -11.350
REMARK INTRA:                  -0.941
REMARK UNBOUND:                -0.991
REMARK  Name = 
REMARK  8 active torsions:
REMARK  status: ('A' for Active; 'I' for Inactive)
REMARK    1  A    between atoms: C_1  and  C_2
REMARK    2  A    between atoms: C_6  and  C_7
REMARK    3  A    between atoms: C_7  and  N_8
REMARK    4  A    between atoms: N_8  and  C_9
REMARK    5  A    between atoms: C_9  and  C_10
REMARK    6  A    between atoms: C_13  and  C_14
REMARK    7  A    between atoms: C_14  and  N_15
REMARK    8  A    between atoms: C_16  and  C_18
REMARK                            x       y       z     vdW  Elec       q    Type
REMARK                         _______ _______ _______ _____ _____    ______ ____
ROOT
ATOM      1  C   UNL     1      44.362   5.987  11.643  0.00  0.00    +0.000 A 
ATOM      2  C   UNL     1      44.358   7.390  11.623  0.00  0.00    +0.000 A 
ATOM      3  C   UNL     1      45.383   8.115  12.235  0.00  0.00    +0.000 A 
ATOM      4  C   UNL     1      46.437   7.451  12.877  0.00  0.00    +0.000 A 
ATOM      5  C   UNL     1      46.420   6.051  12.931  0.00  0.00    +0.000 A 
ATOM      6  C   UNL     1      45.397   5.326  12.316  0.00  0.00    +0.000 A 
ENDROOT
BRANCH   1   7
ATOM      7  C   UNL     1      43.284   5.204  10.930  0.00  0.00    +0.000 C 
BRANCH   7   8
ATOM      8  N   UNL     1      43.724   4.650   9.648  0.00  0.00    +0.000 NA
ATOM      9  H   UNL     1      42.939   4.666   8.995  0.00  0.00    +0.000 HD
BRANCH   8  10
ATOM     10  C   UNL     1      44.146   3.247   9.768  0.00  0.00    +0.000 C 
BRANCH  10  16
ATOM     11  C   UNL     1      46.907  -0.156   7.635  0.00  0.00    +0.000 C 
ATOM     12  C   UNL     1      46.546   1.293   7.742  0.00  0.00    +0.000 A 
ATOM     13  C   UNL     1      47.185   2.251   6.962  0.00  0.00    +0.000 A 
ATOM     14  C   UNL     1      46.818   3.585   7.104  0.00  0.00    +0.000 A 
ATOM     15  C   UNL     1      45.831   3.925   8.020  0.00  0.00    +0.000 A 
ATOM     16  C   UNL     1      45.242   2.915   8.776  0.00  0.00    +0.000 A 
ATOM     17  N   UNL     1      45.579   1.607   8.638  0.00  0.00    +0.000 NA
ENDBRANCH  10  16
ENDBRANCH   8  10
ENDBRANCH   7   8
ENDBRANCH   1   7
BRANCH   4  18
ATOM     18  C   UNL     1      47.553   8.224  13.530  0.00  0.00    +0.000 C 
BRANCH  18  19
ATOM     19  N   UNL     1      47.812   7.737  14.861  0.00  0.00    +0.000 N 
ATOM     20  C   UNL     1      48.991   7.112  15.174  0.00  0.00    +0.000 C 
ATOM     21  O   UNL     1      49.895   6.976  14.353  0.00  0.00    +0.000 OA
ATOM     22  H   UNL     1      47.012   7.639  15.477  0.00  0.00    +0.000 HD
BRANCH  20  23
ATOM     23  C   UNL     1      49.144   6.666  16.564  0.00  0.00    +0.000 A 
ATOM     24  C   UNL     1      49.718   7.515  17.501  0.00  0.00    +0.000 A 
ATOM     25  S   UNL     1      49.779   6.857  19.073  0.00  0.00    +0.000 S 
ATOM     26  C   UNL     1      49.089   5.393  18.546  0.00  0.00    +0.000 A 
ATOM     27  N   UNL     1      48.889   4.363  19.412  0.00  0.00    +0.000 NA
ATOM     28  C   UNL     1      48.384   3.304  18.871  0.00  0.00    +0.000 A 
ATOM     29  N   UNL     1      48.053   3.183  17.546  0.00  0.00    +0.000 N 
ATOM     30  C   UNL     1      48.206   4.209  16.642  0.00  0.00    +0.000 A 
ATOM     31  O   UNL     1      47.856   4.083  15.474  0.00  0.00    +0.000 OA
ATOM     32  C   UNL     1      48.789   5.416  17.195  0.00  0.00    +0.000 A 
ATOM     33  H   UNL     1      47.651   2.332  17.188  0.00  0.00    +0.000 HD
ENDBRANCH  20  23
ENDBRANCH  18  19
ENDBRANCH   4  18
TORSDOF 7
ENDMDL
MODEL 3
REMARK VINA RESULT:    -7.416      1.639      2.535
REMARK INTER + INTRA:         -11.442
REMARK INTER:                 -10.449
REMARK INTRA:                  -0.993
REMARK UNBOUND:                -0.991
REMARK  Name = 
REMARK  8 active torsions:
REMARK  status: ('A' for Active; 'I' for Inactive)
REMARK    1  A    between atoms: C_1  and  C_2
REMARK    2  A    between atoms: C_6  and  C_7
REMARK    3  A    between atoms: C_7  and  N_8
REMARK    4  A    between atoms: N_8  and  C_9
REMARK    5  A    between atoms: C_9  and  C_10
REMARK    6  A    between atoms: C_13  and  C_14
REMARK    7  A    between atoms: C_14  and  N_15
REMARK    8  A    between atoms: C_16  and  C_18
REMARK                            x       y       z     vdW  Elec       q    Type
REMARK                         _______ _______ _______ _____ _____    ______ ____
ROOT
ATOM      1  C   UNL     1      45.010   5.346  11.676  0.00  0.00    +0.000 A 
ATOM      2  C   UNL     1      45.799   6.434  11.275  0.00  0.00    +0.000 A 
ATOM      3  C   UNL     1      46.906   6.829  12.031  0.00  0.00    +0.000 A 
ATOM      4  C   UNL     1      47.249   6.140  13.201  0.00  0.00    +0.000 A 
ATOM      5  C   UNL     1      46.438   5.078  13.621  0.00  0.00    +0.000 A 
ATOM      6  C   UNL     1      45.334   4.680  12.865  0.00  0.00    +0.000 A 
ENDROOT
BRANCH   1   7
ATOM      7  C   UNL     1      43.849   4.884  10.826  0.00  0.00    +0.000 C 
BRANCH   7   8
ATOM      8  N   UNL     1      44.169   3.723   9.991  0.00  0.00    +0.000 NA
ATOM      9  H   UNL     1      44.924   3.197  10.434  0.00  0.00    +0.000 HD
BRANCH   8  10
ATOM     10  C   UNL     1      44.652   4.118   8.660  0.00  0.00    +0.000 C 
BRANCH  10  16
ATOM     11  C   UNL     1      47.511   2.688   4.980  0.00  0.00    +0.000 C 
ATOM     12  C   UNL     1      46.870   2.344   6.290  0.00  0.00    +0.000 A 
ATOM     13  C   UNL     1      47.057   1.096   6.874  0.00  0.00    +0.000 A 
ATOM     14  C   UNL     1      46.434   0.823   8.088  0.00  0.00    +0.000 A 
ATOM     15  C   UNL     1      45.643   1.799   8.679  0.00  0.00    +0.000 A 
ATOM     16  C   UNL     1      45.490   3.023   8.032  0.00  0.00    +0.000 A 
ATOM     17  N   UNL     1      46.103   3.308   6.855  0.00  0.00    +0.000 NA
ENDBRANCH  10  16
ENDBRANCH   8  10
ENDBRANCH   7   8
ENDBRANCH   1   7
BRANCH   4  18
ATOM     18  C   UNL     1      48.447   6.551  14.017  0.00  0.00    +0.000 C 
BRANCH  18  19
ATOM     19  N   UNL     1      48.102   6.700  15.408  0.00  0.00    +0.000 N 
ATOM     20  C   UNL     1      48.965   6.317  16.401  0.00  0.00    +0.000 C 
ATOM     21  O   UNL     1      50.084   5.874  16.157  0.00  0.00    +0.000 OA
ATOM     22  H   UNL     1      47.121   6.849  15.623  0.00  0.00    +0.000 HD
BRANCH  20  23
ATOM     23  C   UNL     1      48.506   6.525  17.779  0.00  0.00    +0.000 A 
ATOM     24  C   UNL     1      48.428   5.446  18.651  0.00  0.00    +0.000 A 
ATOM     25  S   UNL     1      47.919   5.871  20.221  0.00  0.00    +0.000 S 
ATOM     26  C   UNL     1      47.734   7.503  19.780  0.00  0.00    +0.000 A 
ATOM     27  N   UNL     1      47.285   8.424  20.676  0.00  0.00    +0.000 NA
ATOM     28  C   UNL     1      47.166   9.617  20.197  0.00  0.00    +0.000 A 
ATOM     29  N   UNL     1      47.461   9.979  18.908  0.00  0.00    +0.000 N 
ATOM     30  C   UNL     1      47.949   9.089  17.978  0.00  0.00    +0.000 A 
ATOM     31  O   UNL     1      48.248   9.455  16.846  0.00  0.00    +0.000 OA
ATOM     32  C   UNL     1      48.083   7.728  18.459  0.00  0.00    +0.000 A 
ATOM     33  H   UNL     1      47.358  10.931  18.599  0.00  0.00    +0.000 HD
ENDBRANCH  20  23
ENDBRANCH  18  19
ENDBRANCH   4  18
TORSDOF 7
ENDMDL
MODEL 4
REMARK VINA RESULT:    -7.371      3.447      8.423
REMARK INTER + INTRA:         -11.379
REMARK INTER:                  -9.906
REMARK INTRA:                  -1.473
REMARK UNBOUND:                -0.991
REMARK  Name = 
REMARK  8 active torsions:
REMARK  status: ('A' for Active; 'I' for Inactive)
REMARK    1  A    between atoms: C_1  and  C_2
REMARK    2  A    between atoms: C_6  and  C_7
REMARK    3  A    between atoms: C_7  and  N_8
REMARK    4  A    between atoms: N_8  and  C_9
REMARK    5  A    between atoms: C_9  and  C_10
REMARK    6  A    between atoms: C_13  and  C_14
REMARK    7  A    between atoms: C_14  and  N_15
REMARK    8  A    between atoms: C_16  and  C_18
REMARK                            x       y       z     vdW  Elec       q    Type
REMARK                         _______ _______ _______ _____ _____    ______ ____
ROOT
ATOM      1  C   UNL     1      48.586   7.791  16.374  0.00  0.00    +0.000 A 
ATOM      2  C   UNL     1      48.285   9.021  15.769  0.00  0.00    +0.000 A 
ATOM      3  C   UNL     1      48.211   9.131  14.377  0.00  0.00    +0.000 A 
ATOM      4  C   UNL     1      48.432   8.013  13.564  0.00  0.00    +0.000 A 
ATOM      5  C   UNL     1      48.770   6.794  14.167  0.00  0.00    +0.000 A 
ATOM      6  C   UNL     1      48.841   6.682  15.558  0.00  0.00    +0.000 A 
ENDROOT
BRANCH   1   7
ATOM      7  C   UNL     1      48.608   7.661  17.880  0.00  0.00    +0.000 C 
BRANCH   7   8
ATOM      8  N   UNL     1      47.516   6.837  18.404  0.00  0.00    +0.000 NA
ATOM      9  H   UNL     1      46.946   7.406  19.033  0.00  0.00    +0.000 HD
BRANCH   8  10
ATOM     10  C   UNL     1      48.014   5.701  19.195  0.00  0.00    +0.000 C 
BRANCH  10  16
ATOM     11  C   UNL     1      51.396   2.586  17.579  0.00  0.00    +0.000 C 
ATOM     12  C   UNL     1      49.963   3.023  17.550  0.00  0.00    +0.000 A 
ATOM     13  C   UNL     1      49.029   2.365  16.758  0.00  0.00    +0.000 A 
ATOM     14  C   UNL     1      47.712   2.814  16.760  0.00  0.00    +0.000 A 
ATOM     15  C   UNL     1      47.368   3.905  17.547  0.00  0.00    +0.000 A 
ATOM     16  C   UNL     1      48.358   4.522  18.308  0.00  0.00    +0.000 A 
ATOM     17  N   UNL     1      49.644   4.086  18.326  0.00  0.00    +0.000 NA
ENDBRANCH  10  16
ENDBRANCH   8  10
ENDBRANCH   7   8
ENDBRANCH   1   7
BRANCH   4  18
ATOM     18  C   UNL     1      48.342   8.119  12.064  0.00  0.00    +0.000 C 
BRANCH  18  19
ATOM     19  N   UNL     1      47.634   6.995  11.505  0.00  0.00    +0.000 N 
ATOM     20  C   UNL     1      46.266   6.986  11.421  0.00  0.00    +0.000 C 
ATOM     21  O   UNL     1      45.584   7.945  11.774  0.00  0.00    +0.000 OA
ATOM     22  H   UNL     1      48.149   6.126  11.419  0.00  0.00    +0.000 HD
BRANCH  20  23
ATOM     23  C   UNL     1      45.657   5.791  10.826  0.00  0.00    +0.000 A 
ATOM     24  C   UNL     1      45.797   5.550   9.465  0.00  0.00    +0.000 A 
ATOM     25  S   UNL     1      45.067   4.098   8.950  0.00  0.00    +0.000 S 
ATOM     26  C   UNL     1      44.492   3.765  10.516  0.00  0.00    +0.000 A 
ATOM     27  N   UNL     1      43.744   2.657  10.766  0.00  0.00    +0.000 NA
ATOM     28  C   UNL     1      43.353   2.545  11.992  0.00  0.00    +0.000 A 
ATOM     29  N   UNL     1      43.647   3.434  12.993  0.00  0.00    +0.000 N 
ATOM     30  C   UNL     1      44.427   4.551  12.793  0.00  0.00    +0.000 A 
ATOM     31  O   UNL     1      44.710   5.300  13.721  0.00  0.00    +0.000 OA
ATOM     32  C   UNL     1      44.876   4.734  11.427  0.00  0.00    +0.000 A 
ATOM     33  H   UNL     1      43.320   3.284  13.934  0.00  0.00    +0.000 HD
ENDBRANCH  20  23
ENDBRANCH  18  19
ENDBRANCH   4  18
TORSDOF 7
ENDMDL
MODEL 5
REMARK VINA RESULT:    -7.216      3.302      8.846
REMARK INTER + INTRA:         -11.160
REMARK INTER:                  -9.551
REMARK INTRA:                  -1.609
REMARK UNBOUND:                -0.991
REMARK  Name = 
REMARK  8 active torsions:
REMARK  status: ('A' for Active; 'I' for Inactive)
REMARK    1  A    between atoms: C_1  and  C_2
REMARK    2  A    between atoms: C_6  and  C_7
REMARK    3  A    between atoms: C_7  and  N_8
REMARK    4  A    between atoms: N_8  and  C_9
REMARK    5  A    between atoms: C_9  and  C_10
REMARK    6  A    between atoms: C_13  and  C_14
REMARK    7  A    between atoms: C_14  and  N_15
REMARK    8  A    between atoms: C_16  and  C_18
REMARK                            x       y       z     vdW  Elec       q    Type
REMARK                         _______ _______ _______ _____ _____    ______ ____
ROOT
ATOM      1  C   UNL     1      49.571   8.295  15.705  0.00  0.00    +0.000 A 
ATOM      2  C   UNL     1      50.156   7.468  14.734  0.00  0.00    +0.000 A 
ATOM      3  C   UNL     1      49.583   7.342  13.466  0.00  0.00    +0.000 A 
ATOM      4  C   UNL     1      48.415   8.044  13.142  0.00  0.00    +0.000 A 
ATOM      5  C   UNL     1      47.810   8.839  14.123  0.00  0.00    +0.000 A 
ATOM      6  C   UNL     1      48.384   8.968  15.390  0.00  0.00    +0.000 A 
ENDROOT
BRANCH   1   7
ATOM      7  C   UNL     1      50.224   8.476  17.056  0.00  0.00    +0.000 C 
BRANCH   7   8
ATOM      8  N   UNL     1      50.421   7.215  17.775  0.00  0.00    +0.000 NA
ATOM      9  H   UNL     1      50.619   6.476  17.099  0.00  0.00    +0.000 HD
BRANCH   8  10
ATOM     10  C   UNL     1      49.215   6.805  18.510  0.00  0.00    +0.000 C 
BRANCH  10  16
ATOM     11  C   UNL     1      47.063   4.302  14.924  0.00  0.00    +0.000 C 
ATOM     12  C   UNL     1      47.681   4.277  16.288  0.00  0.00    +0.000 A 
ATOM     13  C   UNL     1      47.760   3.096  17.018  0.00  0.00    +0.000 A 
ATOM     14  C   UNL     1      48.335   3.126  18.284  0.00  0.00    +0.000 A 
ATOM     15  C   UNL     1      48.810   4.331  18.785  0.00  0.00    +0.000 A 
ATOM     16  C   UNL     1      48.688   5.478  18.004  0.00  0.00    +0.000 A 
ATOM     17  N   UNL     1      48.141   5.460  16.761  0.00  0.00    +0.000 NA
ENDBRANCH  10  16
ENDBRANCH   8  10
ENDBRANCH   7   8
ENDBRANCH   1   7
BRANCH   4  18
ATOM     18  C   UNL     1      47.796   7.923  11.773  0.00  0.00    +0.000 C 
BRANCH  18  19
ATOM     19  N   UNL     1      47.050   6.697  11.647  0.00  0.00    +0.000 N 
ATOM     20  C   UNL     1      45.683   6.682  11.746  0.00  0.00    +0.000 C 
ATOM     21  O   UNL     1      45.029   7.710  11.901  0.00  0.00    +0.000 OA
ATOM     22  H   UNL     1      47.571   5.832  11.742  0.00  0.00    +0.000 HD
BRANCH  20  23
ATOM     23  C   UNL     1      45.033   5.375  11.592  0.00  0.00    +0.000 A 
ATOM     24  C   UNL     1      44.341   4.819  12.660  0.00  0.00    +0.000 A 
ATOM     25  S   UNL     1      43.612   3.321  12.297  0.00  0.00    +0.000 S 
ATOM     26  C   UNL     1      44.239   3.336  10.716  0.00  0.00    +0.000 A 
ATOM     27  N   UNL     1      44.008   2.303   9.861  0.00  0.00    +0.000 NA
ATOM     28  C   UNL     1      44.567   2.434   8.705  0.00  0.00    +0.000 A 
ATOM     29  N   UNL     1      45.330   3.506   8.319  0.00  0.00    +0.000 N 
ATOM     30  C   UNL     1      45.562   4.588   9.138  0.00  0.00    +0.000 A 
ATOM     31  O   UNL     1      46.209   5.553   8.745  0.00  0.00    +0.000 OA
ATOM     32  C   UNL     1      44.972   4.482  10.458  0.00  0.00    +0.000 A 
ATOM     33  H   UNL     1      45.730   3.554   7.397  0.00  0.00    +0.000 HD
ENDBRANCH  20  23
ENDBRANCH  18  19
ENDBRANCH   4  18
TORSDOF 7
ENDMDL
MODEL 6
REMARK VINA RESULT:    -7.194      4.936      9.792
REMARK INTER + INTRA:         -11.129
REMARK INTER:                 -10.268
REMARK INTRA:                  -0.862
REMARK UNBOUND:                -0.991
REMARK  Name = 
REMARK  8 active torsions:
REMARK  status: ('A' for Active; 'I' for Inactive)
REMARK    1  A    between atoms: C_1  and  C_2
REMARK    2  A    between atoms: C_6  and  C_7
REMARK    3  A    between atoms: C_7  and  N_8
REMARK    4  A    between atoms: N_8  and  C_9
REMARK    5  A    between atoms: C_9  and  C_10
REMARK    6  A    between atoms: C_13  and  C_14
REMARK    7  A    between atoms: C_14  and  N_15
REMARK    8  A    between atoms: C_16  and  C_18
REMARK                            x       y       z     vdW  Elec       q    Type
REMARK                         _______ _______ _______ _____ _____    ______ ____
ROOT
ATOM      1  C   UNL     1      51.515   3.502  17.848  0.00  0.00    +0.000 A 
ATOM      2  C   UNL     1      50.756   4.672  18.004  0.00  0.00    +0.000 A 
ATOM      3  C   UNL     1      49.389   4.679  17.710  0.00  0.00    +0.000 A 
ATOM      4  C   UNL     1      48.754   3.515  17.259  0.00  0.00    +0.000 A 
ATOM      5  C   UNL     1      49.521   2.358  17.067  0.00  0.00    +0.000 A 
ATOM      6  C   UNL     1      50.886   2.349  17.363  0.00  0.00    +0.000 A 
ENDROOT
BRANCH   1   7
ATOM      7  C   UNL     1      52.980   3.481  18.221  0.00  0.00    +0.000 C 
BRANCH   7   8
ATOM      8  N   UNL     1      53.279   2.578  19.335  0.00  0.00    +0.000 NA
ATOM      9  H   UNL     1      53.168   3.089  20.213  0.00  0.00    +0.000 HD
BRANCH   8  10
ATOM     10  C   UNL     1      54.669   2.098  19.298  0.00  0.00    +0.000 C 
BRANCH  10  16
ATOM     11  C   UNL     1      54.210  -2.754  19.329  0.00  0.00    +0.000 C 
ATOM     12  C   UNL     1      54.541  -1.521  18.545  0.00  0.00    +0.000 A 
ATOM     13  C   UNL     1      54.914  -1.600  17.208  0.00  0.00    +0.000 A 
ATOM     14  C   UNL     1      55.219  -0.426  16.526  0.00  0.00    +0.000 A 
ATOM     15  C   UNL     1      55.148   0.787  17.197  0.00  0.00    +0.000 A 
ATOM     16  C   UNL     1      54.778   0.790  18.541  0.00  0.00    +0.000 A 
ATOM     17  N   UNL     1      54.464  -0.345  19.214  0.00  0.00    +0.000 NA
ENDBRANCH  10  16
ENDBRANCH   8  10
ENDBRANCH   7   8
ENDBRANCH   1   7
BRANCH   4  18
ATOM     18  C   UNL     1      47.279   3.509  16.951  0.00  0.00    +0.000 C 
BRANCH  18  19
ATOM     19  N   UNL     1      46.959   4.472  15.929  0.00  0.00    +0.000 N 
ATOM     20  C   UNL     1      47.042   4.154  14.599  0.00  0.00    +0.000 C 
ATOM     21  O   UNL     1      47.350   3.028  14.216  0.00  0.00    +0.000 OA
ATOM     22  H   UNL     1      46.923   5.446  16.212  0.00  0.00    +0.000 HD
BRANCH  20  23
ATOM     23  C   UNL     1      46.683   5.215  13.651  0.00  0.00    +0.000 A 
ATOM     24  C   UNL     1      47.606   6.206  13.342  0.00  0.00    +0.000 A 
ATOM     25  S   UNL     1      47.041   7.332  12.193  0.00  0.00    +0.000 S 
ATOM     26  C   UNL     1      45.524   6.567  12.107  0.00  0.00    +0.000 A 
ATOM     27  N   UNL     1      44.538   7.057  11.308  0.00  0.00    +0.000 NA
ATOM     28  C   UNL     1      43.432   6.394  11.361  0.00  0.00    +0.000 A 
ATOM     29  N   UNL     1      43.221   5.280  12.133  0.00  0.00    +0.000 N 
ATOM     30  C   UNL     1      44.200   4.730  12.930  0.00  0.00    +0.000 A 
ATOM     31  O   UNL     1      43.993   3.706  13.571  0.00  0.00    +0.000 OA
ATOM     32  C   UNL     1      45.458   5.450  12.921  0.00  0.00    +0.000 A 
ATOM     33  H   UNL     1      42.336   4.800  12.122  0.00  0.00    +0.000 HD
ENDBRANCH  20  23
ENDBRANCH  18  19
ENDBRANCH   4  18
TORSDOF 7
ENDMDL
MODEL 7
REMARK VINA RESULT:    -7.026      4.837      5.448
REMARK INTER + INTRA:         -10.892
REMARK INTER:                  -9.486
REMARK INTRA:                  -1.406
REMARK UNBOUND:                -0.991
REMARK  Name = 
REMARK  8 active torsions:
REMARK  status: ('A' for Active; 'I' for Inactive)
REMARK    1  A    between atoms: C_1  and  C_2
REMARK    2  A    between atoms: C_6  and  C_7
REMARK    3  A    between atoms: C_7  and  N_8
REMARK    4  A    between atoms: N_8  and  C_9
REMARK    5  A    between atoms: C_9  and  C_10
REMARK    6  A    between atoms: C_13  and  C_14
REMARK    7  A    between atoms: C_14  and  N_15
REMARK    8  A    between atoms: C_16  and  C_18
REMARK                            x       y       z     vdW  Elec       q    Type
REMARK                         _______ _______ _______ _____ _____    ______ ____
ROOT
ATOM      1  C   UNL     1      44.107   5.098  12.321  0.00  0.00    +0.000 A 
ATOM      2  C   UNL     1      43.344   5.915  11.474  0.00  0.00    +0.000 A 
ATOM      3  C   UNL     1      43.673   7.261  11.295  0.00  0.00    +0.000 A 
ATOM      4  C   UNL     1      44.776   7.816  11.956  0.00  0.00    +0.000 A 
ATOM      5  C   UNL     1      45.515   7.009  12.831  0.00  0.00    +0.000 A 
ATOM      6  C   UNL     1      45.188   5.663  13.009  0.00  0.00    +0.000 A 
ENDROOT
BRANCH   1   7
ATOM      7  C   UNL     1      43.784   3.628  12.468  0.00  0.00    +0.000 C 
BRANCH   7   8
ATOM      8  N   UNL     1      44.640   2.764  11.652  0.00  0.00    +0.000 NA
ATOM      9  H   UNL     1      45.530   3.238  11.490  0.00  0.00    +0.000 HD
BRANCH   8  10
ATOM     10  C   UNL     1      44.055   2.499  10.329  0.00  0.00    +0.000 C 
BRANCH  10  16
ATOM     11  C   UNL     1      47.225   0.662   7.115  0.00  0.00    +0.000 C 
ATOM     12  C   UNL     1      46.555   1.879   7.675  0.00  0.00    +0.000 A 
ATOM     13  C   UNL     1      46.849   3.147   7.187  0.00  0.00    +0.000 A 
ATOM     14  C   UNL     1      46.206   4.247   7.746  0.00  0.00    +0.000 A 
ATOM     15  C   UNL     1      45.295   4.050   8.776  0.00  0.00    +0.000 A 
ATOM     16  C   UNL     1      45.059   2.753   9.223  0.00  0.00    +0.000 A 
ATOM     17  N   UNL     1      45.668   1.669   8.677  0.00  0.00    +0.000 NA
ENDBRANCH  10  16
ENDBRANCH   8  10
ENDBRANCH   7   8
ENDBRANCH   1   7
BRANCH   4  18
ATOM     18  C   UNL     1      45.147   9.263  11.760  0.00  0.00    +0.000 C 
BRANCH  18  19
ATOM     19  N   UNL     1      46.508   9.509  12.163  0.00  0.00    +0.000 N 
ATOM     20  C   UNL     1      47.227  10.555  11.646  0.00  0.00    +0.000 C 
ATOM     21  O   UNL     1      46.736  11.353  10.851  0.00  0.00    +0.000 OA
ATOM     22  H   UNL     1      46.991   8.751  12.634  0.00  0.00    +0.000 HD
BRANCH  20  23
ATOM     23  C   UNL     1      48.600  10.710  12.139  0.00  0.00    +0.000 A 
ATOM     24  C   UNL     1      49.019  11.936  12.639  0.00  0.00    +0.000 A 
ATOM     25  S   UNL     1      50.626  11.929  13.209  0.00  0.00    +0.000 S 
ATOM     26  C   UNL     1      50.837  10.302  12.760  0.00  0.00    +0.000 A 
ATOM     27  N   UNL     1      52.028   9.672  12.948  0.00  0.00    +0.000 NA
ATOM     28  C   UNL     1      52.055   8.449  12.536  0.00  0.00    +0.000 A 
ATOM     29  N   UNL     1      50.998   7.793  11.959  0.00  0.00    +0.000 N 
ATOM     30  C   UNL     1      49.765   8.379  11.779  0.00  0.00    +0.000 A 
ATOM     31  O   UNL     1      48.828   7.748  11.304  0.00  0.00    +0.000 OA
ATOM     32  C   UNL     1      49.688   9.762  12.208  0.00  0.00    +0.000 A 
ATOM     33  H   UNL     1      51.079   6.832  11.669  0.00  0.00    +0.000 HD
ENDBRANCH  20  23
ENDBRANCH  18  19
ENDBRANCH   4  18
TORSDOF 7
ENDMDL
MODEL 8
REMARK VINA RESULT:    -6.965      4.066      6.375
REMARK INTER + INTRA:         -10.807
REMARK INTER:                 -10.050
REMARK INTRA:                  -0.756
REMARK UNBOUND:                -0.991
REMARK  Name = 
REMARK  8 active torsions:
REMARK  status: ('A' for Active; 'I' for Inactive)
REMARK    1  A    between atoms: C_1  and  C_2
REMARK    2  A    between atoms: C_6  and  C_7
REMARK    3  A    between atoms: C_7  and  N_8
REMARK    4  A    between atoms: N_8  and  C_9
REMARK    5  A    between atoms: C_9  and  C_10
REMARK    6  A    between atoms: C_13  and  C_14
REMARK    7  A    between atoms: C_14  and  N_15
REMARK    8  A    between atoms: C_16  and  C_18
REMARK                            x       y       z     vdW  Elec       q    Type
REMARK                         _______ _______ _______ _____ _____    ______ ____
ROOT
ATOM      1  C   UNL     1      44.932   7.710  11.978  0.00  0.00    +0.000 A 
ATOM      2  C   UNL     1      46.236   7.672  12.494  0.00  0.00    +0.000 A 
ATOM      3  C   UNL     1      46.703   6.540  13.167  0.00  0.00    +0.000 A 
ATOM      4  C   UNL     1      45.877   5.421  13.333  0.00  0.00    +0.000 A 
ATOM      5  C   UNL     1      44.563   5.474  12.851  0.00  0.00    +0.000 A 
ATOM      6  C   UNL     1      44.095   6.604  12.176  0.00  0.00    +0.000 A 
ENDROOT
BRANCH   1   7
ATOM      7  C   UNL     1      44.447   8.912  11.200  0.00  0.00    +0.000 C 
BRANCH   7   8
ATOM      8  N   UNL     1      43.036   8.822  10.816  0.00  0.00    +0.000 NA
ATOM      9  H   UNL     1      42.939   8.127  10.075  0.00  0.00    +0.000 HD
BRANCH   8  10
ATOM     10  C   UNL     1      42.530  10.092  10.275  0.00  0.00    +0.000 C 
BRANCH  10  16
ATOM     11  C   UNL     1      37.847   9.713  11.574  0.00  0.00    +0.000 C 
ATOM     12  C   UNL     1      39.151  10.432  11.741  0.00  0.00    +0.000 A 
ATOM     13  C   UNL     1      39.269  11.508  12.613  0.00  0.00    +0.000 A 
ATOM     14  C   UNL     1      40.500  12.148  12.727  0.00  0.00    +0.000 A 
ATOM     15  C   UNL     1      41.571  11.699  11.966  0.00  0.00    +0.000 A 
ATOM     16  C   UNL     1      41.377  10.622  11.103  0.00  0.00    +0.000 A 
ATOM     17  N   UNL     1      40.186   9.980  10.993  0.00  0.00    +0.000 NA
ENDBRANCH  10  16
ENDBRANCH   8  10
ENDBRANCH   7   8
ENDBRANCH   1   7
BRANCH   4  18
ATOM     18  C   UNL     1      46.376   4.192  14.046  0.00  0.00    +0.000 C 
BRANCH  18  19
ATOM     19  N   UNL     1      47.452   4.516  14.948  0.00  0.00    +0.000 N 
ATOM     20  C   UNL     1      47.433   4.106  16.256  0.00  0.00    +0.000 C 
ATOM     21  O   UNL     1      46.527   3.411  16.709  0.00  0.00    +0.000 OA
ATOM     22  H   UNL     1      48.081   5.259  14.663  0.00  0.00    +0.000 HD
BRANCH  20  23
ATOM     23  C   UNL     1      48.588   4.490  17.076  0.00  0.00    +0.000 A 
ATOM     24  C   UNL     1      48.629   5.747  17.665  0.00  0.00    +0.000 A 
ATOM     25  S   UNL     1      50.019   6.011  18.617  0.00  0.00    +0.000 S 
ATOM     26  C   UNL     1      50.641   4.475  18.234  0.00  0.00    +0.000 A 
ATOM     27  N   UNL     1      51.848   4.069  18.714  0.00  0.00    +0.000 NA
ATOM     28  C   UNL     1      52.208   2.893  18.321  0.00  0.00    +0.000 A 
ATOM     29  N   UNL     1      51.470   2.080  17.499  0.00  0.00    +0.000 N 
ATOM     30  C   UNL     1      50.231   2.435  17.018  0.00  0.00    +0.000 A 
ATOM     31  O   UNL     1      49.576   1.665  16.324  0.00  0.00    +0.000 OA
ATOM     32  C   UNL     1      49.787   3.758  17.414  0.00  0.00    +0.000 A 
ATOM     33  H   UNL     1      51.803   1.167  17.238  0.00  0.00    +0.000 HD
ENDBRANCH  20  23
ENDBRANCH  18  19
ENDBRANCH   4  18
TORSDOF 7
ENDMDL
MODEL 9
REMARK VINA RESULT:    -6.856      3.364      8.280
REMARK INTER + INTRA:         -10.653
REMARK INTER:                  -9.163
REMARK INTRA:                  -1.490
REMARK UNBOUND:                -0.991
REMARK  Name = 
REMARK  8 active torsions:
REMARK  status: ('A' for Active; 'I' for Inactive)
REMARK    1  A    between atoms: C_1  and  C_2
REMARK    2  A    between atoms: C_6  and  C_7
REMARK    3  A    between atoms: C_7  and  N_8
REMARK    4  A    between atoms: N_8  and  C_9
REMARK    5  A    between atoms: C_9  and  C_10
REMARK    6  A    between atoms: C_13  and  C_14
REMARK    7  A    between atoms: C_14  and  N_15
REMARK    8  A    between atoms: C_16  and  C_18
REMARK                            x       y       z     vdW  Elec       q    Type
REMARK                         _______ _______ _______ _____ _____    ______ ____
ROOT
ATOM      1  C   UNL     1      49.576   7.413  18.454  0.00  0.00    +0.000 A 
ATOM      2  C   UNL     1      48.663   8.380  18.008  0.00  0.00    +0.000 A 
ATOM      3  C   UNL     1      48.556   8.687  16.649  0.00  0.00    +0.000 A 
ATOM      4  C   UNL     1      49.358   8.030  15.708  0.00  0.00    +0.000 A 
ATOM      5  C   UNL     1      50.297   7.092  16.157  0.00  0.00    +0.000 A 
ATOM      6  C   UNL     1      50.402   6.782  17.515  0.00  0.00    +0.000 A 
ENDROOT
BRANCH   1   7
ATOM      7  C   UNL     1      49.649   7.040  19.917  0.00  0.00    +0.000 C 
BRANCH   7   8
ATOM      8  N   UNL     1      48.417   6.427  20.419  0.00  0.00    +0.000 NA
ATOM      9  H   UNL     1      48.256   6.746  21.376  0.00  0.00    +0.000 HD
BRANCH   8  10
ATOM     10  C   UNL     1      48.513   4.961  20.471  0.00  0.00    +0.000 C 
BRANCH  10  16
ATOM     11  C   UNL     1      50.404   2.013  17.081  0.00  0.00    +0.000 C 
ATOM     12  C   UNL     1      49.290   2.933  17.477  0.00  0.00    +0.000 A 
ATOM     13  C   UNL     1      48.230   3.188  16.613  0.00  0.00    +0.000 A 
ATOM     14  C   UNL     1      47.224   4.056  17.025  0.00  0.00    +0.000 A 
ATOM     15  C   UNL     1      47.306   4.645  18.280  0.00  0.00    +0.000 A 
ATOM     16  C   UNL     1      48.402   4.353  19.088  0.00  0.00    +0.000 A 
ATOM     17  N   UNL     1      49.384   3.497  18.705  0.00  0.00    +0.000 NA
ENDBRANCH  10  16
ENDBRANCH   8  10
ENDBRANCH   7   8
ENDBRANCH   1   7
BRANCH   4  18
ATOM     18  C   UNL     1      49.242   8.345  14.239  0.00  0.00    +0.000 C 
BRANCH  18  19
ATOM     19  N   UNL     1      47.976   7.902  13.712  0.00  0.00    +0.000 N 
ATOM     20  C   UNL     1      47.869   6.733  13.005  0.00  0.00    +0.000 C 
ATOM     21  O   UNL     1      48.829   5.989  12.826  0.00  0.00    +0.000 OA
ATOM     22  H   UNL     1      47.236   8.594  13.656  0.00  0.00    +0.000 HD
BRANCH  20  23
ATOM     23  C   UNL     1      46.527   6.382  12.525  0.00  0.00    +0.000 A 
ATOM     24  C   UNL     1      45.708   7.366  11.986  0.00  0.00    +0.000 A 
ATOM     25  S   UNL     1      44.204   6.779  11.439  0.00  0.00    +0.000 S 
ATOM     26  C   UNL     1      44.571   5.199  11.952  0.00  0.00    +0.000 A 
ATOM     27  N   UNL     1      43.672   4.188  11.804  0.00  0.00    +0.000 NA
ATOM     28  C   UNL     1      44.072   3.049  12.262  0.00  0.00    +0.000 A 
ATOM     29  N   UNL     1      45.292   2.824  12.848  0.00  0.00    +0.000 N 
ATOM     30  C   UNL     1      46.244   3.808  12.989  0.00  0.00    +0.000 A 
ATOM     31  O   UNL     1      47.342   3.562  13.475  0.00  0.00    +0.000 OA
ATOM     32  C   UNL     1      45.836   5.113  12.507  0.00  0.00    +0.000 A 
ATOM     33  H   UNL     1      45.549   1.907  13.176  0.00  0.00    +0.000 HD
ENDBRANCH  20  23
ENDBRANCH  18  19
ENDBRANCH   4  18
TORSDOF 7
ENDMDL
