MODEL 1
REMARK VINA RESULT:    -7.511      0.000      0.000
REMARK INTER + INTRA:         -11.937
REMARK INTER:                 -10.585
REMARK INTRA:                  -1.352
REMARK UNBOUND:                -1.352
REMARK  Name = 
REMARK  8 active torsions:
REMARK  status: ('A' for Active; 'I' for Inactive)
REMARK    1  A    between atoms: C_1  and  N_2
REMARK    2  A    between atoms: N_2  and  C_3
REMARK    3  A    between atoms: C_3  and  C_4
REMARK    4  A    between atoms: C_7  and  C_8
REMARK    5  A    between atoms: C_8  and  C_9
REMARK    6  A    between atoms: C_9  and  N_10
REMARK    7  A    between atoms: N_10  and  C_11
REMARK    8  A    between atoms: C_19  and  C_21
REMARK                            x       y       z     vdW  Elec       q    Type
REMARK                         _______ _______ _______ _____ _____    ______ ____
ROOT
ATOM      1  C   UNL     1      47.659   7.848  13.546  0.00  0.00    +0.000 C 
ENDROOT
BRANCH   1   2
ATOM      2  C   UNL     1      46.854   6.654  13.131  0.00  0.00    +0.000 A 
ATOM      3  C   UNL     1      46.922   5.480  13.890  0.00  0.00    +0.000 A 
ATOM      4  C   UNL     1      46.210   4.357  13.485  0.00  0.00    +0.000 A 
ATOM      5  C   UNL     1      45.411   4.405  12.337  0.00  0.00    +0.000 A 
ATOM      6  C   UNL     1      45.361   5.582  11.579  0.00  0.00    +0.000 A 
ATOM      7  C   UNL     1      46.080   6.703  11.978  0.00  0.00    +0.000 A 
BRANCH   5   8
ATOM      8  C   UNL     1      44.637   3.207  11.853  0.00  0.00    +0.000 C 
BRANCH   8   9
ATOM      9  C   UNL     1      44.207   3.232  10.381  0.00  0.00    +0.000 C 
BRANCH   9  10
ATOM     10  N   UNL     1      44.657   2.053   9.628  0.00  0.00    +0.000 NA
ATOM     11  H   UNL     1      43.881   1.647   9.109  0.00  0.00    +0.000 HD
BRANCH  10  12
ATOM     12  C   UNL     1      45.784   2.359   8.741  0.00  0.00    +0.000 C 
ATOM     13  C   UNL     1      45.421   3.430   7.701  0.00  0.00    +0.000 C 
ATOM     14  C   UNL     1      46.590   3.719   6.768  0.00  0.00    +0.000 C 
ATOM     15  C   UNL     1      47.069   2.450   6.078  0.00  0.00    +0.000 C 
ATOM     16  C   UNL     1      47.429   1.368   7.090  0.00  0.00    +0.000 C 
ATOM     17  C   UNL     1      46.268   1.074   8.043  0.00  0.00    +0.000 C 
ENDBRANCH  10  12
ENDBRANCH   9  10
ENDBRANCH   8   9
ENDBRANCH   5   8
ENDBRANCH   1   2
BRANCH   1  19
ATOM     18  C   UNL     1      49.830   7.335  12.348  0.00  0.00    +0.000 C 
ATOM     19  N   UNL     1      49.114   7.683  13.571  0.00  0.00    +0.000 N 
ATOM     20  C   UNL     1      49.904   8.167  14.625  0.00  0.00    +0.000 C 
ATOM     21  O   UNL     1      51.125   8.262  14.512  0.00  0.00    +0.000 OA
BRANCH  20  22
ATOM     22  C   UNL     1      49.258   8.531  15.896  0.00  0.00    +0.000 A 
ATOM     23  C   UNL     1      48.878   9.819  16.242  0.00  0.00    +0.000 A 
ATOM     24  S   UNL     1      48.103   9.924  17.757  0.00  0.00    +0.000 S 
ATOM     25  C   UNL     1      48.124   8.235  17.937  0.00  0.00    +0.000 A 
ATOM     26  N   UNL     1      47.509   7.642  18.992  0.00  0.00    +0.000 NA
ATOM     27  C   UNL     1      47.549   6.353  18.968  0.00  0.00    +0.000 A 
ATOM     28  N   UNL     1      48.182   5.609  18.006  0.00  0.00    +0.000 N 
ATOM     29  C   UNL     1      48.940   6.166  16.999  0.00  0.00    +0.000 A 
ATOM     30  O   UNL     1      49.695   5.478  16.320  0.00  0.00    +0.000 OA
ATOM     31  C   UNL     1      48.806   7.611  16.909  0.00  0.00    +0.000 A 
ATOM     32  H   UNL     1      48.238   4.601  18.087  0.00  0.00    +0.000 HD
ENDBRANCH  20  22
ENDBRANCH   1  19
TORSDOF 7
ENDMDL
MODEL 2
REMARK VINA RESULT:    -7.373      3.981      8.548
REMARK INTER + INTRA:         -11.742
REMARK INTER:                 -10.446
REMARK INTRA:                  -1.296
REMARK UNBOUND:                -1.352
REMARK  Name = 
REMARK  8 active torsions:
REMARK  status: ('A' for Active; 'I' for Inactive)
REMARK    1  A    between atoms: C_1  and  N_2
REMARK    2  A    between atoms: N_2  and  C_3
REMARK    3  A    between atoms: C_3  and  C_4
REMARK    4  A    between atoms: C_7  and  C_8
REMARK    5  A    between atoms: C_8  and  C_9
REMARK    6  A    between atoms: C_9  and  N_10
REMARK    7  A    between atoms: N_10  and  C_11
REMARK    8  A    between atoms: C_19  and  C_21
REMARK                            x       y       z     vdW  Elec       q    Type
REMARK                         _______ _______ _______ _____ _____    ______ ____
ROOT
ATOM      1  C   UNL     1      47.373   6.166  12.581  0.00  0.00    +0.000 C 
ENDROOT
BRANCH   1   2
ATOM      2  C   UNL     1      47.603   5.722  13.994  0.00  0.00    +0.000 A 
ATOM      3  C   UNL     1      46.970   4.565  14.464  0.00  0.00    +0.000 A 
ATOM      4  C   UNL     1      47.147   4.174  15.786  0.00  0.00    +0.000 A 
ATOM      5  C   UNL     1      47.971   4.917  16.638  0.00  0.00    +0.000 A 
ATOM      6  C   UNL     1      48.589   6.080  16.159  0.00  0.00    +0.000 A 
ATOM      7  C   UNL     1      48.406   6.478  14.840  0.00  0.00    +0.000 A 
BRANCH   5   8
ATOM      8  C   UNL     1      48.176   4.539  18.081  0.00  0.00    +0.000 C 
BRANCH   8   9
ATOM      9  C   UNL     1      49.509   3.858  18.417  0.00  0.00    +0.000 C 
BRANCH   9  10
ATOM     10  N   UNL     1      49.730   2.619  17.659  0.00  0.00    +0.000 NA
ATOM     11  H   UNL     1      49.179   2.625  16.802  0.00  0.00    +0.000 HD
BRANCH  10  12
ATOM     12  C   UNL     1      51.151   2.392  17.372  0.00  0.00    +0.000 C 
ATOM     13  C   UNL     1      51.588   0.964  17.732  0.00  0.00    +0.000 C 
ATOM     14  C   UNL     1      53.071   0.750  17.455  0.00  0.00    +0.000 C 
ATOM     15  C   UNL     1      53.921   1.768  18.200  0.00  0.00    +0.000 C 
ATOM     16  C   UNL     1      53.501   3.196  17.865  0.00  0.00    +0.000 C 
ATOM     17  C   UNL     1      52.010   3.424  18.127  0.00  0.00    +0.000 C 
ENDBRANCH  10  12
ENDBRANCH   9  10
ENDBRANCH   8   9
ENDBRANCH   5   8
ENDBRANCH   1   2
BRANCH   1  19
ATOM     18  C   UNL     1      46.692   8.599  12.434  0.00  0.00    +0.000 C 
ATOM     19  N   UNL     1      46.343   7.184  12.372  0.00  0.00    +0.000 N 
ATOM     20  C   UNL     1      45.104   6.886  11.782  0.00  0.00    +0.000 C 
ATOM     21  O   UNL     1      44.365   7.779  11.372  0.00  0.00    +0.000 OA
BRANCH  20  22
ATOM     22  C   UNL     1      44.674   5.482  11.691  0.00  0.00    +0.000 A 
ATOM     23  C   UNL     1      43.939   4.822  12.664  0.00  0.00    +0.000 A 
ATOM     24  S   UNL     1      43.542   3.216  12.255  0.00  0.00    +0.000 S 
ATOM     25  C   UNL     1      44.218   3.393  10.706  0.00  0.00    +0.000 A 
ATOM     26  N   UNL     1      44.117   2.400   9.787  0.00  0.00    +0.000 NA
ATOM     27  C   UNL     1      44.618   2.696   8.636  0.00  0.00    +0.000 A 
ATOM     28  N   UNL     1      45.244   3.877   8.337  0.00  0.00    +0.000 N 
ATOM     29  C   UNL     1      45.499   4.855   9.274  0.00  0.00    +0.000 A 
ATOM     30  O   UNL     1      46.280   5.771   9.039  0.00  0.00    +0.000 OA
ATOM     31  C   UNL     1      44.830   4.622  10.545  0.00  0.00    +0.000 A 
ATOM     32  H   UNL     1      45.682   4.016   7.434  0.00  0.00    +0.000 HD
ENDBRANCH  20  22
ENDBRANCH   1  19
TORSDOF 7
ENDMDL
MODEL 3
REMARK VINA RESULT:    -7.265      3.469      9.205
REMARK INTER + INTRA:         -11.590
REMARK INTER:                 -10.099
REMARK INTRA:                  -1.491
REMARK UNBOUND:                -1.352
REMARK  Name = 
REMARK  8 active torsions:
REMARK  status: ('A' for Active; 'I' for Inactive)
REMARK    1  A    between atoms: C_1  and  N_2
REMARK    2  A    between atoms: N_2  and  C_3
REMARK    3  A    between atoms: C_3  and  C_4
REMARK    4  A    between atoms: C_7  and  C_8
REMARK    5  A    between atoms: C_8  and  C_9
REMARK    6  A    between atoms: C_9  and  N_10
REMARK    7  A    between atoms: N_10  and  C_11
REMARK    8  A    between atoms: C_19  and  C_21
REMARK                            x       y       z     vdW  Elec       q    Type
REMARK                         _______ _______ _______ _____ _____    ______ ____
ROOT
ATOM      1  C   UNL     1      47.173   6.146  12.454  0.00  0.00    +0.000 C 
ENDROOT
BRANCH   1   2
ATOM      2  C   UNL     1      47.363   5.558  13.820  0.00  0.00    +0.000 A 
ATOM      3  C   UNL     1      48.061   6.286  14.791  0.00  0.00    +0.000 A 
ATOM      4  C   UNL     1      48.277   5.727  16.045  0.00  0.00    +0.000 A 
ATOM      5  C   UNL     1      47.779   4.454  16.346  0.00  0.00    +0.000 A 
ATOM      6  C   UNL     1      47.093   3.731  15.360  0.00  0.00    +0.000 A 
ATOM      7  C   UNL     1      46.885   4.285  14.103  0.00  0.00    +0.000 A 
BRANCH   5   8
ATOM      8  C   UNL     1      48.005   3.804  17.685  0.00  0.00    +0.000 C 
BRANCH   8   9
ATOM      9  C   UNL     1      49.467   3.580  18.089  0.00  0.00    +0.000 C 
BRANCH   9  10
ATOM     10  N   UNL     1      49.856   4.338  19.287  0.00  0.00    +0.000 NA
ATOM     11  H   UNL     1      50.645   4.948  19.079  0.00  0.00    +0.000 HD
BRANCH  10  12
ATOM     12  C   UNL     1      48.735   5.097  19.851  0.00  0.00    +0.000 C 
ATOM     13  C   UNL     1      48.915   6.611  19.663  0.00  0.00    +0.000 C 
ATOM     14  C   UNL     1      47.758   7.390  20.276  0.00  0.00    +0.000 C 
ATOM     15  C   UNL     1      47.591   7.055  21.751  0.00  0.00    +0.000 C 
ATOM     16  C   UNL     1      47.418   5.554  21.965  0.00  0.00    +0.000 C 
ATOM     17  C   UNL     1      48.568   4.757  21.344  0.00  0.00    +0.000 C 
ENDBRANCH  10  12
ENDBRANCH   9  10
ENDBRANCH   8   9
ENDBRANCH   5   8
ENDBRANCH   1   2
BRANCH   1  19
ATOM     18  C   UNL     1      46.350   8.539  12.379  0.00  0.00    +0.000 C 
ATOM     19  N   UNL     1      46.080   7.107  12.300  0.00  0.00    +0.000 N 
ATOM     20  C   UNL     1      44.841   6.749  11.746  0.00  0.00    +0.000 C 
ATOM     21  O   UNL     1      44.038   7.605  11.378  0.00  0.00    +0.000 OA
BRANCH  20  22
ATOM     22  C   UNL     1      44.488   5.324  11.641  0.00  0.00    +0.000 A 
ATOM     23  C   UNL     1      43.756   4.626  12.590  0.00  0.00    +0.000 A 
ATOM     24  S   UNL     1      43.459   3.001  12.168  0.00  0.00    +0.000 S 
ATOM     25  C   UNL     1      44.174   3.216  10.642  0.00  0.00    +0.000 A 
ATOM     26  N   UNL     1      44.156   2.220   9.720  0.00  0.00    +0.000 NA
ATOM     27  C   UNL     1      44.678   2.543   8.587  0.00  0.00    +0.000 A 
ATOM     28  N   UNL     1      45.252   3.757   8.307  0.00  0.00    +0.000 N 
ATOM     29  C   UNL     1      45.424   4.745   9.253  0.00  0.00    +0.000 A 
ATOM     30  O   UNL     1      46.163   5.701   9.043  0.00  0.00    +0.000 OA
ATOM     31  C   UNL     1      44.726   4.475  10.501  0.00  0.00    +0.000 A 
ATOM     32  H   UNL     1      45.710   3.919   7.420  0.00  0.00    +0.000 HD
ENDBRANCH  20  22
ENDBRANCH   1  19
TORSDOF 7
ENDMDL
MODEL 4
REMARK VINA RESULT:    -7.202      3.687      8.501
REMARK INTER + INTRA:         -11.500
REMARK INTER:                  -9.665
REMARK INTRA:                  -1.836
REMARK UNBOUND:                -1.352
REMARK  Name = 
REMARK  8 active torsions:
REMARK  status: ('A' for Active; 'I' for Inactive)
REMARK    1  A    between atoms: C_1  and  N_2
REMARK    2  A    between atoms: N_2  and  C_3
REMARK    3  A    between atoms: C_3  and  C_4
REMARK    4  A    between atoms: C_7  and  C_8
REMARK    5  A    between atoms: C_8  and  C_9
REMARK    6  A    between atoms: C_9  and  N_10
REMARK    7  A    between atoms: N_10  and  C_11
REMARK    8  A    between atoms: C_19  and  C_21
REMARK                            x       y       z     vdW  Elec       q    Type
REMARK                         _______ _______ _______ _____ _____    ______ ____
ROOT
ATOM      1  C   UNL     1      47.495   6.518  12.680  0.00  0.00    +0.000 C 
ENDROOT
BRANCH   1   2
ATOM      2  C   UNL     1      47.512   5.654  13.905  0.00  0.00    +0.000 A 
ATOM      3  C   UNL     1      48.115   6.130  15.075  0.00  0.00    +0.000 A 
ATOM      4  C   UNL     1      48.170   5.316  16.200  0.00  0.00    +0.000 A 
ATOM      5  C   UNL     1      47.607   4.035  16.173  0.00  0.00    +0.000 A 
ATOM      6  C   UNL     1      47.018   3.566  14.991  0.00  0.00    +0.000 A 
ATOM      7  C   UNL     1      46.970   4.375  13.863  0.00  0.00    +0.000 A 
BRANCH   5   8
ATOM      8  C   UNL     1      47.660   3.113  17.362  0.00  0.00    +0.000 C 
BRANCH   8   9
ATOM      9  C   UNL     1      48.859   3.292  18.302  0.00  0.00    +0.000 C 
BRANCH   9  10
ATOM     10  N   UNL     1      48.466   3.583  19.688  0.00  0.00    +0.000 NA
ATOM     11  H   UNL     1      48.962   2.968  20.332  0.00  0.00    +0.000 HD
BRANCH  10  12
ATOM     12  C   UNL     1      48.672   4.992  20.038  0.00  0.00    +0.000 C 
ATOM     13  C   UNL     1      47.445   5.853  19.700  0.00  0.00    +0.000 C 
ATOM     14  C   UNL     1      47.682   7.318  20.042  0.00  0.00    +0.000 C 
ATOM     15  C   UNL     1      48.918   7.855  19.334  0.00  0.00    +0.000 C 
ATOM     16  C   UNL     1      50.150   7.012  19.648  0.00  0.00    +0.000 C 
ATOM     17  C   UNL     1      49.923   5.534  19.321  0.00  0.00    +0.000 C 
ENDBRANCH  10  12
ENDBRANCH   9  10
ENDBRANCH   8   9
ENDBRANCH   5   8
ENDBRANCH   1   2
BRANCH   1  19
ATOM     18  C   UNL     1      46.572   8.804  13.253  0.00  0.00    +0.000 C 
ATOM     19  N   UNL     1      46.424   7.512  12.593  0.00  0.00    +0.000 N 
ATOM     20  C   UNL     1      45.403   7.429  11.633  0.00  0.00    +0.000 C 
ATOM     21  O   UNL     1      44.674   8.391  11.397  0.00  0.00    +0.000 OA
BRANCH  20  22
ATOM     22  C   UNL     1      45.182   6.156  10.930  0.00  0.00    +0.000 A 
ATOM     23  C   UNL     1      45.754   5.824   9.711  0.00  0.00    +0.000 A 
ATOM     24  S   UNL     1      45.356   4.258   9.168  0.00  0.00    +0.000 S 
ATOM     25  C   UNL     1      44.523   3.919  10.610  0.00  0.00    +0.000 A 
ATOM     26  N   UNL     1      44.017   2.682  10.844  0.00  0.00    +0.000 NA
ATOM     27  C   UNL     1      43.467   2.550  12.003  0.00  0.00    +0.000 A 
ATOM     28  N   UNL     1      43.343   3.553  12.928  0.00  0.00    +0.000 N 
ATOM     29  C   UNL     1      43.709   4.858  12.679  0.00  0.00    +0.000 A 
ATOM     30  O   UNL     1      43.351   5.769  13.418  0.00  0.00    +0.000 OA
ATOM     31  C   UNL     1      44.459   5.019  11.443  0.00  0.00    +0.000 A 
ATOM     32  H   UNL     1      42.833   3.401  13.790  0.00  0.00    +0.000 HD
ENDBRANCH  20  22
ENDBRANCH   1  19
TORSDOF 7
ENDMDL
MODEL 5
REMARK VINA RESULT:    -7.094      1.323      2.028
REMARK INTER + INTRA:         -11.349
REMARK INTER:                 -10.081
REMARK INTRA:                  -1.269
REMARK UNBOUND:                -1.352
REMARK  Name = 
REMARK  8 active torsions:
REMARK  status: ('A' for Active; 'I' for Inactive)
REMARK    1  A    between atoms: C_1  and  N_2
REMARK    2  A    between atoms: N_2  and  C_3
REMARK    3  A    between atoms: C_3  and  C_4
REMARK    4  A    between atoms: C_7  and  C_8
REMARK    5  A    between atoms: C_8  and  C_9
REMARK    6  A    between atoms: C_9  and  N_10
REMARK    7  A    between atoms: N_10  and  C_11
REMARK    8  A    between atoms: C_19  and  C_21
REMARK                            x       y       z     vdW  Elec       q    Type
REMARK                         _______ _______ _______ _____ _____    ______ ____
ROOT
ATOM      1  C   UNL     1      47.326   7.577  13.549  0.00  0.00    +0.000 C 
ENDROOT
BRANCH   1   2
ATOM      2  C   UNL     1      46.436   6.486  13.032  0.00  0.00    +0.000 A 
ATOM      3  C   UNL     1      46.554   5.195  13.559  0.00  0.00    +0.000 A 
ATOM      4  C   UNL     1      45.761   4.171  13.054  0.00  0.00    +0.000 A 
ATOM      5  C   UNL     1      44.832   4.433  12.040  0.00  0.00    +0.000 A 
ATOM      6  C   UNL     1      44.733   5.728  11.513  0.00  0.00    +0.000 A 
ATOM      7  C   UNL     1      45.532   6.750  12.011  0.00  0.00    +0.000 A 
BRANCH   5   8
ATOM      8  C   UNL     1      43.965   3.352  11.452  0.00  0.00    +0.000 C 
BRANCH   8   9
ATOM      9  C   UNL     1      44.094   3.132   9.939  0.00  0.00    +0.000 C 
BRANCH   9  10
ATOM     10  N   UNL     1      44.895   1.949   9.594  0.00  0.00    +0.000 NA
ATOM     11  H   UNL     1      44.294   1.206   9.241  0.00  0.00    +0.000 HD
BRANCH  10  12
ATOM     12  C   UNL     1      45.963   2.263   8.640  0.00  0.00    +0.000 C 
ATOM     13  C   UNL     1      45.531   3.332   7.625  0.00  0.00    +0.000 C 
ATOM     14  C   UNL     1      46.640   3.629   6.624  0.00  0.00    +0.000 C 
ATOM     15  C   UNL     1      47.084   2.364   5.904  0.00  0.00    +0.000 C 
ATOM     16  C   UNL     1      47.511   1.283   6.892  0.00  0.00    +0.000 C 
ATOM     17  C   UNL     1      46.412   0.981   7.913  0.00  0.00    +0.000 C 
ENDBRANCH  10  12
ENDBRANCH   9  10
ENDBRANCH   8   9
ENDBRANCH   5   8
ENDBRANCH   1   2
BRANCH   1  19
ATOM     18  C   UNL     1      49.451   7.292  12.203  0.00  0.00    +0.000 C 
ATOM     19  N   UNL     1      48.767   7.331  13.491  0.00  0.00    +0.000 N 
ATOM     20  C   UNL     1      49.594   7.462  14.618  0.00  0.00    +0.000 C 
ATOM     21  O   UNL     1      50.818   7.516  14.505  0.00  0.00    +0.000 OA
BRANCH  20  22
ATOM     22  C   UNL     1      48.982   7.499  15.955  0.00  0.00    +0.000 A 
ATOM     23  C   UNL     1      48.854   6.398  16.789  0.00  0.00    +0.000 A 
ATOM     24  S   UNL     1      48.152   6.758  18.300  0.00  0.00    +0.000 S 
ATOM     25  C   UNL     1      48.126   8.420  17.945  0.00  0.00    +0.000 A 
ATOM     26  N   UNL     1      47.733   9.323  18.879  0.00  0.00    +0.000 NA
ATOM     27  C   UNL     1      47.824  10.550  18.494  0.00  0.00    +0.000 A 
ATOM     28  N   UNL     1      48.232  10.951  17.249  0.00  0.00    +0.000 N 
ATOM     29  C   UNL     1      48.500  10.070  16.223  0.00  0.00    +0.000 A 
ATOM     30  O   UNL     1      48.608  10.459  15.065  0.00  0.00    +0.000 OA
ATOM     31  C   UNL     1      48.546   8.681  16.655  0.00  0.00    +0.000 A 
ATOM     32  H   UNL     1      48.209  11.928  16.987  0.00  0.00    +0.000 HD
ENDBRANCH  20  22
ENDBRANCH   1  19
TORSDOF 7
ENDMDL
MODEL 6
REMARK VINA RESULT:    -7.087      2.362      3.387
REMARK INTER + INTRA:         -11.338
REMARK INTER:                 -10.264
REMARK INTRA:                  -1.075
REMARK UNBOUND:                -1.352
REMARK  Name = 
REMARK  8 active torsions:
REMARK  status: ('A' for Active; 'I' for Inactive)
REMARK    1  A    between atoms: C_1  and  N_2
REMARK    2  A    between atoms: N_2  and  C_3
REMARK    3  A    between atoms: C_3  and  C_4
REMARK    4  A    between atoms: C_7  and  C_8
REMARK    5  A    between atoms: C_8  and  C_9
REMARK    6  A    between atoms: C_9  and  N_10
REMARK    7  A    between atoms: N_10  and  C_11
REMARK    8  A    between atoms: C_19  and  C_21
REMARK                            x       y       z     vdW  Elec       q    Type
REMARK                         _______ _______ _______ _____ _____    ______ ____
ROOT
ATOM      1  C   UNL     1      49.244   6.823  14.743  0.00  0.00    +0.000 C 
ENDROOT
BRANCH   1   2
ATOM      2  C   UNL     1      48.132   6.583  13.767  0.00  0.00    +0.000 A 
ATOM      3  C   UNL     1      47.276   5.492  13.954  0.00  0.00    +0.000 A 
ATOM      4  C   UNL     1      46.270   5.241  13.028  0.00  0.00    +0.000 A 
ATOM      5  C   UNL     1      46.097   6.088  11.927  0.00  0.00    +0.000 A 
ATOM      6  C   UNL     1      46.970   7.170  11.745  0.00  0.00    +0.000 A 
ATOM      7  C   UNL     1      47.981   7.416  12.665  0.00  0.00    +0.000 A 
BRANCH   5   8
ATOM      8  C   UNL     1      45.032   5.844  10.891  0.00  0.00    +0.000 C 
BRANCH   8   9
ATOM      9  C   UNL     1      45.100   4.499  10.157  0.00  0.00    +0.000 C 
BRANCH   9  10
ATOM     10  N   UNL     1      44.771   4.604   8.728  0.00  0.00    +0.000 NA
ATOM     11  H   UNL     1      45.099   5.493   8.354  0.00  0.00    +0.000 HD
BRANCH  10  12
ATOM     12  C   UNL     1      45.299   3.477   7.954  0.00  0.00    +0.000 C 
ATOM     13  C   UNL     1      45.588   2.256   8.841  0.00  0.00    +0.000 C 
ATOM     14  C   UNL     1      46.163   1.102   8.029  0.00  0.00    +0.000 C 
ATOM     15  C   UNL     1      47.421   1.526   7.285  0.00  0.00    +0.000 C 
ATOM     16  C   UNL     1      47.162   2.743   6.402  0.00  0.00    +0.000 C 
ATOM     17  C   UNL     1      46.572   3.908   7.201  0.00  0.00    +0.000 C 
ENDBRANCH  10  12
ENDBRANCH   9  10
ENDBRANCH   8   9
ENDBRANCH   5   8
ENDBRANCH   1   2
BRANCH   1  19
ATOM     18  C   UNL     1      48.650   9.059  15.770  0.00  0.00    +0.000 C 
ATOM     19  N   UNL     1      48.923   7.633  15.918  0.00  0.00    +0.000 N 
ATOM     20  C   UNL     1      48.530   7.059  17.138  0.00  0.00    +0.000 C 
ATOM     21  O   UNL     1      48.012   7.739  18.022  0.00  0.00    +0.000 OA
BRANCH  20  22
ATOM     22  C   UNL     1      48.780   5.628  17.370  0.00  0.00    +0.000 A 
ATOM     23  C   UNL     1      47.801   4.645  17.331  0.00  0.00    +0.000 A 
ATOM     24  S   UNL     1      48.400   3.070  17.586  0.00  0.00    +0.000 S 
ATOM     25  C   UNL     1      50.003   3.632  17.616  0.00  0.00    +0.000 A 
ATOM     26  N   UNL     1      51.042   2.763  17.696  0.00  0.00    +0.000 NA
ATOM     27  C   UNL     1      52.202   3.323  17.644  0.00  0.00    +0.000 A 
ATOM     28  N   UNL     1      52.413   4.675  17.561  0.00  0.00    +0.000 N 
ATOM     29  C   UNL     1      51.396   5.603  17.623  0.00  0.00    +0.000 A 
ATOM     30  O   UNL     1      51.634   6.792  17.806  0.00  0.00    +0.000 OA
ATOM     31  C   UNL     1      50.070   5.010  17.540  0.00  0.00    +0.000 A 
ATOM     32  H   UNL     1      53.351   5.054  17.599  0.00  0.00    +0.000 HD
ENDBRANCH  20  22
ENDBRANCH   1  19
TORSDOF 7
ENDMDL
MODEL 7
REMARK VINA RESULT:    -6.992      1.851      2.621
REMARK INTER + INTRA:         -11.205
REMARK INTER:                 -10.095
REMARK INTRA:                  -1.109
REMARK UNBOUND:                -1.352
REMARK  Name = 
REMARK  8 active torsions:
REMARK  status: ('A' for Active; 'I' for Inactive)
REMARK    1  A    between atoms: C_1  and  N_2
REMARK    2  A    between atoms: N_2  and  C_3
REMARK    3  A    between atoms: C_3  and  C_4
REMARK    4  A    between atoms: C_7  and  C_8
REMARK    5  A    between atoms: C_8  and  C_9
REMARK    6  A    between atoms: C_9  and  N_10
REMARK    7  A    between atoms: N_10  and  C_11
REMARK    8  A    between atoms: C_19  and  C_21
REMARK                            x       y       z     vdW  Elec       q    Type
REMARK                         _______ _______ _______ _____ _____    ______ ____
ROOT
ATOM      1  C   UNL     1      48.590   6.850  13.396  0.00  0.00    +0.000 C 
ENDROOT
BRANCH   1   2
ATOM      2  C   UNL     1      47.456   6.065  12.808  0.00  0.00    +0.000 A 
ATOM      3  C   UNL     1      46.867   6.497  11.614  0.00  0.00    +0.000 A 
ATOM      4  C   UNL     1      45.787   5.797  11.088  0.00  0.00    +0.000 A 
ATOM      5  C   UNL     1      45.305   4.653  11.735  0.00  0.00    +0.000 A 
ATOM      6  C   UNL     1      45.895   4.240  12.937  0.00  0.00    +0.000 A 
ATOM      7  C   UNL     1      46.969   4.944  13.468  0.00  0.00    +0.000 A 
BRANCH   5   8
ATOM      8  C   UNL     1      44.127   3.875  11.211  0.00  0.00    +0.000 C 
BRANCH   8   9
ATOM      9  C   UNL     1      44.205   3.441   9.742  0.00  0.00    +0.000 C 
BRANCH   9  10
ATOM     10  N   UNL     1      45.050   2.255   9.536  0.00  0.00    +0.000 NA
ATOM     11  H   UNL     1      44.545   1.411   9.797  0.00  0.00    +0.000 HD
BRANCH  10  12
ATOM     12  C   UNL     1      45.552   2.166   8.161  0.00  0.00    +0.000 C 
ATOM     13  C   UNL     1      46.628   1.079   8.012  0.00  0.00    +0.000 C 
ATOM     14  C   UNL     1      47.161   1.015   6.586  0.00  0.00    +0.000 C 
ATOM     15  C   UNL     1      47.707   2.365   6.142  0.00  0.00    +0.000 C 
ATOM     16  C   UNL     1      46.659   3.464   6.288  0.00  0.00    +0.000 C 
ATOM     17  C   UNL     1      46.105   3.533   7.714  0.00  0.00    +0.000 C 
ENDBRANCH  10  12
ENDBRANCH   9  10
ENDBRANCH   8   9
ENDBRANCH   5   8
ENDBRANCH   1   2
BRANCH   1  19
ATOM     18  C   UNL     1      47.007   8.718  14.037  0.00  0.00    +0.000 C 
ATOM     19  N   UNL     1      48.232   7.963  14.276  0.00  0.00    +0.000 N 
ATOM     20  C   UNL     1      48.823   8.139  15.538  0.00  0.00    +0.000 C 
ATOM     21  O   UNL     1      48.334   8.904  16.366  0.00  0.00    +0.000 OA
BRANCH  20  22
ATOM     22  C   UNL     1      50.067   7.420  15.853  0.00  0.00    +0.000 A 
ATOM     23  C   UNL     1      51.341   7.913  15.608  0.00  0.00    +0.000 A 
ATOM     24  S   UNL     1      52.590   6.877  16.130  0.00  0.00    +0.000 S 
ATOM     25  C   UNL     1      51.473   5.802  16.825  0.00  0.00    +0.000 A 
ATOM     26  N   UNL     1      51.896   4.730  17.543  0.00  0.00    +0.000 NA
ATOM     27  C   UNL     1      50.941   4.038  18.065  0.00  0.00    +0.000 A 
ATOM     28  N   UNL     1      49.606   4.298  17.900  0.00  0.00    +0.000 N 
ATOM     29  C   UNL     1      49.127   5.284  17.064  0.00  0.00    +0.000 A 
ATOM     30  O   UNL     1      47.945   5.322  16.740  0.00  0.00    +0.000 OA
ATOM     31  C   UNL     1      50.167   6.173  16.569  0.00  0.00    +0.000 A 
ATOM     32  H   UNL     1      48.907   3.670  18.276  0.00  0.00    +0.000 HD
ENDBRANCH  20  22
ENDBRANCH   1  19
TORSDOF 7
ENDMDL
MODEL 8
REMARK VINA RESULT:    -6.881      2.872      4.767
REMARK INTER + INTRA:         -11.049
REMARK INTER:                  -9.474
REMARK INTRA:                  -1.575
REMARK UNBOUND:                -1.352
REMARK  Name = 
REMARK  8 active torsions:
REMARK  status: ('A' for Active; 'I' for Inactive)
REMARK    1  A    between atoms: C_1  and  N_2
REMARK    2  A    between atoms: N_2  and  C_3
REMARK    3  A    between atoms: C_3  and  C_4
REMARK    4  A    between atoms: C_7  and  C_8
REMARK    5  A    between atoms: C_8  and  C_9
REMARK    6  A    between atoms: C_9  and  N_10
REMARK    7  A    between atoms: N_10  and  C_11
REMARK    8  A    between atoms: C_19  and  C_21
REMARK                            x       y       z     vdW  Elec       q    Type
REMARK                         _______ _______ _______ _____ _____    ______ ____
ROOT
ATOM      1  C   UNL     1      49.219   7.261  12.638  0.00  0.00    +0.000 C 
ENDROOT
BRANCH   1   2
ATOM      2  C   UNL     1      47.884   6.580  12.629  0.00  0.00    +0.000 A 
ATOM      3  C   UNL     1      47.560   5.687  13.658  0.00  0.00    +0.000 A 
ATOM      4  C   UNL     1      46.340   5.022  13.631  0.00  0.00    +0.000 A 
ATOM      5  C   UNL     1      45.429   5.259  12.595  0.00  0.00    +0.000 A 
ATOM      6  C   UNL     1      45.771   6.146  11.565  0.00  0.00    +0.000 A 
ATOM      7  C   UNL     1      46.994   6.805  11.586  0.00  0.00    +0.000 A 
BRANCH   5   8
ATOM      8  C   UNL     1      44.105   4.547  12.517  0.00  0.00    +0.000 C 
BRANCH   8   9
ATOM      9  C   UNL     1      43.458   4.475  11.129  0.00  0.00    +0.000 C 
BRANCH   9  10
ATOM     10  N   UNL     1      43.638   3.171  10.475  0.00  0.00    +0.000 NA
ATOM     11  H   UNL     1      42.826   2.947   9.901  0.00  0.00    +0.000 HD
BRANCH  10  12
ATOM     12  C   UNL     1      44.874   3.112   9.688  0.00  0.00    +0.000 C 
ATOM     13  C   UNL     1      44.961   4.260   8.670  0.00  0.00    +0.000 C 
ATOM     14  C   UNL     1      46.236   4.172   7.840  0.00  0.00    +0.000 C 
ATOM     15  C   UNL     1      46.340   2.828   7.134  0.00  0.00    +0.000 C 
ATOM     16  C   UNL     1      46.249   1.670   8.124  0.00  0.00    +0.000 C 
ATOM     17  C   UNL     1      44.978   1.751   8.974  0.00  0.00    +0.000 C 
ENDBRANCH  10  12
ENDBRANCH   9  10
ENDBRANCH   8   9
ENDBRANCH   5   8
ENDBRANCH   1   2
BRANCH   1  19
ATOM     18  C   UNL     1      50.282   7.590  14.912  0.00  0.00    +0.000 C 
ATOM     19  N   UNL     1      49.513   8.116  13.789  0.00  0.00    +0.000 N 
ATOM     20  C   UNL     1      49.388   9.513  13.735  0.00  0.00    +0.000 C 
ATOM     21  O   UNL     1      49.885  10.229  14.603  0.00  0.00    +0.000 OA
BRANCH  20  22
ATOM     22  C   UNL     1      48.619  10.122  12.638  0.00  0.00    +0.000 A 
ATOM     23  C   UNL     1      47.253  10.360  12.677  0.00  0.00    +0.000 A 
ATOM     24  S   UNL     1      46.649  11.126  11.279  0.00  0.00    +0.000 S 
ATOM     25  C   UNL     1      48.213  11.292  10.637  0.00  0.00    +0.000 A 
ATOM     26  N   UNL     1      48.420  11.974   9.481  0.00  0.00    +0.000 NA
ATOM     27  C   UNL     1      49.661  12.075   9.146  0.00  0.00    +0.000 A 
ATOM     28  N   UNL     1      50.706  11.523   9.840  0.00  0.00    +0.000 N 
ATOM     29  C   UNL     1      50.535  10.703  10.935  0.00  0.00    +0.000 A 
ATOM     30  O   UNL     1      51.460  10.025  11.369  0.00  0.00    +0.000 OA
ATOM     31  C   UNL     1      49.166  10.678  11.426  0.00  0.00    +0.000 A 
ATOM     32  H   UNL     1      51.651  11.578   9.481  0.00  0.00    +0.000 HD
ENDBRANCH  20  22
ENDBRANCH   1  19
TORSDOF 7
ENDMDL
MODEL 9
REMARK VINA RESULT:    -6.562      1.924      2.990
REMARK INTER + INTRA:         -10.599
REMARK INTER:                  -9.385
REMARK INTRA:                  -1.215
REMARK UNBOUND:                -1.352
REMARK  Name = 
REMARK  8 active torsions:
REMARK  status: ('A' for Active; 'I' for Inactive)
REMARK    1  A    between atoms: C_1  and  N_2
REMARK    2  A    between atoms: N_2  and  C_3
REMARK    3  A    between atoms: C_3  and  C_4
REMARK    4  A    between atoms: C_7  and  C_8
REMARK    5  A    between atoms: C_8  and  C_9
REMARK    6  A    between atoms: C_9  and  N_10
REMARK    7  A    between atoms: N_10  and  C_11
REMARK    8  A    between atoms: C_19  and  C_21
REMARK                            x       y       z     vdW  Elec       q    Type
REMARK                         _______ _______ _______ _____ _____    ______ ____
ROOT
ATOM      1  C   UNL     1      49.462   8.386  15.255  0.00  0.00    +0.000 C 
ENDROOT
BRANCH   1   2
ATOM      2  C   UNL     1      48.399   7.982  14.278  0.00  0.00    +0.000 A 
ATOM      3  C   UNL     1      48.587   6.838  13.492  0.00  0.00    +0.000 A 
ATOM      4  C   UNL     1      47.623   6.483  12.556  0.00  0.00    +0.000 A 
ATOM      5  C   UNL     1      46.461   7.249  12.413  0.00  0.00    +0.000 A 
ATOM      6  C   UNL     1      46.292   8.399  13.197  0.00  0.00    +0.000 A 
ATOM      7  C   UNL     1      47.258   8.760  14.128  0.00  0.00    +0.000 A 
BRANCH   5   8
ATOM      8  C   UNL     1      45.400   6.911  11.400  0.00  0.00    +0.000 C 
BRANCH   8   9
ATOM      9  C   UNL     1      45.417   5.477  10.857  0.00  0.00    +0.000 C 
BRANCH   9  10
ATOM     10  N   UNL     1      44.287   5.184   9.965  0.00  0.00    +0.000 NA
ATOM     11  H   UNL     1      44.014   6.021   9.453  0.00  0.00    +0.000 HD
BRANCH  10  12
ATOM     12  C   UNL     1      44.577   4.075   9.049  0.00  0.00    +0.000 C 
ATOM     13  C   UNL     1      44.727   2.740   9.794  0.00  0.00    +0.000 C 
ATOM     14  C   UNL     1      45.056   1.602   8.836  0.00  0.00    +0.000 C 
ATOM     15  C   UNL     1      46.312   1.905   8.033  0.00  0.00    +0.000 C 
ATOM     16  C   UNL     1      46.191   3.232   7.289  0.00  0.00    +0.000 C 
ATOM     17  C   UNL     1      45.849   4.384   8.237  0.00  0.00    +0.000 C 
ENDBRANCH  10  12
ENDBRANCH   9  10
ENDBRANCH   8   9
ENDBRANCH   5   8
ENDBRANCH   1   2
BRANCH   1  19
ATOM     18  C   UNL     1      51.866   7.842  14.678  0.00  0.00    +0.000 C 
ATOM     19  N   UNL     1      50.624   7.503  15.364  0.00  0.00    +0.000 N 
ATOM     20  C   UNL     1      50.725   6.520  16.362  0.00  0.00    +0.000 C 
ATOM     21  O   UNL     1      51.799   5.975  16.609  0.00  0.00    +0.000 OA
BRANCH  20  22
ATOM     22  C   UNL     1      49.515   6.115  17.094  0.00  0.00    +0.000 A 
ATOM     23  C   UNL     1      48.711   5.040  16.746  0.00  0.00    +0.000 A 
ATOM     24  S   UNL     1      47.408   4.782  17.814  0.00  0.00    +0.000 S 
ATOM     25  C   UNL     1      47.955   6.010  18.853  0.00  0.00    +0.000 A 
ATOM     26  N   UNL     1      47.337   6.241  20.039  0.00  0.00    +0.000 NA
ATOM     27  C   UNL     1      47.897   7.158  20.753  0.00  0.00    +0.000 A 
ATOM     28  N   UNL     1      48.991   7.888  20.370  0.00  0.00    +0.000 N 
ATOM     29  C   UNL     1      49.563   7.791  19.119  0.00  0.00    +0.000 A 
ATOM     30  O   UNL     1      50.363   8.631  18.722  0.00  0.00    +0.000 OA
ATOM     31  C   UNL     1      49.051   6.675  18.339  0.00  0.00    +0.000 A 
ATOM     32  H   UNL     1      49.335   8.645  20.948  0.00  0.00    +0.000 HD
ENDBRANCH  20  22
ENDBRANCH   1  19
TORSDOF 7
ENDMDL
