MODEL 1
REMARK VINA RESULT:    -7.227      0.000      0.000
REMARK INTER + INTRA:          -9.256
REMARK INTER:                  -8.495
REMARK INTRA:                  -0.761
REMARK UNBOUND:                -0.761
REMARK  Name = 
REMARK  3 active torsions:
REMARK  status: ('A' for Active; 'I' for Inactive)
REMARK    1  A    between atoms: N_5  and  C_6
REMARK    2  A    between atoms: C_6  and  C_7
REMARK    3  A    between atoms: C_11  and  C_12
REMARK                            x       y       z     vdW  Elec       q    Type
REMARK                         _______ _______ _______ _____ _____    ______ ____
ROOT
ATOM      1  C   UNL     1      45.105   5.140  12.208  0.00  0.00    +0.000 A 
ATOM      2  C   UNL     1      45.635   4.199  13.103  0.00  0.00    +0.000 A 
ATOM      3  C   UNL     1      46.874   4.396  13.709  0.00  0.00    +0.000 A 
ATOM      4  C   UNL     1      47.615   5.543  13.426  0.00  0.00    +0.000 A 
ATOM      5  C   UNL     1      47.127   6.525  12.550  0.00  0.00    +0.000 A 
ATOM      6  C   UNL     1      45.852   6.316  11.990  0.00  0.00    +0.000 A 
ENDROOT
BRANCH   5   7
ATOM      7  C   UNL     1      47.941   7.697  12.164  0.00  0.00    +0.000 A 
ATOM      8  C   UNL     1      49.292   7.593  11.805  0.00  0.00    +0.000 A 
ATOM      9  C   UNL     1      50.035   8.739  11.517  0.00  0.00    +0.000 A 
ATOM     10  C   UNL     1      49.409   9.970  11.586  0.00  0.00    +0.000 A 
ATOM     11  N   UNL     1      48.114  10.127  11.915  0.00  0.00    +0.000 NA
ATOM     12  C   UNL     1      47.420   8.995  12.200  0.00  0.00    +0.000 A 
ENDBRANCH   5   7
BRANCH   1  13
ATOM     13  C   UNL     1      43.822   4.850  11.432  0.00  0.00    +0.000 C 
ATOM     14  C   UNL     1      42.487   5.160  12.106  0.00  0.00    +0.000 C 
ATOM     15  C   UNL     1      43.000   6.063  11.036  0.00  0.00    +0.000 C 
BRANCH  13  20
ATOM     16  C   UNL     1      46.350   2.727   7.520  0.00  0.00    +0.000 A 
ATOM     17  C   UNL     1      45.848   1.786   8.375  0.00  0.00    +0.000 A 
ATOM     18  N   UNL     1      45.043   2.078   9.416  0.00  0.00    +0.000 NA
ATOM     19  C   UNL     1      44.742   3.373   9.613  0.00  0.00    +0.000 A 
ATOM     20  N   UNL     1      43.844   3.607  10.656  0.00  0.00    +0.000 N 
ATOM     21  N   UNL     1      45.205   4.373   8.840  0.00  0.00    +0.000 NA
ATOM     22  C   UNL     1      45.988   4.021   7.801  0.00  0.00    +0.000 A 
ATOM     23  H   UNL     1      43.772   2.732  11.161  0.00  0.00    +0.000 HD
ENDBRANCH  13  20
ENDBRANCH   1  13
TORSDOF 3
ENDMDL
MODEL 2
REMARK VINA RESULT:    -7.221      2.151      3.665
REMARK INTER + INTRA:          -9.249
REMARK INTER:                  -8.704
REMARK INTRA:                  -0.544
REMARK UNBOUND:                -0.761
REMARK  Name = 
REMARK  3 active torsions:
REMARK  status: ('A' for Active; 'I' for Inactive)
REMARK    1  A    between atoms: N_5  and  C_6
REMARK    2  A    between atoms: C_6  and  C_7
REMARK    3  A    between atoms: C_11  and  C_12
REMARK                            x       y       z     vdW  Elec       q    Type
REMARK                         _______ _______ _______ _____ _____    ______ ____
ROOT
ATOM      1  C   UNL     1      45.428   5.316  12.070  0.00  0.00    +0.000 A 
ATOM      2  C   UNL     1      46.130   6.347  11.429  0.00  0.00    +0.000 A 
ATOM      3  C   UNL     1      47.297   6.876  11.977  0.00  0.00    +0.000 A 
ATOM      4  C   UNL     1      47.786   6.384  13.187  0.00  0.00    +0.000 A 
ATOM      5  C   UNL     1      47.133   5.341  13.863  0.00  0.00    +0.000 A 
ATOM      6  C   UNL     1      45.982   4.799  13.260  0.00  0.00    +0.000 A 
ENDROOT
BRANCH   5   7
ATOM      7  C   UNL     1      47.582   4.876  15.192  0.00  0.00    +0.000 A 
ATOM      8  C   UNL     1      47.229   3.624  15.714  0.00  0.00    +0.000 A 
ATOM      9  C   UNL     1      47.621   3.261  17.003  0.00  0.00    +0.000 A 
ATOM     10  C   UNL     1      48.368   4.156  17.746  0.00  0.00    +0.000 A 
ATOM     11  N   UNL     1      48.744   5.366  17.291  0.00  0.00    +0.000 NA
ATOM     12  C   UNL     1      48.338   5.695  16.039  0.00  0.00    +0.000 A 
ENDBRANCH   5   7
BRANCH   1  13
ATOM     13  C   UNL     1      44.073   4.845  11.546  0.00  0.00    +0.000 C 
ATOM     14  C   UNL     1      42.846   5.057  12.431  0.00  0.00    +0.000 C 
ATOM     15  C   UNL     1      43.063   5.939  11.248  0.00  0.00    +0.000 C 
BRANCH  13  20
ATOM     16  C   UNL     1      46.219   2.719   7.414  0.00  0.00    +0.000 A 
ATOM     17  C   UNL     1      45.931   1.790   8.376  0.00  0.00    +0.000 A 
ATOM     18  N   UNL     1      45.256   2.073   9.508  0.00  0.00    +0.000 NA
ATOM     19  C   UNL     1      44.865   3.347   9.685  0.00  0.00    +0.000 A 
ATOM     20  N   UNL     1      44.103   3.565  10.834  0.00  0.00    +0.000 N 
ATOM     21  N   UNL     1      45.119   4.335   8.807  0.00  0.00    +0.000 NA
ATOM     22  C   UNL     1      45.779   3.991   7.684  0.00  0.00    +0.000 A 
ATOM     23  H   UNL     1      44.185   2.718  11.385  0.00  0.00    +0.000 HD
ENDBRANCH  13  20
ENDBRANCH   1  13
TORSDOF 3
ENDMDL
MODEL 3
REMARK VINA RESULT:    -6.387      2.609      7.121
REMARK INTER + INTRA:          -8.268
REMARK INTER:                  -7.597
REMARK INTRA:                  -0.671
REMARK UNBOUND:                -0.761
REMARK  Name = 
REMARK  3 active torsions:
REMARK  status: ('A' for Active; 'I' for Inactive)
REMARK    1  A    between atoms: N_5  and  C_6
REMARK    2  A    between atoms: C_6  and  C_7
REMARK    3  A    between atoms: C_11  and  C_12
REMARK                            x       y       z     vdW  Elec       q    Type
REMARK                         _______ _______ _______ _____ _____    ______ ____
ROOT
ATOM      1  C   UNL     1      47.446   7.701  12.300  0.00  0.00    +0.000 A 
ATOM      2  C   UNL     1      46.474   8.685  12.534  0.00  0.00    +0.000 A 
ATOM      3  C   UNL     1      45.150   8.501  12.140  0.00  0.00    +0.000 A 
ATOM      4  C   UNL     1      44.772   7.325  11.494  0.00  0.00    +0.000 A 
ATOM      5  C   UNL     1      45.699   6.300  11.248  0.00  0.00    +0.000 A 
ATOM      6  C   UNL     1      47.018   6.499  11.700  0.00  0.00    +0.000 A 
ENDROOT
BRANCH   5   7
ATOM      7  C   UNL     1      45.336   5.091  10.480  0.00  0.00    +0.000 A 
ATOM      8  C   UNL     1      45.595   4.961   9.108  0.00  0.00    +0.000 A 
ATOM      9  C   UNL     1      45.168   3.827   8.414  0.00  0.00    +0.000 A 
ATOM     10  C   UNL     1      44.496   2.839   9.108  0.00  0.00    +0.000 A 
ATOM     11  N   UNL     1      44.230   2.907  10.426  0.00  0.00    +0.000 NA
ATOM     12  C   UNL     1      44.647   4.026  11.071  0.00  0.00    +0.000 A 
ENDBRANCH   5   7
BRANCH   1  13
ATOM     13  C   UNL     1      48.920   7.968  12.595  0.00  0.00    +0.000 C 
ATOM     14  C   UNL     1      49.842   8.300  11.423  0.00  0.00    +0.000 C 
ATOM     15  C   UNL     1      49.399   9.387  12.344  0.00  0.00    +0.000 C 
BRANCH  13  20
ATOM     16  C   UNL     1      48.730   7.151  17.645  0.00  0.00    +0.000 A 
ATOM     17  C   UNL     1      49.072   6.019  16.956  0.00  0.00    +0.000 A 
ATOM     18  N   UNL     1      49.307   5.997  15.629  0.00  0.00    +0.000 NA
ATOM     19  C   UNL     1      49.179   7.159  14.965  0.00  0.00    +0.000 A 
ATOM     20  N   UNL     1      49.510   7.091  13.610  0.00  0.00    +0.000 N 
ATOM     21  N   UNL     1      48.826   8.318  15.550  0.00  0.00    +0.000 NA
ATOM     22  C   UNL     1      48.624   8.287  16.882  0.00  0.00    +0.000 A 
ATOM     23  H   UNL     1      49.591   6.104  13.394  0.00  0.00    +0.000 HD
ENDBRANCH  13  20
ENDBRANCH   1  13
TORSDOF 3
ENDMDL
MODEL 4
REMARK VINA RESULT:    -6.365      2.248      6.648
REMARK INTER + INTRA:          -8.243
REMARK INTER:                  -8.089
REMARK INTRA:                  -0.154
REMARK UNBOUND:                -0.761
REMARK  Name = 
REMARK  3 active torsions:
REMARK  status: ('A' for Active; 'I' for Inactive)
REMARK    1  A    between atoms: N_5  and  C_6
REMARK    2  A    between atoms: C_6  and  C_7
REMARK    3  A    between atoms: C_11  and  C_12
REMARK                            x       y       z     vdW  Elec       q    Type
REMARK                         _______ _______ _______ _____ _____    ______ ____
ROOT
ATOM      1  C   UNL     1      45.051   6.428  11.904  0.00  0.00    +0.000 A 
ATOM      2  C   UNL     1      43.726   6.189  12.297  0.00  0.00    +0.000 A 
ATOM      3  C   UNL     1      42.963   5.189  11.697  0.00  0.00    +0.000 A 
ATOM      4  C   UNL     1      43.514   4.405  10.682  0.00  0.00    +0.000 A 
ATOM      5  C   UNL     1      44.839   4.589  10.261  0.00  0.00    +0.000 A 
ATOM      6  C   UNL     1      45.596   5.579  10.918  0.00  0.00    +0.000 A 
ENDROOT
BRANCH   5   7
ATOM      7  C   UNL     1      45.405   3.835   9.123  0.00  0.00    +0.000 A 
ATOM      8  C   UNL     1      45.486   2.436   9.108  0.00  0.00    +0.000 A 
ATOM      9  C   UNL     1      46.093   1.775   8.039  0.00  0.00    +0.000 A 
ATOM     10  C   UNL     1      46.602   2.528   6.997  0.00  0.00    +0.000 A 
ATOM     11  N   UNL     1      46.543   3.872   6.954  0.00  0.00    +0.000 NA
ATOM     12  C   UNL     1      45.957   4.487   8.013  0.00  0.00    +0.000 A 
ENDBRANCH   5   7
BRANCH   1  13
ATOM     13  C   UNL     1      45.831   7.620  12.454  0.00  0.00    +0.000 C 
ATOM     14  C   UNL     1      46.957   7.347  13.450  0.00  0.00    +0.000 C 
ATOM     15  C   UNL     1      47.289   7.705  12.040  0.00  0.00    +0.000 C 
BRANCH  13  20
ATOM     16  C   UNL     1      45.037  12.379  10.744  0.00  0.00    +0.000 A 
ATOM     17  C   UNL     1      43.934  11.870  11.374  0.00  0.00    +0.000 A 
ATOM     18  N   UNL     1      43.922  10.686  12.016  0.00  0.00    +0.000 NA
ATOM     19  C   UNL     1      45.063   9.977  12.014  0.00  0.00    +0.000 A 
ATOM     20  N   UNL     1      45.014   8.797  12.760  0.00  0.00    +0.000 N 
ATOM     21  N   UNL     1      46.193  10.381  11.405  0.00  0.00    +0.000 NA
ATOM     22  C   UNL     1      46.155  11.583  10.796  0.00  0.00    +0.000 A 
ATOM     23  H   UNL     1      44.036   8.651  12.982  0.00  0.00    +0.000 HD
ENDBRANCH  13  20
ENDBRANCH   1  13
TORSDOF 3
ENDMDL
MODEL 5
REMARK VINA RESULT:    -5.868      4.156      7.402
REMARK INTER + INTRA:          -7.659
REMARK INTER:                  -7.228
REMARK INTRA:                  -0.431
REMARK UNBOUND:                -0.761
REMARK  Name = 
REMARK  3 active torsions:
REMARK  status: ('A' for Active; 'I' for Inactive)
REMARK    1  A    between atoms: N_5  and  C_6
REMARK    2  A    between atoms: C_6  and  C_7
REMARK    3  A    between atoms: C_11  and  C_12
REMARK                            x       y       z     vdW  Elec       q    Type
REMARK                         _______ _______ _______ _____ _____    ______ ____
ROOT
ATOM      1  C   UNL     1      44.775   9.817  11.327  0.00  0.00    +0.000 A 
ATOM      2  C   UNL     1      45.851  10.170  12.155  0.00  0.00    +0.000 A 
ATOM      3  C   UNL     1      46.500   9.219  12.941  0.00  0.00    +0.000 A 
ATOM      4  C   UNL     1      46.078   7.889  12.918  0.00  0.00    +0.000 A 
ATOM      5  C   UNL     1      45.017   7.478  12.095  0.00  0.00    +0.000 A 
ATOM      6  C   UNL     1      44.414   8.455  11.280  0.00  0.00    +0.000 A 
ENDROOT
BRANCH   5   7
ATOM      7  C   UNL     1      44.497   6.095  12.132  0.00  0.00    +0.000 A 
ATOM      8  C   UNL     1      43.450   5.659  11.307  0.00  0.00    +0.000 A 
ATOM      9  C   UNL     1      42.948   4.363  11.431  0.00  0.00    +0.000 A 
ATOM     10  C   UNL     1      43.509   3.521  12.374  0.00  0.00    +0.000 A 
ATOM     11  N   UNL     1      44.520   3.884  13.184  0.00  0.00    +0.000 NA
ATOM     12  C   UNL     1      44.980   5.154  13.048  0.00  0.00    +0.000 A 
ENDBRANCH   5   7
BRANCH   1  13
ATOM     13  C   UNL     1      43.973  10.885  10.586  0.00  0.00    +0.000 C 
ATOM     14  C   UNL     1      44.671  11.671   9.477  0.00  0.00    +0.000 C 
ATOM     15  C   UNL     1      43.693  10.603   9.120  0.00  0.00    +0.000 C 
BRANCH  13  20
ATOM     16  C   UNL     1      39.106  10.945  12.171  0.00  0.00    +0.000 A 
ATOM     17  C   UNL     1      39.944  11.548  13.068  0.00  0.00    +0.000 A 
ATOM     18  N   UNL     1      41.253  11.770  12.834  0.00  0.00    +0.000 NA
ATOM     19  C   UNL     1      41.742  11.355  11.653  0.00  0.00    +0.000 A 
ATOM     20  N   UNL     1      43.082  11.681  11.435  0.00  0.00    +0.000 N 
ATOM     21  N   UNL     1      41.004  10.734  10.715  0.00  0.00    +0.000 NA
ATOM     22  C   UNL     1      39.697  10.557  10.994  0.00  0.00    +0.000 A 
ATOM     23  H   UNL     1      43.439  11.999  12.328  0.00  0.00    +0.000 HD
ENDBRANCH  13  20
ENDBRANCH   1  13
TORSDOF 3
ENDMDL
MODEL 6
REMARK VINA RESULT:    -5.857      3.415      5.513
REMARK INTER + INTRA:          -7.645
REMARK INTER:                  -7.280
REMARK INTRA:                  -0.365
REMARK UNBOUND:                -0.761
REMARK  Name = 
REMARK  3 active torsions:
REMARK  status: ('A' for Active; 'I' for Inactive)
REMARK    1  A    between atoms: N_5  and  C_6
REMARK    2  A    between atoms: C_6  and  C_7
REMARK    3  A    between atoms: C_11  and  C_12
REMARK                            x       y       z     vdW  Elec       q    Type
REMARK                         _______ _______ _______ _____ _____    ______ ____
ROOT
ATOM      1  C   UNL     1      47.025   6.055  13.321  0.00  0.00    +0.000 A 
ATOM      2  C   UNL     1      48.387   5.945  13.001  0.00  0.00    +0.000 A 
ATOM      3  C   UNL     1      49.083   7.008  12.429  0.00  0.00    +0.000 A 
ATOM      4  C   UNL     1      48.425   8.209  12.160  0.00  0.00    +0.000 A 
ATOM      5  C   UNL     1      47.068   8.380  12.475  0.00  0.00    +0.000 A 
ATOM      6  C   UNL     1      46.406   7.301  13.093  0.00  0.00    +0.000 A 
ENDROOT
BRANCH   5   7
ATOM      7  C   UNL     1      46.334   9.609  12.108  0.00  0.00    +0.000 A 
ATOM      8  C   UNL     1      46.983  10.792  11.726  0.00  0.00    +0.000 A 
ATOM      9  C   UNL     1      46.245  11.946  11.456  0.00  0.00    +0.000 A 
ATOM     10  C   UNL     1      44.868  11.893  11.567  0.00  0.00    +0.000 A 
ATOM     11  N   UNL     1      44.193  10.783  11.919  0.00  0.00    +0.000 NA
ATOM     12  C   UNL     1      44.939   9.680  12.185  0.00  0.00    +0.000 A 
ENDBRANCH   5   7
BRANCH   1  13
ATOM     13  C   UNL     1      46.232   4.843  13.805  0.00  0.00    +0.000 C 
ATOM     14  C   UNL     1      44.926   4.504  13.089  0.00  0.00    +0.000 C 
ATOM     15  C   UNL     1      46.143   3.680  12.832  0.00  0.00    +0.000 C 
BRANCH  13  20
ATOM     16  C   UNL     1      48.998   2.753  17.571  0.00  0.00    +0.000 A 
ATOM     17  C   UNL     1      48.245   3.806  18.013  0.00  0.00    +0.000 A 
ATOM     18  N   UNL     1      47.341   4.450  17.248  0.00  0.00    +0.000 NA
ATOM     19  C   UNL     1      47.199   4.025  15.980  0.00  0.00    +0.000 A 
ATOM     20  N   UNL     1      46.196   4.676  15.260  0.00  0.00    +0.000 N 
ATOM     21  N   UNL     1      47.909   3.013  15.448  0.00  0.00    +0.000 NA
ATOM     22  C   UNL     1      48.783   2.392  16.264  0.00  0.00    +0.000 A 
ATOM     23  H   UNL     1      45.926   5.475  15.822  0.00  0.00    +0.000 HD
ENDBRANCH  13  20
ENDBRANCH   1  13
TORSDOF 3
ENDMDL
MODEL 7
REMARK VINA RESULT:    -5.606      3.858      7.184
REMARK INTER + INTRA:          -7.351
REMARK INTER:                  -6.985
REMARK INTRA:                  -0.366
REMARK UNBOUND:                -0.761
REMARK  Name = 
REMARK  3 active torsions:
REMARK  status: ('A' for Active; 'I' for Inactive)
REMARK    1  A    between atoms: N_5  and  C_6
REMARK    2  A    between atoms: C_6  and  C_7
REMARK    3  A    between atoms: C_11  and  C_12
REMARK                            x       y       z     vdW  Elec       q    Type
REMARK                         _______ _______ _______ _____ _____    ______ ____
ROOT
ATOM      1  C   UNL     1      49.114   7.410  14.767  0.00  0.00    +0.000 A 
ATOM      2  C   UNL     1      50.020   7.882  13.806  0.00  0.00    +0.000 A 
ATOM      3  C   UNL     1      49.792   7.692  12.444  0.00  0.00    +0.000 A 
ATOM      4  C   UNL     1      48.649   7.017  12.015  0.00  0.00    +0.000 A 
ATOM      5  C   UNL     1      47.702   6.537  12.932  0.00  0.00    +0.000 A 
ATOM      6  C   UNL     1      47.940   6.786  14.298  0.00  0.00    +0.000 A 
ENDROOT
BRANCH   5   7
ATOM      7  C   UNL     1      46.537   5.736  12.500  0.00  0.00    +0.000 A 
ATOM      8  C   UNL     1      45.935   5.894  11.244  0.00  0.00    +0.000 A 
ATOM      9  C   UNL     1      44.795   5.162  10.911  0.00  0.00    +0.000 A 
ATOM     10  C   UNL     1      44.280   4.277  11.841  0.00  0.00    +0.000 A 
ATOM     11  N   UNL     1      44.822   4.079  13.057  0.00  0.00    +0.000 NA
ATOM     12  C   UNL     1      45.924   4.813  13.355  0.00  0.00    +0.000 A 
ENDBRANCH   5   7
BRANCH   1  13
ATOM     13  C   UNL     1      49.441   7.485  16.257  0.00  0.00    +0.000 C 
ATOM     14  C   UNL     1      50.076   8.768  16.792  0.00  0.00    +0.000 C 
ATOM     15  C   UNL     1      48.636   8.491  17.061  0.00  0.00    +0.000 C 
BRANCH  13  20
ATOM     16  C   UNL     1      47.888   2.799  17.609  0.00  0.00    +0.000 A 
ATOM     17  C   UNL     1      49.213   2.822  17.272  0.00  0.00    +0.000 A 
ATOM     18  N   UNL     1      49.894   3.952  16.995  0.00  0.00    +0.000 NA
ATOM     19  C   UNL     1      49.208   5.107  17.048  0.00  0.00    +0.000 A 
ATOM     20  N   UNL     1      49.981   6.249  16.829  0.00  0.00    +0.000 N 
ATOM     21  N   UNL     1      47.899   5.185  17.348  0.00  0.00    +0.000 NA
ATOM     22  C   UNL     1      47.274   4.027  17.636  0.00  0.00    +0.000 A 
ATOM     23  H   UNL     1      50.874   5.917  16.483  0.00  0.00    +0.000 HD
ENDBRANCH  13  20
ENDBRANCH   1  13
TORSDOF 3
ENDMDL
MODEL 8
REMARK VINA RESULT:    -5.513      3.073      4.381
REMARK INTER + INTRA:          -7.240
REMARK INTER:                  -6.619
REMARK INTRA:                  -0.621
REMARK UNBOUND:                -0.761
REMARK  Name = 
REMARK  3 active torsions:
REMARK  status: ('A' for Active; 'I' for Inactive)
REMARK    1  A    between atoms: N_5  and  C_6
REMARK    2  A    between atoms: C_6  and  C_7
REMARK    3  A    between atoms: C_11  and  C_12
REMARK                            x       y       z     vdW  Elec       q    Type
REMARK                         _______ _______ _______ _____ _____    ______ ____
ROOT
ATOM      1  C   UNL     1      46.987   7.506  12.620  0.00  0.00    +0.000 A 
ATOM      2  C   UNL     1      47.821   7.737  11.516  0.00  0.00    +0.000 A 
ATOM      3  C   UNL     1      49.208   7.675  11.634  0.00  0.00    +0.000 A 
ATOM      4  C   UNL     1      49.792   7.384  12.867  0.00  0.00    +0.000 A 
ATOM      5  C   UNL     1      49.005   7.129  14.001  0.00  0.00    +0.000 A 
ATOM      6  C   UNL     1      47.606   7.155  13.837  0.00  0.00    +0.000 A 
ENDROOT
BRANCH   5   7
ATOM      7  C   UNL     1      49.608   6.916  15.333  0.00  0.00    +0.000 A 
ATOM      8  C   UNL     1      50.922   7.297  15.638  0.00  0.00    +0.000 A 
ATOM      9  C   UNL     1      51.468   7.010  16.890  0.00  0.00    +0.000 A 
ATOM     10  C   UNL     1      50.684   6.351  17.820  0.00  0.00    +0.000 A 
ATOM     11  N   UNL     1      49.414   5.972  17.584  0.00  0.00    +0.000 NA
ATOM     12  C   UNL     1      48.916   6.255  16.354  0.00  0.00    +0.000 A 
ENDBRANCH   5   7
BRANCH   1  13
ATOM     13  C   UNL     1      45.478   7.724  12.523  0.00  0.00    +0.000 C 
ATOM     14  C   UNL     1      44.933   9.125  12.793  0.00  0.00    +0.000 C 
ATOM     15  C   UNL     1      45.011   8.622  11.391  0.00  0.00    +0.000 C 
BRANCH  13  20
ATOM     16  C   UNL     1      43.752   3.091  11.200  0.00  0.00    +0.000 A 
ATOM     17  C   UNL     1      43.881   3.221  12.555  0.00  0.00    +0.000 A 
ATOM     18  N   UNL     1      44.202   4.378  13.166  0.00  0.00    +0.000 NA
ATOM     19  C   UNL     1      44.414   5.447  12.379  0.00  0.00    +0.000 A 
ATOM     20  N   UNL     1      44.666   6.634  13.070  0.00  0.00    +0.000 N 
ATOM     21  N   UNL     1      44.333   5.414  11.037  0.00  0.00    +0.000 NA
ATOM     22  C   UNL     1      43.989   4.236  10.480  0.00  0.00    +0.000 A 
ATOM     23  H   UNL     1      44.821   6.365  14.035  0.00  0.00    +0.000 HD
ENDBRANCH  13  20
ENDBRANCH   1  13
TORSDOF 3
ENDMDL
MODEL 9
REMARK VINA RESULT:    -5.428      2.882      6.720
REMARK INTER + INTRA:          -7.141
REMARK INTER:                  -7.054
REMARK INTRA:                  -0.087
REMARK UNBOUND:                -0.761
REMARK  Name = 
REMARK  3 active torsions:
REMARK  status: ('A' for Active; 'I' for Inactive)
REMARK    1  A    between atoms: N_5  and  C_6
REMARK    2  A    between atoms: C_6  and  C_7
REMARK    3  A    between atoms: C_11  and  C_12
REMARK                            x       y       z     vdW  Elec       q    Type
REMARK                         _______ _______ _______ _____ _____    ______ ____
ROOT
ATOM      1  C   UNL     1      47.255   9.267  12.042  0.00  0.00    +0.000 A 
ATOM      2  C   UNL     1      48.572   8.813  12.205  0.00  0.00    +0.000 A 
ATOM      3  C   UNL     1      48.850   7.465  12.423  0.00  0.00    +0.000 A 
ATOM      4  C   UNL     1      47.809   6.539  12.488  0.00  0.00    +0.000 A 
ATOM      5  C   UNL     1      46.473   6.935  12.316  0.00  0.00    +0.000 A 
ATOM      6  C   UNL     1      46.231   8.297  12.053  0.00  0.00    +0.000 A 
ENDROOT
BRANCH   5   7
ATOM      7  C   UNL     1      45.354   5.984  12.480  0.00  0.00    +0.000 A 
ATOM      8  C   UNL     1      44.063   6.246  11.999  0.00  0.00    +0.000 A 
ATOM      9  C   UNL     1      43.024   5.346  12.241  0.00  0.00    +0.000 A 
ATOM     10  C   UNL     1      43.298   4.193  12.955  0.00  0.00    +0.000 A 
ATOM     11  N   UNL     1      44.519   3.887  13.430  0.00  0.00    +0.000 NA
ATOM     12  C   UNL     1      45.506   4.787  13.188  0.00  0.00    +0.000 A 
ENDBRANCH   5   7
BRANCH   1  13
ATOM     13  C   UNL     1      46.944  10.759  11.956  0.00  0.00    +0.000 C 
ATOM     14  C   UNL     1      47.985  11.744  12.484  0.00  0.00    +0.000 C 
ATOM     15  C   UNL     1      47.821  11.564  11.012  0.00  0.00    +0.000 C 
BRANCH  13  20
ATOM     16  C   UNL     1      42.352  10.854   9.697  0.00  0.00    +0.000 A 
ATOM     17  C   UNL     1      42.252  10.702  11.052  0.00  0.00    +0.000 A 
ATOM     18  N   UNL     1      43.306  10.766  11.890  0.00  0.00    +0.000 NA
ATOM     19  C   UNL     1      44.513  10.979  11.338  0.00  0.00    +0.000 A 
ATOM     20  N   UNL     1      45.554  11.114  12.259  0.00  0.00    +0.000 N 
ATOM     21  N   UNL     1      44.716  11.119  10.015  0.00  0.00    +0.000 NA
ATOM     22  C   UNL     1      43.624  11.067   9.227  0.00  0.00    +0.000 A 
ATOM     23  H   UNL     1      45.175  10.821  13.151  0.00  0.00    +0.000 HD
ENDBRANCH  13  20
ENDBRANCH   1  13
TORSDOF 3
ENDMDL
