MODEL 1
REMARK VINA RESULT:    -7.103      0.000      0.000
REMARK INTER + INTRA:         -11.913
REMARK INTER:                 -10.840
REMARK INTRA:                  -1.073
REMARK UNBOUND:                -1.073
REMARK  Name = 
REMARK  11 active torsions:
REMARK  status: ('A' for Active; 'I' for Inactive)
REMARK    1  A    between atoms: C_1  and  C_2
REMARK    2  A    between atoms: C_2  and  C_3
REMARK    3  A    between atoms: C_2  and  C_4
REMARK    4  A    between atoms: C_4  and  N_5
REMARK    5  A    between atoms: N_5  and  C_6
REMARK    6  A    between atoms: N_5  and  C_17
REMARK    7  A    between atoms: C_6  and  C_7
REMARK    8  A    between atoms: C_7  and  C_8
REMARK    9  A    between atoms: C_11  and  C_12
REMARK   10  A    between atoms: C_21  and  O_22
REMARK   11  A    between atoms: O_22  and  C_23
REMARK                            x       y       z     vdW  Elec       q    Type
REMARK                         _______ _______ _______ _____ _____    ______ ____
ROOT
ATOM      1  N   UNL     1      45.801   5.564  11.986  0.00  0.00    +0.000 N 
ENDROOT
BRANCH   1   2
ATOM      2  C   UNL     1      46.571   6.432  12.775  0.00  0.00    +0.000 A 
ATOM      3  C   UNL     1      46.326   7.816  12.836  0.00  0.00    +0.000 A 
ATOM      4  C   UNL     1      47.041   8.671  13.686  0.00  0.00    +0.000 A 
ATOM      5  C   UNL     1      48.061   8.172  14.486  0.00  0.00    +0.000 A 
ATOM      6  C   UNL     1      48.360   6.820  14.423  0.00  0.00    +0.000 A 
ATOM      7  C   UNL     1      47.612   5.967  13.597  0.00  0.00    +0.000 A 
BRANCH   6   8
ATOM      8  O   UNL     1      49.341   6.210  15.167  0.00  0.00    +0.000 OA
BRANCH   8   9
ATOM      9  C   UNL     1      49.137   6.069  16.593  0.00  0.00    +0.000 C 
ATOM     10  C   UNL     1      50.348   5.685  17.468  0.00  0.00    +0.000 C 
ATOM     11  N   UNL     1      49.566   4.602  18.090  0.00  0.00    +0.000 NA
ATOM     12  C   UNL     1      48.551   4.711  17.031  0.00  0.00    +0.000 C 
ATOM     13  H   UNL     1      49.218   4.824  19.022  0.00  0.00    +0.000 HD
ENDBRANCH   8   9
ENDBRANCH   6   8
ENDBRANCH   1   2
BRANCH   1  14
ATOM     14  C   UNL     1      45.519   4.192  12.461  0.00  0.00    +0.000 C 
BRANCH  14  16
ATOM     15  C   UNL     1      43.242   5.215  13.060  0.00  0.00    +0.000 C 
ATOM     16  C   UNL     1      44.137   3.979  13.101  0.00  0.00    +0.000 C 
ATOM     17  C   UNL     1      43.424   2.830  12.365  0.00  0.00    +0.000 C 
ENDBRANCH  14  16
ENDBRANCH   1  14
BRANCH   1  18
ATOM     18  C   UNL     1      45.572   5.914  10.564  0.00  0.00    +0.000 C 
BRANCH  18  19
ATOM     19  C   UNL     1      44.581   5.030   9.790  0.00  0.00    +0.000 C 
BRANCH  19  20
ATOM     20  C   UNL     1      45.168   4.014   8.833  0.00  0.00    +0.000 A 
ATOM     21  C   UNL     1      45.060   2.647   9.074  0.00  0.00    +0.000 A 
ATOM     22  C   UNL     1      45.793   1.749   8.302  0.00  0.00    +0.000 A 
ATOM     23  C   UNL     1      46.607   2.232   7.283  0.00  0.00    +0.000 A 
ATOM     24  C   UNL     1      46.641   3.603   7.078  0.00  0.00    +0.000 A 
ATOM     25  N   UNL     1      45.940   4.496   7.826  0.00  0.00    +0.000 NA
BRANCH  23  26
ATOM     26  C   UNL     1      47.467   1.349   6.464  0.00  0.00    +0.000 C 
ATOM     27  N   UNL     1      48.599   1.890   5.919  0.00  0.00    +0.000 N 
ATOM     28  O   UNL     1      47.174   0.175   6.271  0.00  0.00    +0.000 OA
ATOM     29  H   UNL     1      48.988   2.771   6.221  0.00  0.00    +0.000 HD
ATOM     30  H   UNL     1      49.204   1.261   5.406  0.00  0.00    +0.000 HD
ENDBRANCH  23  26
ENDBRANCH  19  20
ENDBRANCH  18  19
ENDBRANCH   1  18
TORSDOF 9
ENDMDL
MODEL 2
REMARK VINA RESULT:    -6.980      2.539      8.336
REMARK INTER + INTRA:         -11.725
REMARK INTER:                 -10.592
REMARK INTRA:                  -1.133
REMARK UNBOUND:                -1.073
REMARK  Name = 
REMARK  11 active torsions:
REMARK  status: ('A' for Active; 'I' for Inactive)
REMARK    1  A    between atoms: C_1  and  C_2
REMARK    2  A    between atoms: C_2  and  C_3
REMARK    3  A    between atoms: C_2  and  C_4
REMARK    4  A    between atoms: C_4  and  N_5
REMARK    5  A    between atoms: N_5  and  C_6
REMARK    6  A    between atoms: N_5  and  C_17
REMARK    7  A    between atoms: C_6  and  C_7
REMARK    8  A    between atoms: C_7  and  C_8
REMARK    9  A    between atoms: C_11  and  C_12
REMARK   10  A    between atoms: C_21  and  O_22
REMARK   11  A    between atoms: O_22  and  C_23
REMARK                            x       y       z     vdW  Elec       q    Type
REMARK                         _______ _______ _______ _____ _____    ______ ____
ROOT
ATOM      1  N   UNL     1      46.427   5.362  13.484  0.00  0.00    +0.000 N 
ENDROOT
BRANCH   1   2
ATOM      2  C   UNL     1      45.457   5.098  12.505  0.00  0.00    +0.000 A 
ATOM      3  C   UNL     1      44.103   4.881  12.820  0.00  0.00    +0.000 A 
ATOM      4  C   UNL     1      43.120   4.699  11.838  0.00  0.00    +0.000 A 
ATOM      5  C   UNL     1      43.467   4.690  10.493  0.00  0.00    +0.000 A 
ATOM      6  C   UNL     1      44.798   4.859  10.144  0.00  0.00    +0.000 A 
ATOM      7  C   UNL     1      45.768   5.079  11.134  0.00  0.00    +0.000 A 
BRANCH   6   8
ATOM      8  O   UNL     1      45.261   4.873   8.851  0.00  0.00    +0.000 OA
BRANCH   8   9
ATOM      9  C   UNL     1      45.192   3.650   8.080  0.00  0.00    +0.000 C 
ATOM     10  C   UNL     1      45.542   2.323   8.786  0.00  0.00    +0.000 C 
ATOM     11  N   UNL     1      46.469   1.977   7.694  0.00  0.00    +0.000 NA
ATOM     12  C   UNL     1      46.430   3.365   7.206  0.00  0.00    +0.000 C 
ATOM     13  H   UNL     1      46.097   1.295   7.034  0.00  0.00    +0.000 HD
ENDBRANCH   8   9
ENDBRANCH   6   8
ENDBRANCH   1   2
BRANCH   1  14
ATOM     14  C   UNL     1      47.097   6.680  13.520  0.00  0.00    +0.000 C 
BRANCH  14  16
ATOM     15  C   UNL     1      48.769   7.562  11.783  0.00  0.00    +0.000 C 
ATOM     16  C   UNL     1      48.553   6.701  13.026  0.00  0.00    +0.000 C 
ATOM     17  C   UNL     1      49.452   7.233  14.156  0.00  0.00    +0.000 C 
ENDBRANCH  14  16
ENDBRANCH   1  14
BRANCH   1  18
ATOM     18  C   UNL     1      46.998   4.223  14.242  0.00  0.00    +0.000 C 
BRANCH  18  19
ATOM     19  C   UNL     1      47.096   4.393  15.767  0.00  0.00    +0.000 C 
BRANCH  19  20
ATOM     20  C   UNL     1      48.259   3.715  16.460  0.00  0.00    +0.000 A 
ATOM     21  C   UNL     1      49.103   4.421  17.314  0.00  0.00    +0.000 A 
ATOM     22  C   UNL     1      50.284   3.834  17.761  0.00  0.00    +0.000 A 
ATOM     23  C   UNL     1      50.593   2.537  17.365  0.00  0.00    +0.000 A 
ATOM     24  C   UNL     1      49.691   1.881  16.541  0.00  0.00    +0.000 A 
ATOM     25  N   UNL     1      48.537   2.440  16.087  0.00  0.00    +0.000 NA
BRANCH  23  26
ATOM     26  C   UNL     1      51.858   1.869  17.742  0.00  0.00    +0.000 C 
ATOM     27  N   UNL     1      51.813   0.528  18.013  0.00  0.00    +0.000 N 
ATOM     28  O   UNL     1      52.910   2.491  17.818  0.00  0.00    +0.000 OA
ATOM     29  H   UNL     1      51.033  -0.059  17.759  0.00  0.00    +0.000 HD
ATOM     30  H   UNL     1      52.695   0.075  18.218  0.00  0.00    +0.000 HD
ENDBRANCH  23  26
ENDBRANCH  19  20
ENDBRANCH  18  19
ENDBRANCH   1  18
TORSDOF 9
ENDMDL
MODEL 3
REMARK VINA RESULT:    -6.956      1.422      2.328
REMARK INTER + INTRA:         -11.688
REMARK INTER:                 -10.548
REMARK INTRA:                  -1.141
REMARK UNBOUND:                -1.073
REMARK  Name = 
REMARK  11 active torsions:
REMARK  status: ('A' for Active; 'I' for Inactive)
REMARK    1  A    between atoms: C_1  and  C_2
REMARK    2  A    between atoms: C_2  and  C_3
REMARK    3  A    between atoms: C_2  and  C_4
REMARK    4  A    between atoms: C_4  and  N_5
REMARK    5  A    between atoms: N_5  and  C_6
REMARK    6  A    between atoms: N_5  and  C_17
REMARK    7  A    between atoms: C_6  and  C_7
REMARK    8  A    between atoms: C_7  and  C_8
REMARK    9  A    between atoms: C_11  and  C_12
REMARK   10  A    between atoms: C_21  and  O_22
REMARK   11  A    between atoms: O_22  and  C_23
REMARK                            x       y       z     vdW  Elec       q    Type
REMARK                         _______ _______ _______ _____ _____    ______ ____
ROOT
ATOM      1  N   UNL     1      45.921   5.970  11.775  0.00  0.00    +0.000 N 
ENDROOT
BRANCH   1   2
ATOM      2  C   UNL     1      46.851   6.028  12.824  0.00  0.00    +0.000 A 
ATOM      3  C   UNL     1      47.963   6.891  12.802  0.00  0.00    +0.000 A 
ATOM      4  C   UNL     1      48.846   7.010  13.883  0.00  0.00    +0.000 A 
ATOM      5  C   UNL     1      48.668   6.234  15.022  0.00  0.00    +0.000 A 
ATOM      6  C   UNL     1      47.608   5.341  15.065  0.00  0.00    +0.000 A 
ATOM      7  C   UNL     1      46.708   5.259  13.992  0.00  0.00    +0.000 A 
BRANCH   6   8
ATOM      8  O   UNL     1      47.327   4.527  16.134  0.00  0.00    +0.000 OA
BRANCH   8   9
ATOM      9  C   UNL     1      48.369   4.287  17.110  0.00  0.00    +0.000 C 
ATOM     10  C   UNL     1      48.540   2.853  17.655  0.00  0.00    +0.000 C 
ATOM     11  N   UNL     1      48.517   3.366  19.036  0.00  0.00    +0.000 NA
ATOM     12  C   UNL     1      47.995   4.657  18.560  0.00  0.00    +0.000 C 
ATOM     13  H   UNL     1      49.436   3.427  19.472  0.00  0.00    +0.000 HD
ENDBRANCH   8   9
ENDBRANCH   6   8
ENDBRANCH   1   2
BRANCH   1  14
ATOM     14  C   UNL     1      45.580   7.198  11.025  0.00  0.00    +0.000 C 
BRANCH  14  16
ATOM     15  C   UNL     1      45.563   9.423  12.306  0.00  0.00    +0.000 C 
ATOM     16  C   UNL     1      44.747   8.238  11.794  0.00  0.00    +0.000 C 
ATOM     17  C   UNL     1      43.638   8.767  10.867  0.00  0.00    +0.000 C 
ENDBRANCH  14  16
ENDBRANCH   1  14
BRANCH   1  18
ATOM     18  C   UNL     1      45.059   4.770  11.657  0.00  0.00    +0.000 C 
BRANCH  18  19
ATOM     19  C   UNL     1      44.301   4.596  10.331  0.00  0.00    +0.000 C 
BRANCH  19  20
ATOM     20  C   UNL     1      45.002   3.819   9.236  0.00  0.00    +0.000 A 
ATOM     21  C   UNL     1      45.022   2.426   9.238  0.00  0.00    +0.000 A 
ATOM     22  C   UNL     1      45.853   1.745   8.352  0.00  0.00    +0.000 A 
ATOM     23  C   UNL     1      46.635   2.469   7.458  0.00  0.00    +0.000 A 
ATOM     24  C   UNL     1      46.540   3.852   7.489  0.00  0.00    +0.000 A 
ATOM     25  N   UNL     1      45.742   4.535   8.353  0.00  0.00    +0.000 NA
BRANCH  23  26
ATOM     26  C   UNL     1      47.591   1.823   6.532  0.00  0.00    +0.000 C 
ATOM     27  N   UNL     1      48.748   2.494   6.241  0.00  0.00    +0.000 N 
ATOM     28  O   UNL     1      47.356   0.729   6.033  0.00  0.00    +0.000 OA
ATOM     29  H   UNL     1      49.079   3.278   6.782  0.00  0.00    +0.000 HD
ATOM     30  H   UNL     1      49.415   2.016   5.648  0.00  0.00    +0.000 HD
ENDBRANCH  23  26
ENDBRANCH  19  20
ENDBRANCH  18  19
ENDBRANCH   1  18
TORSDOF 9
ENDMDL
MODEL 4
REMARK VINA RESULT:    -6.890      3.120      5.094
REMARK INTER + INTRA:         -11.588
REMARK INTER:                 -10.548
REMARK INTRA:                  -1.040
REMARK UNBOUND:                -1.073
REMARK  Name = 
REMARK  11 active torsions:
REMARK  status: ('A' for Active; 'I' for Inactive)
REMARK    1  A    between atoms: C_1  and  C_2
REMARK    2  A    between atoms: C_2  and  C_3
REMARK    3  A    between atoms: C_2  and  C_4
REMARK    4  A    between atoms: C_4  and  N_5
REMARK    5  A    between atoms: N_5  and  C_6
REMARK    6  A    between atoms: N_5  and  C_17
REMARK    7  A    between atoms: C_6  and  C_7
REMARK    8  A    between atoms: C_7  and  C_8
REMARK    9  A    between atoms: C_11  and  C_12
REMARK   10  A    between atoms: C_21  and  O_22
REMARK   11  A    between atoms: O_22  and  C_23
REMARK                            x       y       z     vdW  Elec       q    Type
REMARK                         _______ _______ _______ _____ _____    ______ ____
ROOT
ATOM      1  N   UNL     1      45.234   6.272  12.048  0.00  0.00    +0.000 N 
ENDROOT
BRANCH   1   2
ATOM      2  C   UNL     1      45.532   7.643  12.077  0.00  0.00    +0.000 A 
ATOM      3  C   UNL     1      46.840   8.129  12.260  0.00  0.00    +0.000 A 
ATOM      4  C   UNL     1      47.151   9.494  12.208  0.00  0.00    +0.000 A 
ATOM      5  C   UNL     1      46.149  10.434  12.004  0.00  0.00    +0.000 A 
ATOM      6  C   UNL     1      44.841   9.997  11.860  0.00  0.00    +0.000 A 
ATOM      7  C   UNL     1      44.547   8.625  11.876  0.00  0.00    +0.000 A 
BRANCH   6   8
ATOM      8  O   UNL     1      43.768  10.828  11.650  0.00  0.00    +0.000 OA
BRANCH   8   9
ATOM      9  C   UNL     1      42.647  10.327  10.884  0.00  0.00    +0.000 C 
ATOM     10  C   UNL     1      42.317  11.013   9.542  0.00  0.00    +0.000 C 
ATOM     11  N   UNL     1      40.907  11.149   9.949  0.00  0.00    +0.000 NA
ATOM     12  C   UNL     1      41.268  10.843  11.342  0.00  0.00    +0.000 C 
ATOM     13  H   UNL     1      40.284  10.464   9.522  0.00  0.00    +0.000 HD
ENDBRANCH   8   9
ENDBRANCH   6   8
ENDBRANCH   1   2
BRANCH   1  14
ATOM     14  C   UNL     1      44.610   5.630  13.224  0.00  0.00    +0.000 C 
BRANCH  14  16
ATOM     15  C   UNL     1      42.414   5.634  11.894  0.00  0.00    +0.000 C 
ATOM     16  C   UNL     1      43.252   4.951  12.972  0.00  0.00    +0.000 C 
ATOM     17  C   UNL     1      43.500   3.491  12.552  0.00  0.00    +0.000 C 
ENDBRANCH  14  16
ENDBRANCH   1  14
BRANCH   1  18
ATOM     18  C   UNL     1      45.848   5.435  10.989  0.00  0.00    +0.000 C 
BRANCH  18  19
ATOM     19  C   UNL     1      45.019   5.228   9.711  0.00  0.00    +0.000 C 
BRANCH  19  20
ATOM     20  C   UNL     1      45.456   4.116   8.781  0.00  0.00    +0.000 A 
ATOM     21  C   UNL     1      45.280   2.778   9.123  0.00  0.00    +0.000 A 
ATOM     22  C   UNL     1      45.885   1.783   8.358  0.00  0.00    +0.000 A 
ATOM     23  C   UNL     1      46.640   2.142   7.247  0.00  0.00    +0.000 A 
ATOM     24  C   UNL     1      46.746   3.492   6.946  0.00  0.00    +0.000 A 
ATOM     25  N   UNL     1      46.170   4.478   7.685  0.00  0.00    +0.000 NA
BRANCH  23  26
ATOM     26  C   UNL     1      47.368   1.151   6.424  0.00  0.00    +0.000 C 
ATOM     27  N   UNL     1      48.411   1.601   5.661  0.00  0.00    +0.000 N 
ATOM     28  O   UNL     1      47.046  -0.030   6.416  0.00  0.00    +0.000 OA
ATOM     29  H   UNL     1      48.843   2.503   5.796  0.00  0.00    +0.000 HD
ATOM     30  H   UNL     1      48.932   0.903   5.145  0.00  0.00    +0.000 HD
ENDBRANCH  23  26
ENDBRANCH  19  20
ENDBRANCH  18  19
ENDBRANCH   1  18
TORSDOF 9
ENDMDL
MODEL 5
REMARK VINA RESULT:    -6.833      2.311      7.754
REMARK INTER + INTRA:         -11.500
REMARK INTER:                 -10.267
REMARK INTRA:                  -1.233
REMARK UNBOUND:                -1.073
REMARK  Name = 
REMARK  11 active torsions:
REMARK  status: ('A' for Active; 'I' for Inactive)
REMARK    1  A    between atoms: C_1  and  C_2
REMARK    2  A    between atoms: C_2  and  C_3
REMARK    3  A    between atoms: C_2  and  C_4
REMARK    4  A    between atoms: C_4  and  N_5
REMARK    5  A    between atoms: N_5  and  C_6
REMARK    6  A    between atoms: N_5  and  C_17
REMARK    7  A    between atoms: C_6  and  C_7
REMARK    8  A    between atoms: C_7  and  C_8
REMARK    9  A    between atoms: C_11  and  C_12
REMARK   10  A    between atoms: C_21  and  O_22
REMARK   11  A    between atoms: O_22  and  C_23
REMARK                            x       y       z     vdW  Elec       q    Type
REMARK                         _______ _______ _______ _____ _____    ______ ____
ROOT
ATOM      1  N   UNL     1      45.756   7.354  12.278  0.00  0.00    +0.000 N 
ENDROOT
BRANCH   1   2
ATOM      2  C   UNL     1      44.855   6.313  12.011  0.00  0.00    +0.000 A 
ATOM      3  C   UNL     1      43.802   5.981  12.883  0.00  0.00    +0.000 A 
ATOM      4  C   UNL     1      42.853   4.996  12.579  0.00  0.00    +0.000 A 
ATOM      5  C   UNL     1      42.946   4.276  11.395  0.00  0.00    +0.000 A 
ATOM      6  C   UNL     1      43.993   4.545  10.528  0.00  0.00    +0.000 A 
ATOM      7  C   UNL     1      44.916   5.560  10.825  0.00  0.00    +0.000 A 
BRANCH   6   8
ATOM      8  O   UNL     1      44.188   3.904   9.329  0.00  0.00    +0.000 OA
BRANCH   8   9
ATOM      9  C   UNL     1      45.501   3.368   9.038  0.00  0.00    +0.000 C 
ATOM     10  C   UNL     1      46.075   3.576   7.622  0.00  0.00    +0.000 C 
ATOM     11  N   UNL     1      46.381   2.138   7.525  0.00  0.00    +0.000 NA
ATOM     12  C   UNL     1      45.523   1.866   8.689  0.00  0.00    +0.000 C 
ATOM     13  H   UNL     1      47.364   1.912   7.673  0.00  0.00    +0.000 HD
ENDBRANCH   8   9
ENDBRANCH   6   8
ENDBRANCH   1   2
BRANCH   1  14
ATOM     14  C   UNL     1      45.247   8.711  12.573  0.00  0.00    +0.000 C 
BRANCH  14  16
ATOM     15  C   UNL     1      43.514   9.667  10.937  0.00  0.00    +0.000 C 
ATOM     16  C   UNL     1      44.983   9.604  11.348  0.00  0.00    +0.000 C 
ATOM     17  C   UNL     1      45.468  11.030  11.663  0.00  0.00    +0.000 C 
ENDBRANCH  14  16
ENDBRANCH   1  14
BRANCH   1  18
ATOM     18  C   UNL     1      47.185   7.162  11.935  0.00  0.00    +0.000 C 
BRANCH  18  19
ATOM     19  C   UNL     1      48.187   7.228  13.099  0.00  0.00    +0.000 C 
BRANCH  19  20
ATOM     20  C   UNL     1      48.076   6.157  14.163  0.00  0.00    +0.000 A 
ATOM     21  C   UNL     1      47.240   5.056  13.996  0.00  0.00    +0.000 A 
ATOM     22  C   UNL     1      46.989   4.207  15.071  0.00  0.00    +0.000 A 
ATOM     23  C   UNL     1      47.599   4.460  16.295  0.00  0.00    +0.000 A 
ATOM     24  C   UNL     1      48.446   5.555  16.381  0.00  0.00    +0.000 A 
ATOM     25  N   UNL     1      48.696   6.400  15.346  0.00  0.00    +0.000 NA
BRANCH  23  26
ATOM     26  C   UNL     1      47.332   3.646  17.502  0.00  0.00    +0.000 C 
ATOM     27  N   UNL     1      48.152   3.823  18.583  0.00  0.00    +0.000 N 
ATOM     28  O   UNL     1      46.416   2.834  17.533  0.00  0.00    +0.000 OA
ATOM     29  H   UNL     1      48.769   4.615  18.681  0.00  0.00    +0.000 HD
ATOM     30  H   UNL     1      47.925   3.298  19.418  0.00  0.00    +0.000 HD
ENDBRANCH  23  26
ENDBRANCH  19  20
ENDBRANCH  18  19
ENDBRANCH   1  18
TORSDOF 9
ENDMDL
MODEL 6
REMARK VINA RESULT:    -6.433      2.534      2.806
REMARK INTER + INTRA:         -10.890
REMARK INTER:                  -9.922
REMARK INTRA:                  -0.968
REMARK UNBOUND:                -1.073
REMARK  Name = 
REMARK  11 active torsions:
REMARK  status: ('A' for Active; 'I' for Inactive)
REMARK    1  A    between atoms: C_1  and  C_2
REMARK    2  A    between atoms: C_2  and  C_3
REMARK    3  A    between atoms: C_2  and  C_4
REMARK    4  A    between atoms: C_4  and  N_5
REMARK    5  A    between atoms: N_5  and  C_6
REMARK    6  A    between atoms: N_5  and  C_17
REMARK    7  A    between atoms: C_6  and  C_7
REMARK    8  A    between atoms: C_7  and  C_8
REMARK    9  A    between atoms: C_11  and  C_12
REMARK   10  A    between atoms: C_21  and  O_22
REMARK   11  A    between atoms: O_22  and  C_23
REMARK                            x       y       z     vdW  Elec       q    Type
REMARK                         _______ _______ _______ _____ _____    ______ ____
ROOT
ATOM      1  N   UNL     1      45.290   6.194  12.028  0.00  0.00    +0.000 N 
ENDROOT
BRANCH   1   2
ATOM      2  C   UNL     1      45.743   7.522  12.017  0.00  0.00    +0.000 A 
ATOM      3  C   UNL     1      44.870   8.619  12.145  0.00  0.00    +0.000 A 
ATOM      4  C   UNL     1      45.328   9.942  12.216  0.00  0.00    +0.000 A 
ATOM      5  C   UNL     1      46.686  10.219  12.124  0.00  0.00    +0.000 A 
ATOM      6  C   UNL     1      47.574   9.168  11.956  0.00  0.00    +0.000 A 
ATOM      7  C   UNL     1      47.107   7.845  11.925  0.00  0.00    +0.000 A 
BRANCH   6   8
ATOM      8  O   UNL     1      48.936   9.316  11.857  0.00  0.00    +0.000 OA
BRANCH   8   9
ATOM      9  C   UNL     1      49.783   8.255  12.361  0.00  0.00    +0.000 C 
ATOM     10  C   UNL     1      50.661   8.548  13.595  0.00  0.00    +0.000 C 
ATOM     11  N   UNL     1      51.843   8.025  12.889  0.00  0.00    +0.000 NA
ATOM     12  C   UNL     1      51.118   8.082  11.610  0.00  0.00    +0.000 C 
ATOM     13  H   UNL     1      52.112   7.083  13.171  0.00  0.00    +0.000 HD
ENDBRANCH   8   9
ENDBRANCH   6   8
ENDBRANCH   1   2
BRANCH   1  14
ATOM     14  C   UNL     1      44.573   5.671  13.211  0.00  0.00    +0.000 C 
BRANCH  14  16
ATOM     15  C   UNL     1      42.414   5.765  11.827  0.00  0.00    +0.000 C 
ATOM     16  C   UNL     1      43.189   5.058  12.935  0.00  0.00    +0.000 C 
ATOM     17  C   UNL     1      43.372   3.581  12.545  0.00  0.00    +0.000 C 
ENDBRANCH  14  16
ENDBRANCH   1  14
BRANCH   1  18
ATOM     18  C   UNL     1      45.824   5.254  11.014  0.00  0.00    +0.000 C 
BRANCH  18  19
ATOM     19  C   UNL     1      45.046   5.154   9.693  0.00  0.00    +0.000 C 
BRANCH  19  20
ATOM     20  C   UNL     1      45.476   4.076   8.721  0.00  0.00    +0.000 A 
ATOM     21  C   UNL     1      45.305   2.726   9.017  0.00  0.00    +0.000 A 
ATOM     22  C   UNL     1      45.906   1.760   8.213  0.00  0.00    +0.000 A 
ATOM     23  C   UNL     1      46.650   2.159   7.108  0.00  0.00    +0.000 A 
ATOM     24  C   UNL     1      46.750   3.519   6.854  0.00  0.00    +0.000 A 
ATOM     25  N   UNL     1      46.179   4.478   7.632  0.00  0.00    +0.000 NA
BRANCH  23  26
ATOM     26  C   UNL     1      47.372   1.199   6.245  0.00  0.00    +0.000 C 
ATOM     27  N   UNL     1      48.395   1.681   5.475  0.00  0.00    +0.000 N 
ATOM     28  O   UNL     1      47.062   0.015   6.210  0.00  0.00    +0.000 OA
ATOM     29  H   UNL     1      48.821   2.583   5.627  0.00  0.00    +0.000 HD
ATOM     30  H   UNL     1      48.914   1.003   4.930  0.00  0.00    +0.000 HD
ENDBRANCH  23  26
ENDBRANCH  19  20
ENDBRANCH  18  19
ENDBRANCH   1  18
TORSDOF 9
ENDMDL
MODEL 7
REMARK VINA RESULT:    -6.276      3.124      8.045
REMARK INTER + INTRA:         -10.650
REMARK INTER:                  -9.343
REMARK INTRA:                  -1.307
REMARK UNBOUND:                -1.073
REMARK  Name = 
REMARK  11 active torsions:
REMARK  status: ('A' for Active; 'I' for Inactive)
REMARK    1  A    between atoms: C_1  and  C_2
REMARK    2  A    between atoms: C_2  and  C_3
REMARK    3  A    between atoms: C_2  and  C_4
REMARK    4  A    between atoms: C_4  and  N_5
REMARK    5  A    between atoms: N_5  and  C_6
REMARK    6  A    between atoms: N_5  and  C_17
REMARK    7  A    between atoms: C_6  and  C_7
REMARK    8  A    between atoms: C_7  and  C_8
REMARK    9  A    between atoms: C_11  and  C_12
REMARK   10  A    between atoms: C_21  and  O_22
REMARK   11  A    between atoms: O_22  and  C_23
REMARK                            x       y       z     vdW  Elec       q    Type
REMARK                         _______ _______ _______ _____ _____    ______ ____
ROOT
ATOM      1  N   UNL     1      48.433   8.550  12.770  0.00  0.00    +0.000 N 
ENDROOT
BRANCH   1   2
ATOM      2  C   UNL     1      47.170   8.112  12.344  0.00  0.00    +0.000 A 
ATOM      3  C   UNL     1      46.047   8.960  12.313  0.00  0.00    +0.000 A 
ATOM      4  C   UNL     1      44.805   8.547  11.811  0.00  0.00    +0.000 A 
ATOM      5  C   UNL     1      44.632   7.247  11.353  0.00  0.00    +0.000 A 
ATOM      6  C   UNL     1      45.703   6.370  11.406  0.00  0.00    +0.000 A 
ATOM      7  C   UNL     1      46.953   6.806  11.874  0.00  0.00    +0.000 A 
BRANCH   6   8
ATOM      8  O   UNL     1      45.656   5.065  10.979  0.00  0.00    +0.000 OA
BRANCH   8   9
ATOM      9  C   UNL     1      44.360   4.449  10.790  0.00  0.00    +0.000 C 
ATOM     10  C   UNL     1      43.711   3.736  11.995  0.00  0.00    +0.000 C 
ATOM     11  N   UNL     1      43.474   2.538  11.169  0.00  0.00    +0.000 NA
ATOM     12  C   UNL     1      44.398   3.049  10.144  0.00  0.00    +0.000 C 
ATOM     13  H   UNL     1      42.512   2.439  10.848  0.00  0.00    +0.000 HD
ENDBRANCH   8   9
ENDBRANCH   6   8
ENDBRANCH   1   2
BRANCH   1  14
ATOM     14  C   UNL     1      48.864   9.937  12.491  0.00  0.00    +0.000 C 
BRANCH  14  16
ATOM     15  C   UNL     1      48.666  11.535  10.491  0.00  0.00    +0.000 C 
ATOM     16  C   UNL     1      49.253  10.233  11.032  0.00  0.00    +0.000 C 
ATOM     17  C   UNL     1      50.787  10.306  10.934  0.00  0.00    +0.000 C 
ENDBRANCH  14  16
ENDBRANCH   1  14
BRANCH   1  18
ATOM     18  C   UNL     1      49.432   7.537  13.185  0.00  0.00    +0.000 C 
BRANCH  18  19
ATOM     19  C   UNL     1      49.864   7.563  14.660  0.00  0.00    +0.000 C 
BRANCH  19  20
ATOM     20  C   UNL     1      49.155   6.611  15.601  0.00  0.00    +0.000 A 
ATOM     21  C   UNL     1      49.528   6.506  16.938  0.00  0.00    +0.000 A 
ATOM     22  C   UNL     1      49.013   5.475  17.721  0.00  0.00    +0.000 A 
ATOM     23  C   UNL     1      48.113   4.576  17.158  0.00  0.00    +0.000 A 
ATOM     24  C   UNL     1      47.761   4.761  15.829  0.00  0.00    +0.000 A 
ATOM     25  N   UNL     1      48.259   5.756  15.047  0.00  0.00    +0.000 NA
BRANCH  23  26
ATOM     26  C   UNL     1      47.574   3.417  17.902  0.00  0.00    +0.000 C 
ATOM     27  N   UNL     1      48.211   3.050  19.056  0.00  0.00    +0.000 N 
ATOM     28  O   UNL     1      46.597   2.799  17.499  0.00  0.00    +0.000 OA
ATOM     29  H   UNL     1      48.871   3.645  19.534  0.00  0.00    +0.000 HD
ATOM     30  H   UNL     1      47.799   2.289  19.582  0.00  0.00    +0.000 HD
ENDBRANCH  23  26
ENDBRANCH  19  20
ENDBRANCH  18  19
ENDBRANCH   1  18
TORSDOF 9
ENDMDL
MODEL 8
REMARK VINA RESULT:    -6.259      3.035      5.027
REMARK INTER + INTRA:         -10.625
REMARK INTER:                  -9.414
REMARK INTRA:                  -1.211
REMARK UNBOUND:                -1.073
REMARK  Name = 
REMARK  11 active torsions:
REMARK  status: ('A' for Active; 'I' for Inactive)
REMARK    1  A    between atoms: C_1  and  C_2
REMARK    2  A    between atoms: C_2  and  C_3
REMARK    3  A    between atoms: C_2  and  C_4
REMARK    4  A    between atoms: C_4  and  N_5
REMARK    5  A    between atoms: N_5  and  C_6
REMARK    6  A    between atoms: N_5  and  C_17
REMARK    7  A    between atoms: C_6  and  C_7
REMARK    8  A    between atoms: C_7  and  C_8
REMARK    9  A    between atoms: C_11  and  C_12
REMARK   10  A    between atoms: C_21  and  O_22
REMARK   11  A    between atoms: O_22  and  C_23
REMARK                            x       y       z     vdW  Elec       q    Type
REMARK                         _______ _______ _______ _____ _____    ______ ____
ROOT
ATOM      1  N   UNL     1      48.593   8.607  12.851  0.00  0.00    +0.000 N 
ENDROOT
BRANCH   1   2
ATOM      2  C   UNL     1      48.679   8.259  14.207  0.00  0.00    +0.000 A 
ATOM      3  C   UNL     1      48.594   9.213  15.239  0.00  0.00    +0.000 A 
ATOM      4  C   UNL     1      48.599   8.858  16.595  0.00  0.00    +0.000 A 
ATOM      5  C   UNL     1      48.726   7.527  16.971  0.00  0.00    +0.000 A 
ATOM      6  C   UNL     1      48.854   6.562  15.984  0.00  0.00    +0.000 A 
ATOM      7  C   UNL     1      48.810   6.925  14.629  0.00  0.00    +0.000 A 
BRANCH   6   8
ATOM      8  O   UNL     1      48.981   5.217  16.231  0.00  0.00    +0.000 OA
BRANCH   8   9
ATOM      9  C   UNL     1      47.780   4.414  16.308  0.00  0.00    +0.000 C 
ATOM     10  C   UNL     1      46.991   4.408  17.634  0.00  0.00    +0.000 C 
ATOM     11  N   UNL     1      46.977   2.935  17.630  0.00  0.00    +0.000 NA
ATOM     12  C   UNL     1      48.020   2.917  16.593  0.00  0.00    +0.000 C 
ATOM     13  H   UNL     1      46.090   2.529  17.334  0.00  0.00    +0.000 HD
ENDBRANCH   8   9
ENDBRANCH   6   8
ENDBRANCH   1   2
BRANCH   1  14
ATOM     14  C   UNL     1      49.557   9.569  12.274  0.00  0.00    +0.000 C 
BRANCH  14  16
ATOM     15  C   UNL     1      51.842   8.731  13.092  0.00  0.00    +0.000 C 
ATOM     16  C   UNL     1      50.930   8.989  11.894  0.00  0.00    +0.000 C 
ATOM     17  C   UNL     1      50.717   7.663  11.143  0.00  0.00    +0.000 C 
ENDBRANCH  14  16
ENDBRANCH   1  14
BRANCH   1  18
ATOM     18  C   UNL     1      47.352   8.273  12.111  0.00  0.00    +0.000 C 
BRANCH  18  19
ATOM     19  C   UNL     1      46.127   7.897  12.959  0.00  0.00    +0.000 C 
BRANCH  19  20
ATOM     20  C   UNL     1      45.457   6.574  12.652  0.00  0.00    +0.000 A 
ATOM     21  C   UNL     1      45.936   5.381  13.187  0.00  0.00    +0.000 A 
ATOM     22  C   UNL     1      45.444   4.165  12.718  0.00  0.00    +0.000 A 
ATOM     23  C   UNL     1      44.461   4.163  11.734  0.00  0.00    +0.000 A 
ATOM     24  C   UNL     1      44.007   5.389  11.270  0.00  0.00    +0.000 A 
ATOM     25  N   UNL     1      44.481   6.585  11.709  0.00  0.00    +0.000 NA
BRANCH  23  26
ATOM     26  C   UNL     1      43.935   2.916  11.136  0.00  0.00    +0.000 C 
ATOM     27  N   UNL     1      44.658   2.340  10.126  0.00  0.00    +0.000 N 
ATOM     28  O   UNL     1      42.886   2.416  11.523  0.00  0.00    +0.000 OA
ATOM     29  H   UNL     1      45.615   2.587   9.925  0.00  0.00    +0.000 HD
ATOM     30  H   UNL     1      44.313   1.460   9.764  0.00  0.00    +0.000 HD
ENDBRANCH  23  26
ENDBRANCH  19  20
ENDBRANCH  18  19
ENDBRANCH   1  18
TORSDOF 9
ENDMDL
MODEL 9
REMARK VINA RESULT:    -6.209      2.253      8.644
REMARK INTER + INTRA:         -10.549
REMARK INTER:                  -9.627
REMARK INTRA:                  -0.922
REMARK UNBOUND:                -1.073
REMARK  Name = 
REMARK  11 active torsions:
REMARK  status: ('A' for Active; 'I' for Inactive)
REMARK    1  A    between atoms: C_1  and  C_2
REMARK    2  A    between atoms: C_2  and  C_3
REMARK    3  A    between atoms: C_2  and  C_4
REMARK    4  A    between atoms: C_4  and  N_5
REMARK    5  A    between atoms: N_5  and  C_6
REMARK    6  A    between atoms: N_5  and  C_17
REMARK    7  A    between atoms: C_6  and  C_7
REMARK    8  A    between atoms: C_7  and  C_8
REMARK    9  A    between atoms: C_11  and  C_12
REMARK   10  A    between atoms: C_21  and  O_22
REMARK   11  A    between atoms: O_22  and  C_23
REMARK                            x       y       z     vdW  Elec       q    Type
REMARK                         _______ _______ _______ _____ _____    ______ ____
ROOT
ATOM      1  N   UNL     1      46.460   6.237  12.639  0.00  0.00    +0.000 N 
ENDROOT
BRANCH   1   2
ATOM      2  C   UNL     1      45.293   5.549  12.275  0.00  0.00    +0.000 A 
ATOM      3  C   UNL     1      44.066   5.737  12.939  0.00  0.00    +0.000 A 
ATOM      4  C   UNL     1      42.882   5.113  12.525  0.00  0.00    +0.000 A 
ATOM      5  C   UNL     1      42.890   4.242  11.443  0.00  0.00    +0.000 A 
ATOM      6  C   UNL     1      44.088   3.998  10.789  0.00  0.00    +0.000 A 
ATOM      7  C   UNL     1      45.260   4.659  11.188  0.00  0.00    +0.000 A 
BRANCH   6   8
ATOM      8  O   UNL     1      44.221   3.163   9.707  0.00  0.00    +0.000 OA
BRANCH   8   9
ATOM      9  C   UNL     1      45.530   3.015   9.107  0.00  0.00    +0.000 C 
ATOM     10  C   UNL     1      45.745   3.568   7.683  0.00  0.00    +0.000 C 
ATOM     11  N   UNL     1      46.323   2.280   7.261  0.00  0.00    +0.000 NA
ATOM     12  C   UNL     1      45.798   1.634   8.474  0.00  0.00    +0.000 C 
ATOM     13  H   UNL     1      47.341   2.281   7.199  0.00  0.00    +0.000 HD
ENDBRANCH   8   9
ENDBRANCH   6   8
ENDBRANCH   1   2
BRANCH   1  14
ATOM     14  C   UNL     1      46.823   7.491  11.944  0.00  0.00    +0.000 C 
BRANCH  14  16
ATOM     15  C   UNL     1      49.310   7.995  11.557  0.00  0.00    +0.000 C 
ATOM     16  C   UNL     1      48.092   8.194  12.456  0.00  0.00    +0.000 C 
ATOM     17  C   UNL     1      47.808   9.702  12.575  0.00  0.00    +0.000 C 
ENDBRANCH  14  16
ENDBRANCH   1  14
BRANCH   1  18
ATOM     18  C   UNL     1      47.470   5.533  13.464  0.00  0.00    +0.000 C 
BRANCH  18  19
ATOM     19  C   UNL     1      46.942   4.453  14.422  0.00  0.00    +0.000 C 
BRANCH  19  20
ATOM     20  C   UNL     1      47.385   4.540  15.868  0.00  0.00    +0.000 A 
ATOM     21  C   UNL     1      48.232   5.556  16.304  0.00  0.00    +0.000 A 
ATOM     22  C   UNL     1      48.797   5.488  17.575  0.00  0.00    +0.000 A 
ATOM     23  C   UNL     1      48.486   4.413  18.402  0.00  0.00    +0.000 A 
ATOM     24  C   UNL     1      47.610   3.455  17.915  0.00  0.00    +0.000 A 
ATOM     25  N   UNL     1      47.056   3.499  16.674  0.00  0.00    +0.000 NA
BRANCH  23  26
ATOM     26  C   UNL     1      49.096   4.234  19.738  0.00  0.00    +0.000 C 
ATOM     27  N   UNL     1      50.457   4.338  19.835  0.00  0.00    +0.000 N 
ATOM     28  O   UNL     1      48.411   3.993  20.724  0.00  0.00    +0.000 OA
ATOM     29  H   UNL     1      51.031   4.741  19.110  0.00  0.00    +0.000 HD
ATOM     30  H   UNL     1      50.855   4.265  20.764  0.00  0.00    +0.000 HD
ENDBRANCH  23  26
ENDBRANCH  19  20
ENDBRANCH  18  19
ENDBRANCH   1  18
TORSDOF 9
ENDMDL
