MODEL 1
REMARK VINA RESULT:    -6.753      0.000      0.000
REMARK INTER + INTRA:          -9.327
REMARK INTER:                  -8.925
REMARK INTRA:                  -0.403
REMARK UNBOUND:                -0.403
REMARK  Name = 
REMARK  6 active torsions:
REMARK  status: ('A' for Active; 'I' for Inactive)
REMARK    1  A    between atoms: N_1  and  C_2
REMARK    2  A    between atoms: C_2  and  C_3
REMARK    3  A    between atoms: C_7  and  C_8
REMARK    4  A    between atoms: C_9  and  N_10
REMARK    5  A    between atoms: N_10  and  C_11
REMARK    6  A    between atoms: C_14  and  C_15
REMARK                            x       y       z     vdW  Elec       q    Type
REMARK                         _______ _______ _______ _____ _____    ______ ____
ROOT
ATOM      1  N   UNL     1      44.681   4.856  10.999  0.00  0.00    +0.000 N 
ATOM      2  H   UNL     1      43.717   5.172  11.010  0.00  0.00    +0.000 HD
ENDROOT
BRANCH   1   3
ATOM      3  C   UNL     1      45.122   4.184   9.849  0.00  0.00    +0.000 A 
ATOM      4  C   UNL     1      45.050   2.795   9.707  0.00  0.00    +0.000 A 
ATOM      5  C   UNL     1      45.613   2.162   8.600  0.00  0.00    +0.000 A 
ATOM      6  C   UNL     1      46.250   2.950   7.653  0.00  0.00    +0.000 A 
ATOM      7  N   UNL     1      46.338   4.306   7.730  0.00  0.00    +0.000 NA
ATOM      8  C   UNL     1      45.774   4.876   8.823  0.00  0.00    +0.000 A 
BRANCH   6   9
ATOM      9  C   UNL     1      46.911   2.299   6.477  0.00  0.00    +0.000 C 
ATOM     10  N   UNL     1      47.798   1.304   6.784  0.00  0.00    +0.000 N 
ATOM     11  O   UNL     1      46.672   2.620   5.319  0.00  0.00    +0.000 OA
ATOM     12  H   UNL     1      47.951   1.058   7.756  0.00  0.00    +0.000 HD
ATOM     13  H   UNL     1      48.269   0.807   6.044  0.00  0.00    +0.000 HD
ENDBRANCH   6   9
ENDBRANCH   1   3
BRANCH   1  15
ATOM     14  C   UNL     1      46.181   4.426  12.868  0.00  0.00    +0.000 C 
ATOM     15  C   UNL     1      45.453   5.222  12.072  0.00  0.00    +0.000 C 
BRANCH  14  20
ATOM     16  C   UNL     1      47.752   4.617  16.301  0.00  0.00    +0.000 A 
ATOM     17  C   UNL     1      48.478   5.810  16.206  0.00  0.00    +0.000 A 
ATOM     18  C   UNL     1      48.433   6.573  15.040  0.00  0.00    +0.000 A 
ATOM     19  C   UNL     1      47.674   6.141  13.951  0.00  0.00    +0.000 A 
ATOM     20  C   UNL     1      46.965   4.934  14.005  0.00  0.00    +0.000 A 
ATOM     21  C   UNL     1      46.987   4.196  15.197  0.00  0.00    +0.000 A 
BRANCH  16  22
ATOM     22  C   UNL     1      47.780   3.800  17.566  0.00  0.00    +0.000 C 
BRANCH  22  23
ATOM     23  N   UNL     1      46.624   2.912  17.659  0.00  0.00    +0.000 NA
ATOM     24  H   UNL     1      46.924   1.956  17.490  0.00  0.00    +0.000 HD
ATOM     25  H   UNL     1      45.972   3.147  16.911  0.00  0.00    +0.000 HD
ENDBRANCH  22  23
ENDBRANCH  16  22
ENDBRANCH  14  20
ENDBRANCH   1  15
TORSDOF 6
ENDMDL
MODEL 2
REMARK VINA RESULT:    -6.719      4.249      7.996
REMARK INTER + INTRA:          -9.282
REMARK INTER:                  -8.907
REMARK INTRA:                  -0.376
REMARK UNBOUND:                -0.403
REMARK  Name = 
REMARK  6 active torsions:
REMARK  status: ('A' for Active; 'I' for Inactive)
REMARK    1  A    between atoms: N_1  and  C_2
REMARK    2  A    between atoms: C_2  and  C_3
REMARK    3  A    between atoms: C_7  and  C_8
REMARK    4  A    between atoms: C_9  and  N_10
REMARK    5  A    between atoms: N_10  and  C_11
REMARK    6  A    between atoms: C_14  and  C_15
REMARK                            x       y       z     vdW  Elec       q    Type
REMARK                         _______ _______ _______ _____ _____    ______ ____
ROOT
ATOM      1  N   UNL     1      47.395   4.638  16.228  0.00  0.00    +0.000 N 
ATOM      2  H   UNL     1      46.971   5.265  16.904  0.00  0.00    +0.000 HD
ENDROOT
BRANCH   1   3
ATOM      3  C   UNL     1      48.465   3.848  16.673  0.00  0.00    +0.000 A 
ATOM      4  C   UNL     1      49.497   4.349  17.473  0.00  0.00    +0.000 A 
ATOM      5  C   UNL     1      50.602   3.559  17.786  0.00  0.00    +0.000 A 
ATOM      6  C   UNL     1      50.648   2.270  17.276  0.00  0.00    +0.000 A 
ATOM      7  N   UNL     1      49.668   1.724  16.505  0.00  0.00    +0.000 NA
ATOM      8  C   UNL     1      48.613   2.529  16.229  0.00  0.00    +0.000 A 
BRANCH   6   9
ATOM      9  C   UNL     1      51.844   1.412  17.550  0.00  0.00    +0.000 C 
ATOM     10  N   UNL     1      51.569   0.172  18.060  0.00  0.00    +0.000 N 
ATOM     11  O   UNL     1      52.991   1.780  17.326  0.00  0.00    +0.000 OA
ATOM     12  H   UNL     1      50.603  -0.098  18.212  0.00  0.00    +0.000 HD
ATOM     13  H   UNL     1      52.322  -0.469  18.252  0.00  0.00    +0.000 HD
ENDBRANCH   6   9
ENDBRANCH   1   3
BRANCH   1  15
ATOM     14  C   UNL     1      46.963   5.401  13.958  0.00  0.00    +0.000 C 
ATOM     15  C   UNL     1      46.793   4.573  14.998  0.00  0.00    +0.000 C 
BRANCH  14  20
ATOM     16  C   UNL     1      44.588   4.019  11.362  0.00  0.00    +0.000 A 
ATOM     17  C   UNL     1      44.808   4.894  10.292  0.00  0.00    +0.000 A 
ATOM     18  C   UNL     1      45.752   5.914  10.398  0.00  0.00    +0.000 A 
ATOM     19  C   UNL     1      46.474   6.080  11.582  0.00  0.00    +0.000 A 
ATOM     20  C   UNL     1      46.249   5.240  12.681  0.00  0.00    +0.000 A 
ATOM     21  C   UNL     1      45.326   4.194  12.548  0.00  0.00    +0.000 A 
BRANCH  16  22
ATOM     22  C   UNL     1      43.584   2.901  11.246  0.00  0.00    +0.000 C 
BRANCH  22  23
ATOM     23  N   UNL     1      43.485   2.136  12.485  0.00  0.00    +0.000 NA
ATOM     24  H   UNL     1      42.517   1.860  12.630  0.00  0.00    +0.000 HD
ATOM     25  H   UNL     1      43.732   2.745  13.265  0.00  0.00    +0.000 HD
ENDBRANCH  22  23
ENDBRANCH  16  22
ENDBRANCH  14  20
ENDBRANCH   1  15
TORSDOF 6
ENDMDL
MODEL 3
REMARK VINA RESULT:    -6.675      2.493      2.943
REMARK INTER + INTRA:          -9.224
REMARK INTER:                  -8.942
REMARK INTRA:                  -0.282
REMARK UNBOUND:                -0.403
REMARK  Name = 
REMARK  6 active torsions:
REMARK  status: ('A' for Active; 'I' for Inactive)
REMARK    1  A    between atoms: N_1  and  C_2
REMARK    2  A    between atoms: C_2  and  C_3
REMARK    3  A    between atoms: C_7  and  C_8
REMARK    4  A    between atoms: C_9  and  N_10
REMARK    5  A    between atoms: N_10  and  C_11
REMARK    6  A    between atoms: C_14  and  C_15
REMARK                            x       y       z     vdW  Elec       q    Type
REMARK                         _______ _______ _______ _____ _____    ______ ____
ROOT
ATOM      1  N   UNL     1      44.029   4.237  10.060  0.00  0.00    +0.000 N 
ATOM      2  H   UNL     1      43.039   4.014  10.102  0.00  0.00    +0.000 HD
ENDROOT
BRANCH   1   3
ATOM      3  C   UNL     1      44.803   3.536   9.125  0.00  0.00    +0.000 A 
ATOM      4  C   UNL     1      45.117   2.180   9.263  0.00  0.00    +0.000 A 
ATOM      5  C   UNL     1      45.992   1.557   8.374  0.00  0.00    +0.000 A 
ATOM      6  C   UNL     1      46.543   2.323   7.357  0.00  0.00    +0.000 A 
ATOM      7  N   UNL     1      46.264   3.642   7.165  0.00  0.00    +0.000 NA
ATOM      8  C   UNL     1      45.407   4.203   8.053  0.00  0.00    +0.000 A 
BRANCH   6   9
ATOM      9  C   UNL     1      47.527   1.700   6.416  0.00  0.00    +0.000 C 
ATOM     10  N   UNL     1      48.684   2.406   6.229  0.00  0.00    +0.000 N 
ATOM     11  O   UNL     1      47.324   0.629   5.856  0.00  0.00    +0.000 OA
ATOM     12  H   UNL     1      48.818   3.279   6.727  0.00  0.00    +0.000 HD
ATOM     13  H   UNL     1      49.401   2.040   5.623  0.00  0.00    +0.000 HD
ENDBRANCH   6   9
ENDBRANCH   1   3
BRANCH   1  15
ATOM     14  C   UNL     1      45.715   5.624  11.135  0.00  0.00    +0.000 C 
ATOM     15  C   UNL     1      44.453   5.271  10.855  0.00  0.00    +0.000 C 
BRANCH  14  20
ATOM     16  C   UNL     1      47.556   7.709  13.696  0.00  0.00    +0.000 A 
ATOM     17  C   UNL     1      46.791   8.882  13.698  0.00  0.00    +0.000 A 
ATOM     18  C   UNL     1      45.658   8.986  12.894  0.00  0.00    +0.000 A 
ATOM     19  C   UNL     1      45.286   7.925  12.067  0.00  0.00    +0.000 A 
ATOM     20  C   UNL     1      46.053   6.752  12.019  0.00  0.00    +0.000 A 
ATOM     21  C   UNL     1      47.167   6.645  12.861  0.00  0.00    +0.000 A 
BRANCH  16  22
ATOM     22  C   UNL     1      48.770   7.583  14.579  0.00  0.00    +0.000 C 
BRANCH  22  23
ATOM     23  N   UNL     1      49.920   7.068  13.841  0.00  0.00    +0.000 NA
ATOM     24  H   UNL     1      50.347   6.314  14.373  0.00  0.00    +0.000 HD
ATOM     25  H   UNL     1      50.620   7.805  13.772  0.00  0.00    +0.000 HD
ENDBRANCH  22  23
ENDBRANCH  16  22
ENDBRANCH  14  20
ENDBRANCH   1  15
TORSDOF 6
ENDMDL
MODEL 4
REMARK VINA RESULT:    -6.574      3.121      4.283
REMARK INTER + INTRA:          -9.090
REMARK INTER:                  -8.781
REMARK INTRA:                  -0.309
REMARK UNBOUND:                -0.403
REMARK  Name = 
REMARK  6 active torsions:
REMARK  status: ('A' for Active; 'I' for Inactive)
REMARK    1  A    between atoms: N_1  and  C_2
REMARK    2  A    between atoms: C_2  and  C_3
REMARK    3  A    between atoms: C_7  and  C_8
REMARK    4  A    between atoms: C_9  and  N_10
REMARK    5  A    between atoms: N_10  and  C_11
REMARK    6  A    between atoms: C_14  and  C_15
REMARK                            x       y       z     vdW  Elec       q    Type
REMARK                         _______ _______ _______ _____ _____    ______ ____
ROOT
ATOM      1  N   UNL     1      44.058   3.934  10.053  0.00  0.00    +0.000 N 
ATOM      2  H   UNL     1      43.190   3.475  10.311  0.00  0.00    +0.000 HD
ENDROOT
BRANCH   1   3
ATOM      3  C   UNL     1      44.839   3.317   9.065  0.00  0.00    +0.000 A 
ATOM      4  C   UNL     1      45.216   1.972   9.126  0.00  0.00    +0.000 A 
ATOM      5  C   UNL     1      46.095   1.435   8.186  0.00  0.00    +0.000 A 
ATOM      6  C   UNL     1      46.586   2.275   7.198  0.00  0.00    +0.000 A 
ATOM      7  N   UNL     1      46.243   3.588   7.080  0.00  0.00    +0.000 NA
ATOM      8  C   UNL     1      45.385   4.064   8.015  0.00  0.00    +0.000 A 
BRANCH   6   9
ATOM      9  C   UNL     1      47.571   1.746   6.203  0.00  0.00    +0.000 C 
ATOM     10  N   UNL     1      48.770   2.403   6.163  0.00  0.00    +0.000 N 
ATOM     11  O   UNL     1      47.335   0.786   5.480  0.00  0.00    +0.000 OA
ATOM     12  H   UNL     1      48.930   3.182   6.793  0.00  0.00    +0.000 HD
ATOM     13  H   UNL     1      49.491   2.092   5.531  0.00  0.00    +0.000 HD
ENDBRANCH   6   9
ENDBRANCH   1   3
BRANCH   1  15
ATOM     14  C   UNL     1      45.453   5.607  11.140  0.00  0.00    +0.000 C 
ATOM     15  C   UNL     1      44.297   5.153  10.634  0.00  0.00    +0.000 C 
BRANCH  14  20
ATOM     16  C   UNL     1      44.884   9.280  11.832  0.00  0.00    +0.000 A 
ATOM     17  C   UNL     1      45.754   9.496  12.907  0.00  0.00    +0.000 A 
ATOM     18  C   UNL     1      46.552   8.459  13.388  0.00  0.00    +0.000 A 
ATOM     19  C   UNL     1      46.475   7.191  12.810  0.00  0.00    +0.000 A 
ATOM     20  C   UNL     1      45.588   6.938  11.755  0.00  0.00    +0.000 A 
ATOM     21  C   UNL     1      44.821   7.998  11.255  0.00  0.00    +0.000 A 
BRANCH  16  22
ATOM     22  C   UNL     1      44.035  10.402  11.294  0.00  0.00    +0.000 C 
BRANCH  22  23
ATOM     23  N   UNL     1      42.934  10.724  12.198  0.00  0.00    +0.000 NA
ATOM     24  H   UNL     1      43.293  11.266  12.979  0.00  0.00    +0.000 HD
ATOM     25  H   UNL     1      42.571   9.857  12.590  0.00  0.00    +0.000 HD
ENDBRANCH  22  23
ENDBRANCH  16  22
ENDBRANCH  14  20
ENDBRANCH   1  15
TORSDOF 6
ENDMDL
MODEL 5
REMARK VINA RESULT:    -6.195      2.710      4.424
REMARK INTER + INTRA:          -8.590
REMARK INTER:                  -8.309
REMARK INTRA:                  -0.281
REMARK UNBOUND:                -0.403
REMARK  Name = 
REMARK  6 active torsions:
REMARK  status: ('A' for Active; 'I' for Inactive)
REMARK    1  A    between atoms: N_1  and  C_2
REMARK    2  A    between atoms: C_2  and  C_3
REMARK    3  A    between atoms: C_7  and  C_8
REMARK    4  A    between atoms: C_9  and  N_10
REMARK    5  A    between atoms: N_10  and  C_11
REMARK    6  A    between atoms: C_14  and  C_15
REMARK                            x       y       z     vdW  Elec       q    Type
REMARK                         _______ _______ _______ _____ _____    ______ ____
ROOT
ATOM      1  N   UNL     1      46.264   4.485  14.906  0.00  0.00    +0.000 N 
ATOM      2  H   UNL     1      45.439   4.595  15.489  0.00  0.00    +0.000 HD
ENDROOT
BRANCH   1   3
ATOM      3  C   UNL     1      46.082   4.569  13.518  0.00  0.00    +0.000 A 
ATOM      4  C   UNL     1      46.335   5.736  12.790  0.00  0.00    +0.000 A 
ATOM      5  C   UNL     1      46.022   5.810  11.433  0.00  0.00    +0.000 A 
ATOM      6  C   UNL     1      45.449   4.698  10.834  0.00  0.00    +0.000 A 
ATOM      7  N   UNL     1      45.194   3.531  11.488  0.00  0.00    +0.000 NA
ATOM      8  C   UNL     1      45.517   3.507  12.805  0.00  0.00    +0.000 A 
BRANCH   6   9
ATOM      9  C   UNL     1      45.053   4.760   9.392  0.00  0.00    +0.000 C 
ATOM     10  N   UNL     1      43.760   4.402   9.126  0.00  0.00    +0.000 N 
ATOM     11  O   UNL     1      45.822   5.116   8.506  0.00  0.00    +0.000 OA
ATOM     12  H   UNL     1      43.153   4.132   9.892  0.00  0.00    +0.000 HD
ATOM     13  H   UNL     1      43.415   4.436   8.180  0.00  0.00    +0.000 HD
ENDBRANCH   6   9
ENDBRANCH   1   3
BRANCH   1  15
ATOM     14  C   UNL     1      47.674   3.922  16.809  0.00  0.00    +0.000 C 
ATOM     15  C   UNL     1      47.462   4.372  15.564  0.00  0.00    +0.000 C 
BRANCH  14  20
ATOM     16  C   UNL     1      51.118   2.644  17.699  0.00  0.00    +0.000 A 
ATOM     17  C   UNL     1      51.598   3.682  18.507  0.00  0.00    +0.000 A 
ATOM     18  C   UNL     1      50.792   4.783  18.792  0.00  0.00    +0.000 A 
ATOM     19  C   UNL     1      49.505   4.865  18.258  0.00  0.00    +0.000 A 
ATOM     20  C   UNL     1      49.012   3.857  17.419  0.00  0.00    +0.000 A 
ATOM     21  C   UNL     1      49.817   2.737  17.172  0.00  0.00    +0.000 A 
BRANCH  16  22
ATOM     22  C   UNL     1      51.977   1.442  17.405  0.00  0.00    +0.000 C 
BRANCH  22  23
ATOM     23  N   UNL     1      51.517   0.261  18.131  0.00  0.00    +0.000 NA
ATOM     24  H   UNL     1      50.606   0.455  18.538  0.00  0.00    +0.000 HD
ATOM     25  H   UNL     1      52.151   0.090  18.910  0.00  0.00    +0.000 HD
ENDBRANCH  22  23
ENDBRANCH  16  22
ENDBRANCH  14  20
ENDBRANCH   1  15
TORSDOF 6
ENDMDL
MODEL 6
REMARK VINA RESULT:    -5.684      4.168      5.840
REMARK INTER + INTRA:          -7.915
REMARK INTER:                  -7.515
REMARK INTRA:                  -0.399
REMARK UNBOUND:                -0.403
REMARK  Name = 
REMARK  6 active torsions:
REMARK  status: ('A' for Active; 'I' for Inactive)
REMARK    1  A    between atoms: N_1  and  C_2
REMARK    2  A    between atoms: C_2  and  C_3
REMARK    3  A    between atoms: C_7  and  C_8
REMARK    4  A    between atoms: C_9  and  N_10
REMARK    5  A    between atoms: N_10  and  C_11
REMARK    6  A    between atoms: C_14  and  C_15
REMARK                            x       y       z     vdW  Elec       q    Type
REMARK                         _______ _______ _______ _____ _____    ______ ____
ROOT
ATOM      1  N   UNL     1      45.876   7.670  13.273  0.00  0.00    +0.000 N 
ATOM      2  H   UNL     1      45.361   8.176  13.987  0.00  0.00    +0.000 HD
ENDROOT
BRANCH   1   3
ATOM      3  C   UNL     1      45.340   6.447  12.844  0.00  0.00    +0.000 A 
ATOM      4  C   UNL     1      45.792   5.212  13.321  0.00  0.00    +0.000 A 
ATOM      5  C   UNL     1      45.317   4.021  12.774  0.00  0.00    +0.000 A 
ATOM      6  C   UNL     1      44.391   4.100  11.744  0.00  0.00    +0.000 A 
ATOM      7  N   UNL     1      43.905   5.271  11.250  0.00  0.00    +0.000 NA
ATOM      8  C   UNL     1      44.395   6.403  11.814  0.00  0.00    +0.000 A 
BRANCH   6   9
ATOM      9  C   UNL     1      43.898   2.842  11.099  0.00  0.00    +0.000 C 
ATOM     10  N   UNL     1      44.678   2.363  10.082  0.00  0.00    +0.000 N 
ATOM     11  O   UNL     1      42.876   2.268  11.456  0.00  0.00    +0.000 OA
ATOM     12  H   UNL     1      45.526   2.860   9.831  0.00  0.00    +0.000 HD
ATOM     13  H   UNL     1      44.420   1.510   9.611  0.00  0.00    +0.000 HD
ENDBRANCH   6   9
ENDBRANCH   1   3
BRANCH   1  15
ATOM     14  C   UNL     1      48.077   7.745  12.238  0.00  0.00    +0.000 C 
ATOM     15  C   UNL     1      46.973   8.305  12.750  0.00  0.00    +0.000 C 
BRANCH  14  20
ATOM     16  C   UNL     1      51.523   8.590  10.934  0.00  0.00    +0.000 A 
ATOM     17  C   UNL     1      51.389   9.958  10.665  0.00  0.00    +0.000 A 
ATOM     18  C   UNL     1      50.191  10.616  10.938  0.00  0.00    +0.000 A 
ATOM     19  C   UNL     1      49.109   9.909  11.467  0.00  0.00    +0.000 A 
ATOM     20  C   UNL     1      49.205   8.533  11.713  0.00  0.00    +0.000 A 
ATOM     21  C   UNL     1      50.427   7.892  11.472  0.00  0.00    +0.000 A 
BRANCH  16  22
ATOM     22  C   UNL     1      52.823   7.879  10.661  0.00  0.00    +0.000 C 
BRANCH  22  23
ATOM     23  N   UNL     1      52.614   6.454  10.414  0.00  0.00    +0.000 NA
ATOM     24  H   UNL     1      51.630   6.291  10.220  0.00  0.00    +0.000 HD
ATOM     25  H   UNL     1      52.830   5.941  11.268  0.00  0.00    +0.000 HD
ENDBRANCH  22  23
ENDBRANCH  16  22
ENDBRANCH  14  20
ENDBRANCH   1  15
TORSDOF 6
ENDMDL
MODEL 7
REMARK VINA RESULT:    -5.673      1.496      2.126
REMARK INTER + INTRA:          -7.900
REMARK INTER:                  -7.478
REMARK INTRA:                  -0.422
REMARK UNBOUND:                -0.403
REMARK  Name = 
REMARK  6 active torsions:
REMARK  status: ('A' for Active; 'I' for Inactive)
REMARK    1  A    between atoms: N_1  and  C_2
REMARK    2  A    between atoms: C_2  and  C_3
REMARK    3  A    between atoms: C_7  and  C_8
REMARK    4  A    between atoms: C_9  and  N_10
REMARK    5  A    between atoms: N_10  and  C_11
REMARK    6  A    between atoms: C_14  and  C_15
REMARK                            x       y       z     vdW  Elec       q    Type
REMARK                         _______ _______ _______ _____ _____    ______ ____
ROOT
ATOM      1  N   UNL     1      44.370   4.651  11.360  0.00  0.00    +0.000 N 
ATOM      2  H   UNL     1      43.388   4.905  11.404  0.00  0.00    +0.000 HD
ENDROOT
BRANCH   1   3
ATOM      3  C   UNL     1      44.834   4.095  10.159  0.00  0.00    +0.000 A 
ATOM      4  C   UNL     1      44.801   2.722   9.896  0.00  0.00    +0.000 A 
ATOM      5  C   UNL     1      45.387   2.204   8.742  0.00  0.00    +0.000 A 
ATOM      6  C   UNL     1      46.007   3.089   7.872  0.00  0.00    +0.000 A 
ATOM      7  N   UNL     1      46.058   4.435   8.068  0.00  0.00    +0.000 NA
ATOM      8  C   UNL     1      45.473   4.892   9.203  0.00  0.00    +0.000 A 
BRANCH   6   9
ATOM      9  C   UNL     1      46.692   2.562   6.649  0.00  0.00    +0.000 C 
ATOM     10  N   UNL     1      47.251   1.321   6.783  0.00  0.00    +0.000 N 
ATOM     11  O   UNL     1      46.743   3.185   5.596  0.00  0.00    +0.000 OA
ATOM     12  H   UNL     1      47.169   0.832   7.668  0.00  0.00    +0.000 HD
ATOM     13  H   UNL     1      47.713   0.892   5.997  0.00  0.00    +0.000 HD
ENDBRANCH   6   9
ENDBRANCH   1   3
BRANCH   1  15
ATOM     14  C   UNL     1      46.283   4.424  12.847  0.00  0.00    +0.000 C 
ATOM     15  C   UNL     1      45.132   4.984  12.451  0.00  0.00    +0.000 C 
BRANCH  14  20
ATOM     16  C   UNL     1      48.450   6.520  15.128  0.00  0.00    +0.000 A 
ATOM     17  C   UNL     1      48.391   5.784  16.318  0.00  0.00    +0.000 A 
ATOM     18  C   UNL     1      47.676   4.588  16.373  0.00  0.00    +0.000 A 
ATOM     19  C   UNL     1      46.999   4.125  15.244  0.00  0.00    +0.000 A 
ATOM     20  C   UNL     1      47.012   4.859  14.050  0.00  0.00    +0.000 A 
ATOM     21  C   UNL     1      47.766   6.039  13.996  0.00  0.00    +0.000 A 
BRANCH  16  22
ATOM     22  C   UNL     1      49.238   7.801  15.057  0.00  0.00    +0.000 C 
BRANCH  22  23
ATOM     23  N   UNL     1      50.261   7.862  16.098  0.00  0.00    +0.000 NA
ATOM     24  H   UNL     1      50.938   8.581  15.858  0.00  0.00    +0.000 HD
ATOM     25  H   UNL     1      50.769   6.979  16.107  0.00  0.00    +0.000 HD
ENDBRANCH  22  23
ENDBRANCH  16  22
ENDBRANCH  14  20
ENDBRANCH   1  15
TORSDOF 6
ENDMDL
MODEL 8
REMARK VINA RESULT:    -5.579      2.956      4.409
REMARK INTER + INTRA:          -7.776
REMARK INTER:                  -7.472
REMARK INTRA:                  -0.304
REMARK UNBOUND:                -0.403
REMARK  Name = 
REMARK  6 active torsions:
REMARK  status: ('A' for Active; 'I' for Inactive)
REMARK    1  A    between atoms: N_1  and  C_2
REMARK    2  A    between atoms: C_2  and  C_3
REMARK    3  A    between atoms: C_7  and  C_8
REMARK    4  A    between atoms: C_9  and  N_10
REMARK    5  A    between atoms: N_10  and  C_11
REMARK    6  A    between atoms: C_14  and  C_15
REMARK                            x       y       z     vdW  Elec       q    Type
REMARK                         _______ _______ _______ _____ _____    ______ ____
ROOT
ATOM      1  N   UNL     1      47.651   6.789  13.704  0.00  0.00    +0.000 N 
ATOM      2  H   UNL     1      47.872   7.753  13.478  0.00  0.00    +0.000 HD
ENDROOT
BRANCH   1   3
ATOM      3  C   UNL     1      46.840   6.089  12.799  0.00  0.00    +0.000 A 
ATOM      4  C   UNL     1      46.587   6.543  11.500  0.00  0.00    +0.000 A 
ATOM      5  C   UNL     1      45.675   5.880  10.680  0.00  0.00    +0.000 A 
ATOM      6  C   UNL     1      45.026   4.766  11.192  0.00  0.00    +0.000 A 
ATOM      7  N   UNL     1      45.242   4.271  12.442  0.00  0.00    +0.000 NA
ATOM      8  C   UNL     1      46.139   4.948  13.202  0.00  0.00    +0.000 A 
BRANCH   6   9
ATOM      9  C   UNL     1      44.003   4.061  10.357  0.00  0.00    +0.000 C 
ATOM     10  N   UNL     1      43.984   4.415   9.036  0.00  0.00    +0.000 N 
ATOM     11  O   UNL     1      43.241   3.217  10.813  0.00  0.00    +0.000 OA
ATOM     12  H   UNL     1      44.645   5.104   8.697  0.00  0.00    +0.000 HD
ATOM     13  H   UNL     1      43.334   3.968   8.408  0.00  0.00    +0.000 HD
ENDBRANCH   6   9
ENDBRANCH   1   3
BRANCH   1  15
ATOM     14  C   UNL     1      49.036   6.913  15.702  0.00  0.00    +0.000 C 
ATOM     15  C   UNL     1      48.265   6.268  14.815  0.00  0.00    +0.000 C 
BRANCH  14  20
ATOM     16  C   UNL     1      49.414   5.328  19.114  0.00  0.00    +0.000 A 
ATOM     17  C   UNL     1      50.755   4.926  19.085  0.00  0.00    +0.000 A 
ATOM     18  C   UNL     1      51.548   5.198  17.971  0.00  0.00    +0.000 A 
ATOM     19  C   UNL     1      51.004   5.860  16.869  0.00  0.00    +0.000 A 
ATOM     20  C   UNL     1      49.656   6.243  16.857  0.00  0.00    +0.000 A 
ATOM     21  C   UNL     1      48.880   5.999  17.998  0.00  0.00    +0.000 A 
BRANCH  16  22
ATOM     22  C   UNL     1      48.557   5.055  20.323  0.00  0.00    +0.000 C 
BRANCH  22  23
ATOM     23  N   UNL     1      48.379   3.622  20.543  0.00  0.00    +0.000 NA
ATOM     24  H   UNL     1      48.729   3.382  21.467  0.00  0.00    +0.000 HD
ATOM     25  H   UNL     1      48.957   3.116  19.874  0.00  0.00    +0.000 HD
ENDBRANCH  22  23
ENDBRANCH  16  22
ENDBRANCH  14  20
ENDBRANCH   1  15
TORSDOF 6
ENDMDL
MODEL 9
REMARK VINA RESULT:    -5.556      5.501      8.022
REMARK INTER + INTRA:          -7.745
REMARK INTER:                  -7.789
REMARK INTRA:                   0.044
REMARK UNBOUND:                -0.403
REMARK  Name = 
REMARK  6 active torsions:
REMARK  status: ('A' for Active; 'I' for Inactive)
REMARK    1  A    between atoms: N_1  and  C_2
REMARK    2  A    between atoms: C_2  and  C_3
REMARK    3  A    between atoms: C_7  and  C_8
REMARK    4  A    between atoms: C_9  and  N_10
REMARK    5  A    between atoms: N_10  and  C_11
REMARK    6  A    between atoms: C_14  and  C_15
REMARK                            x       y       z     vdW  Elec       q    Type
REMARK                         _______ _______ _______ _____ _____    ______ ____
ROOT
ATOM      1  N   UNL     1      46.203   9.155  12.831  0.00  0.00    +0.000 N 
ATOM      2  H   UNL     1      46.842   9.691  13.411  0.00  0.00    +0.000 HD
ENDROOT
BRANCH   1   3
ATOM      3  C   UNL     1      46.291   7.757  12.907  0.00  0.00    +0.000 A 
ATOM      4  C   UNL     1      45.177   6.920  12.787  0.00  0.00    +0.000 A 
ATOM      5  C   UNL     1      45.294   5.546  12.993  0.00  0.00    +0.000 A 
ATOM      6  C   UNL     1      46.541   5.040  13.327  0.00  0.00    +0.000 A 
ATOM      7  N   UNL     1      47.662   5.804  13.444  0.00  0.00    +0.000 NA
ATOM      8  C   UNL     1      47.500   7.134  13.232  0.00  0.00    +0.000 A 
BRANCH   6   9
ATOM      9  C   UNL     1      46.692   3.577  13.606  0.00  0.00    +0.000 C 
ATOM     10  N   UNL     1      45.862   2.758  12.891  0.00  0.00    +0.000 N 
ATOM     11  O   UNL     1      47.506   3.135  14.408  0.00  0.00    +0.000 OA
ATOM     12  H   UNL     1      45.216   3.166  12.224  0.00  0.00    +0.000 HD
ATOM     13  H   UNL     1      45.919   1.759  13.012  0.00  0.00    +0.000 HD
ENDBRANCH   6   9
ENDBRANCH   1   3
BRANCH   1  15
ATOM     14  C   UNL     1      44.355   9.409  11.268  0.00  0.00    +0.000 C 
ATOM     15  C   UNL     1      45.270   9.874  12.130  0.00  0.00    +0.000 C 
BRANCH  14  20
ATOM     16  C   UNL     1      41.086  10.947  10.157  0.00  0.00    +0.000 A 
ATOM     17  C   UNL     1      41.533  11.944   9.281  0.00  0.00    +0.000 A 
ATOM     18  C   UNL     1      42.894  12.097   9.023  0.00  0.00    +0.000 A 
ATOM     19  C   UNL     1      43.823  11.265   9.651  0.00  0.00    +0.000 A 
ATOM     20  C   UNL     1      43.406  10.283  10.559  0.00  0.00    +0.000 A 
ATOM     21  C   UNL     1      42.032  10.113  10.780  0.00  0.00    +0.000 A 
BRANCH  16  22
ATOM     22  C   UNL     1      39.614  10.764  10.423  0.00  0.00    +0.000 C 
BRANCH  22  23
ATOM     23  N   UNL     1      39.367   9.650  11.335  0.00  0.00    +0.000 NA
ATOM     24  H   UNL     1      40.025   8.902  11.132  0.00  0.00    +0.000 HD
ATOM     25  H   UNL     1      38.438   9.277  11.149  0.00  0.00    +0.000 HD
ENDBRANCH  22  23
ENDBRANCH  16  22
ENDBRANCH  14  20
ENDBRANCH   1  15
TORSDOF 6
ENDMDL
