MODEL 1
REMARK VINA RESULT:    -8.416      0.000      0.000
REMARK INTER + INTRA:         -13.877
REMARK INTER:                 -12.598
REMARK INTRA:                  -1.279
REMARK UNBOUND:                -1.279
REMARK  Name = 
REMARK  9 active torsions:
REMARK  status: ('A' for Active; 'I' for Inactive)
REMARK    1  A    between atoms: C_2  and  C_4
REMARK    2  A    between atoms: C_7  and  C_8
REMARK    3  A    between atoms: C_8  and  O_9
REMARK    4  A    between atoms: O_9  and  C_10
REMARK    5  A    between atoms: C_10  and  C_11
REMARK    6  A    between atoms: C_14  and  C_15
REMARK    7  A    between atoms: C_15  and  N_16
REMARK    8  A    between atoms: C_17  and  C_19
REMARK    9  A    between atoms: C_26  and  O_27
REMARK                            x       y       z     vdW  Elec       q    Type
REMARK                         _______ _______ _______ _____ _____    ______ ____
ROOT
ATOM      1  C   UNL     1      44.559   4.809  12.736  0.00  0.00    +0.000 A 
ATOM      2  C   UNL     1      45.669   4.035  13.105  0.00  0.00    +0.000 A 
ATOM      3  C   UNL     1      46.895   4.640  13.404  0.00  0.00    +0.000 A 
ATOM      4  C   UNL     1      47.035   6.033  13.353  0.00  0.00    +0.000 A 
ATOM      5  C   UNL     1      45.937   6.804  12.946  0.00  0.00    +0.000 A 
ATOM      6  C   UNL     1      44.712   6.198  12.645  0.00  0.00    +0.000 A 
ENDROOT
BRANCH   1   7
ATOM      7  C   UNL     1      43.236   4.153  12.428  0.00  0.00    +0.000 C 
BRANCH   7   8
ATOM      8  O   UNL     1      43.354   3.407  11.219  0.00  0.00    +0.000 OA
BRANCH   8   9
ATOM      9  C   UNL     1      43.667   4.246  10.107  0.00  0.00    +0.000 C 
BRANCH   9  13
ATOM     10  C   UNL     1      46.543   2.352   7.485  0.00  0.00    +0.000 A 
ATOM     11  C   UNL     1      45.848   1.586   8.427  0.00  0.00    +0.000 A 
ATOM     12  C   UNL     1      44.917   2.196   9.273  0.00  0.00    +0.000 A 
ATOM     13  C   UNL     1      44.678   3.576   9.206  0.00  0.00    +0.000 A 
ATOM     14  C   UNL     1      45.368   4.332   8.246  0.00  0.00    +0.000 A 
ATOM     15  C   UNL     1      46.303   3.727   7.399  0.00  0.00    +0.000 A 
BRANCH  10  17
ATOM     16  N   UNL     1      48.739   2.443   6.427  0.00  0.00    +0.000 N 
ATOM     17  C   UNL     1      47.567   1.756   6.587  0.00  0.00    +0.000 C 
ATOM     18  O   UNL     1      47.391   0.677   6.037  0.00  0.00    +0.000 OA
ATOM     19  H   UNL     1      49.461   1.980   5.892  0.00  0.00    +0.000 HD
ATOM     20  H   UNL     1      49.016   3.193   7.042  0.00  0.00    +0.000 HD
ENDBRANCH  10  17
ENDBRANCH   9  13
ENDBRANCH   8   9
ENDBRANCH   7   8
ENDBRANCH   1   7
BRANCH   4  21
ATOM     21  C   UNL     1      48.345   6.693  13.703  0.00  0.00    +0.000 C 
BRANCH  21  22
ATOM     22  N   UNL     1      48.297   7.274  15.018  0.00  0.00    +0.000 N 
ATOM     23  C   UNL     1      48.758   6.608  16.123  0.00  0.00    +0.000 C 
ATOM     24  O   UNL     1      49.117   5.434  16.082  0.00  0.00    +0.000 OA
ATOM     25  H   UNL     1      48.190   8.280  15.063  0.00  0.00    +0.000 HD
BRANCH  23  26
ATOM     26  C   UNL     1      48.760   7.369  17.377  0.00  0.00    +0.000 A 
ATOM     27  C   UNL     1      49.323   8.639  17.425  0.00  0.00    +0.000 A 
ATOM     28  S   UNL     1      49.264   9.349  18.975  0.00  0.00    +0.000 S 
ATOM     29  C   UNL     1      48.444   8.006  19.616  0.00  0.00    +0.000 A 
ATOM     30  N   UNL     1      48.079   7.986  20.911  0.00  0.00    +0.000 NA
ATOM     31  C   UNL     1      47.434   6.866  21.250  0.00  0.00    +0.000 A 
ATOM     32  N   UNL     1      47.139   5.823  20.458  0.00  0.00    +0.000 NA
ATOM     33  C   UNL     1      47.532   5.910  19.187  0.00  0.00    +0.000 A 
ATOM     34  C   UNL     1      48.223   7.007  18.677  0.00  0.00    +0.000 A 
BRANCH  33  35
ATOM     35  O   UNL     1      47.207   4.814  18.441  0.00  0.00    +0.000 OA
ATOM     36  H   UNL     1      47.440   5.130  17.546  0.00  0.00    +0.000 HD
ENDBRANCH  33  35
ENDBRANCH  23  26
ENDBRANCH  21  22
ENDBRANCH   4  21
TORSDOF 9
ENDMDL
MODEL 2
REMARK VINA RESULT:    -8.242      1.342      1.467
REMARK INTER + INTRA:         -13.617
REMARK INTER:                 -12.219
REMARK INTRA:                  -1.398
REMARK UNBOUND:                -1.279
REMARK  Name = 
REMARK  9 active torsions:
REMARK  status: ('A' for Active; 'I' for Inactive)
REMARK    1  A    between atoms: C_2  and  C_4
REMARK    2  A    between atoms: C_7  and  C_8
REMARK    3  A    between atoms: C_8  and  O_9
REMARK    4  A    between atoms: O_9  and  C_10
REMARK    5  A    between atoms: C_10  and  C_11
REMARK    6  A    between atoms: C_14  and  C_15
REMARK    7  A    between atoms: C_15  and  N_16
REMARK    8  A    between atoms: C_17  and  C_19
REMARK    9  A    between atoms: C_26  and  O_27
REMARK                            x       y       z     vdW  Elec       q    Type
REMARK                         _______ _______ _______ _____ _____    ______ ____
ROOT
ATOM      1  C   UNL     1      44.674   4.982  12.770  0.00  0.00    +0.000 A 
ATOM      2  C   UNL     1      45.880   4.310  13.022  0.00  0.00    +0.000 A 
ATOM      3  C   UNL     1      47.076   5.020  13.171  0.00  0.00    +0.000 A 
ATOM      4  C   UNL     1      47.092   6.418  13.086  0.00  0.00    +0.000 A 
ATOM      5  C   UNL     1      45.895   7.087  12.795  0.00  0.00    +0.000 A 
ATOM      6  C   UNL     1      44.699   6.376  12.644  0.00  0.00    +0.000 A 
ENDROOT
BRANCH   1   7
ATOM      7  C   UNL     1      43.385   4.213  12.623  0.00  0.00    +0.000 C 
BRANCH   7   8
ATOM      8  O   UNL     1      43.453   3.403  11.452  0.00  0.00    +0.000 OA
BRANCH   8   9
ATOM      9  C   UNL     1      43.634   4.189  10.275  0.00  0.00    +0.000 C 
BRANCH   9  13
ATOM     10  C   UNL     1      46.485   2.347   7.588  0.00  0.00    +0.000 A 
ATOM     11  C   UNL     1      45.743   1.553   8.468  0.00  0.00    +0.000 A 
ATOM     12  C   UNL     1      44.820   2.146   9.335  0.00  0.00    +0.000 A 
ATOM     13  C   UNL     1      44.636   3.537   9.350  0.00  0.00    +0.000 A 
ATOM     14  C   UNL     1      45.373   4.322   8.450  0.00  0.00    +0.000 A 
ATOM     15  C   UNL     1      46.299   3.733   7.583  0.00  0.00    +0.000 A 
BRANCH  10  17
ATOM     16  N   UNL     1      48.614   2.519   6.410  0.00  0.00    +0.000 N 
ATOM     17  C   UNL     1      47.502   1.767   6.671  0.00  0.00    +0.000 C 
ATOM     18  O   UNL     1      47.374   0.647   6.193  0.00  0.00    +0.000 OA
ATOM     19  H   UNL     1      49.339   2.073   5.865  0.00  0.00    +0.000 HD
ATOM     20  H   UNL     1      48.869   3.322   6.967  0.00  0.00    +0.000 HD
ENDBRANCH  10  17
ENDBRANCH   9  13
ENDBRANCH   8   9
ENDBRANCH   7   8
ENDBRANCH   1   7
BRANCH   4  21
ATOM     21  C   UNL     1      48.373   7.191  13.276  0.00  0.00    +0.000 C 
BRANCH  21  22
ATOM     22  N   UNL     1      48.924   6.965  14.586  0.00  0.00    +0.000 N 
ATOM     23  C   UNL     1      48.717   7.839  15.621  0.00  0.00    +0.000 C 
ATOM     24  O   UNL     1      48.165   8.925  15.466  0.00  0.00    +0.000 OA
ATOM     25  H   UNL     1      49.214   6.017  14.796  0.00  0.00    +0.000 HD
BRANCH  23  26
ATOM     26  C   UNL     1      49.235   7.419  16.928  0.00  0.00    +0.000 A 
ATOM     27  C   UNL     1      50.154   8.211  17.605  0.00  0.00    +0.000 A 
ATOM     28  S   UNL     1      50.667   7.540  19.086  0.00  0.00    +0.000 S 
ATOM     29  C   UNL     1      49.644   6.196  18.891  0.00  0.00    +0.000 A 
ATOM     30  N   UNL     1      49.594   5.237  19.833  0.00  0.00    +0.000 NA
ATOM     31  C   UNL     1      48.733   4.260  19.533  0.00  0.00    +0.000 A 
ATOM     32  N   UNL     1      47.962   4.161  18.438  0.00  0.00    +0.000 NA
ATOM     33  C   UNL     1      48.064   5.146  17.546  0.00  0.00    +0.000 A 
ATOM     34  C   UNL     1      48.922   6.233  17.706  0.00  0.00    +0.000 A 
BRANCH  33  35
ATOM     35  O   UNL     1      47.261   4.979  16.455  0.00  0.00    +0.000 OA
ATOM     36  H   UNL     1      46.489   5.519  16.715  0.00  0.00    +0.000 HD
ENDBRANCH  33  35
ENDBRANCH  23  26
ENDBRANCH  21  22
ENDBRANCH   4  21
TORSDOF 9
ENDMDL
MODEL 3
REMARK VINA RESULT:    -7.449      3.655      9.318
REMARK INTER + INTRA:         -12.430
REMARK INTER:                 -10.868
REMARK INTRA:                  -1.563
REMARK UNBOUND:                -1.279
REMARK  Name = 
REMARK  9 active torsions:
REMARK  status: ('A' for Active; 'I' for Inactive)
REMARK    1  A    between atoms: C_2  and  C_4
REMARK    2  A    between atoms: C_7  and  C_8
REMARK    3  A    between atoms: C_8  and  O_9
REMARK    4  A    between atoms: O_9  and  C_10
REMARK    5  A    between atoms: C_10  and  C_11
REMARK    6  A    between atoms: C_14  and  C_15
REMARK    7  A    between atoms: C_15  and  N_16
REMARK    8  A    between atoms: C_17  and  C_19
REMARK    9  A    between atoms: C_26  and  O_27
REMARK                            x       y       z     vdW  Elec       q    Type
REMARK                         _______ _______ _______ _____ _____    ______ ____
ROOT
ATOM      1  C   UNL     1      49.793   8.499  15.684  0.00  0.00    +0.000 A 
ATOM      2  C   UNL     1      48.615   9.188  15.362  0.00  0.00    +0.000 A 
ATOM      3  C   UNL     1      48.006   9.018  14.115  0.00  0.00    +0.000 A 
ATOM      4  C   UNL     1      48.554   8.146  13.165  0.00  0.00    +0.000 A 
ATOM      5  C   UNL     1      49.753   7.488  13.471  0.00  0.00    +0.000 A 
ATOM      6  C   UNL     1      50.363   7.659  14.718  0.00  0.00    +0.000 A 
ENDROOT
BRANCH   1   7
ATOM      7  C   UNL     1      50.440   8.674  17.036  0.00  0.00    +0.000 C 
BRANCH   7   8
ATOM      8  O   UNL     1      49.531   8.246  18.048  0.00  0.00    +0.000 OA
BRANCH   8   9
ATOM      9  C   UNL     1      50.166   7.398  19.004  0.00  0.00    +0.000 C 
BRANCH   9  13
ATOM     10  C   UNL     1      50.434   3.339  17.525  0.00  0.00    +0.000 A 
ATOM     11  C   UNL     1      51.600   4.084  17.732  0.00  0.00    +0.000 A 
ATOM     12  C   UNL     1      51.515   5.394  18.213  0.00  0.00    +0.000 A 
ATOM     13  C   UNL     1      50.271   5.986  18.475  0.00  0.00    +0.000 A 
ATOM     14  C   UNL     1      49.109   5.224  18.281  0.00  0.00    +0.000 A 
ATOM     15  C   UNL     1      49.189   3.914  17.797  0.00  0.00    +0.000 A 
BRANCH  10  17
ATOM     16  N   UNL     1      51.215   1.033  17.667  0.00  0.00    +0.000 N 
ATOM     17  C   UNL     1      50.471   1.955  16.984  0.00  0.00    +0.000 C 
ATOM     18  O   UNL     1      49.833   1.635  15.989  0.00  0.00    +0.000 OA
ATOM     19  H   UNL     1      51.153   0.077  17.343  0.00  0.00    +0.000 HD
ATOM     20  H   UNL     1      51.546   1.192  18.607  0.00  0.00    +0.000 HD
ENDBRANCH  10  17
ENDBRANCH   9  13
ENDBRANCH   8   9
ENDBRANCH   7   8
ENDBRANCH   1   7
BRANCH   4  21
ATOM     21  C   UNL     1      47.884   7.937  11.829  0.00  0.00    +0.000 C 
BRANCH  21  22
ATOM     22  N   UNL     1      47.098   6.732  11.827  0.00  0.00    +0.000 N 
ATOM     23  C   UNL     1      45.734   6.756  11.956  0.00  0.00    +0.000 C 
ATOM     24  O   UNL     1      45.114   7.785  12.212  0.00  0.00    +0.000 OA
ATOM     25  H   UNL     1      47.539   5.907  11.439  0.00  0.00    +0.000 HD
BRANCH  23  26
ATOM     26  C   UNL     1      45.054   5.464  11.814  0.00  0.00    +0.000 A 
ATOM     27  C   UNL     1      44.364   4.913  12.887  0.00  0.00    +0.000 A 
ATOM     28  S   UNL     1      43.674   3.392  12.540  0.00  0.00    +0.000 S 
ATOM     29  C   UNL     1      44.235   3.445  10.937  0.00  0.00    +0.000 A 
ATOM     30  N   UNL     1      43.965   2.436  10.089  0.00  0.00    +0.000 NA
ATOM     31  C   UNL     1      44.465   2.639   8.866  0.00  0.00    +0.000 A 
ATOM     32  N   UNL     1      45.172   3.697   8.441  0.00  0.00    +0.000 NA
ATOM     33  C   UNL     1      45.404   4.659   9.335  0.00  0.00    +0.000 A 
ATOM     34  C   UNL     1      44.958   4.595  10.654  0.00  0.00    +0.000 A 
BRANCH  33  35
ATOM     35  O   UNL     1      46.134   5.700   8.839  0.00  0.00    +0.000 OA
ATOM     36  H   UNL     1      46.398   6.146   9.667  0.00  0.00    +0.000 HD
ENDBRANCH  33  35
ENDBRANCH  23  26
ENDBRANCH  21  22
ENDBRANCH   4  21
TORSDOF 9
ENDMDL
MODEL 4
REMARK VINA RESULT:    -7.392      4.024      8.436
REMARK INTER + INTRA:         -12.345
REMARK INTER:                  -9.970
REMARK INTRA:                  -2.374
REMARK UNBOUND:                -1.279
REMARK  Name = 
REMARK  9 active torsions:
REMARK  status: ('A' for Active; 'I' for Inactive)
REMARK    1  A    between atoms: C_2  and  C_4
REMARK    2  A    between atoms: C_7  and  C_8
REMARK    3  A    between atoms: C_8  and  O_9
REMARK    4  A    between atoms: O_9  and  C_10
REMARK    5  A    between atoms: C_10  and  C_11
REMARK    6  A    between atoms: C_14  and  C_15
REMARK    7  A    between atoms: C_15  and  N_16
REMARK    8  A    between atoms: C_17  and  C_19
REMARK    9  A    between atoms: C_26  and  O_27
REMARK                            x       y       z     vdW  Elec       q    Type
REMARK                         _______ _______ _______ _____ _____    ______ ____
ROOT
ATOM      1  C   UNL     1      49.061   8.261  18.172  0.00  0.00    +0.000 A 
ATOM      2  C   UNL     1      48.205   8.855  17.234  0.00  0.00    +0.000 A 
ATOM      3  C   UNL     1      48.420   8.688  15.863  0.00  0.00    +0.000 A 
ATOM      4  C   UNL     1      49.490   7.911  15.397  0.00  0.00    +0.000 A 
ATOM      5  C   UNL     1      50.369   7.350  16.333  0.00  0.00    +0.000 A 
ATOM      6  C   UNL     1      50.154   7.519  17.706  0.00  0.00    +0.000 A 
ENDROOT
BRANCH   1   7
ATOM      7  C   UNL     1      48.817   8.433  19.651  0.00  0.00    +0.000 C 
BRANCH   7   8
ATOM      8  O   UNL     1      47.562   7.846  19.989  0.00  0.00    +0.000 OA
BRANCH   8   9
ATOM      9  C   UNL     1      47.722   6.553  20.571  0.00  0.00    +0.000 C 
BRANCH   9  13
ATOM     10  C   UNL     1      48.553   3.613  17.504  0.00  0.00    +0.000 A 
ATOM     11  C   UNL     1      47.401   4.402  17.420  0.00  0.00    +0.000 A 
ATOM     12  C   UNL     1      47.133   5.353  18.409  0.00  0.00    +0.000 A 
ATOM     13  C   UNL     1      47.996   5.521  19.501  0.00  0.00    +0.000 A 
ATOM     14  C   UNL     1      49.158   4.737  19.566  0.00  0.00    +0.000 A 
ATOM     15  C   UNL     1      49.429   3.781  18.581  0.00  0.00    +0.000 A 
BRANCH  10  17
ATOM     16  N   UNL     1      49.908   1.723  16.768  0.00  0.00    +0.000 N 
ATOM     17  C   UNL     1      48.865   2.565  16.497  0.00  0.00    +0.000 C 
ATOM     18  O   UNL     1      48.198   2.432  15.479  0.00  0.00    +0.000 OA
ATOM     19  H   UNL     1      50.046   0.957  16.122  0.00  0.00    +0.000 HD
ATOM     20  H   UNL     1      50.315   1.643  17.688  0.00  0.00    +0.000 HD
ENDBRANCH  10  17
ENDBRANCH   9  13
ENDBRANCH   8   9
ENDBRANCH   7   8
ENDBRANCH   1   7
BRANCH   4  21
ATOM     21  C   UNL     1      49.710   7.703  13.920  0.00  0.00    +0.000 C 
BRANCH  21  22
ATOM     22  N   UNL     1      48.460   7.529  13.230  0.00  0.00    +0.000 N 
ATOM     23  C   UNL     1      47.736   6.369  13.321  0.00  0.00    +0.000 C 
ATOM     24  O   UNL     1      48.166   5.366  13.884  0.00  0.00    +0.000 OA
ATOM     25  H   UNL     1      47.994   8.374  12.921  0.00  0.00    +0.000 HD
BRANCH  23  26
ATOM     26  C   UNL     1      46.423   6.380  12.665  0.00  0.00    +0.000 A 
ATOM     27  C   UNL     1      45.929   7.552  12.106  0.00  0.00    +0.000 A 
ATOM     28  S   UNL     1      44.375   7.376  11.425  0.00  0.00    +0.000 S 
ATOM     29  C   UNL     1      44.337   5.722  11.812  0.00  0.00    +0.000 A 
ATOM     30  N   UNL     1      43.270   4.970  11.481  0.00  0.00    +0.000 NA
ATOM     31  C   UNL     1      43.405   3.691  11.845  0.00  0.00    +0.000 A 
ATOM     32  N   UNL     1      44.448   3.128  12.474  0.00  0.00    +0.000 NA
ATOM     33  C   UNL     1      45.469   3.932  12.773  0.00  0.00    +0.000 A 
ATOM     34  C   UNL     1      45.481   5.293  12.470  0.00  0.00    +0.000 A 
BRANCH  33  35
ATOM     35  O   UNL     1      46.491   3.297  13.418  0.00  0.00    +0.000 OA
ATOM     36  H   UNL     1      46.547   3.830  14.235  0.00  0.00    +0.000 HD
ENDBRANCH  33  35
ENDBRANCH  23  26
ENDBRANCH  21  22
ENDBRANCH   4  21
TORSDOF 9
ENDMDL
MODEL 5
REMARK VINA RESULT:    -7.295      1.962      2.427
REMARK INTER + INTRA:         -12.200
REMARK INTER:                 -10.749
REMARK INTRA:                  -1.452
REMARK UNBOUND:                -1.279
REMARK  Name = 
REMARK  9 active torsions:
REMARK  status: ('A' for Active; 'I' for Inactive)
REMARK    1  A    between atoms: C_2  and  C_4
REMARK    2  A    between atoms: C_7  and  C_8
REMARK    3  A    between atoms: C_8  and  O_9
REMARK    4  A    between atoms: O_9  and  C_10
REMARK    5  A    between atoms: C_10  and  C_11
REMARK    6  A    between atoms: C_14  and  C_15
REMARK    7  A    between atoms: C_15  and  N_16
REMARK    8  A    between atoms: C_17  and  C_19
REMARK    9  A    between atoms: C_26  and  O_27
REMARK                            x       y       z     vdW  Elec       q    Type
REMARK                         _______ _______ _______ _____ _____    ______ ____
ROOT
ATOM      1  C   UNL     1      45.636   5.422  12.620  0.00  0.00    +0.000 A 
ATOM      2  C   UNL     1      46.482   5.103  13.692  0.00  0.00    +0.000 A 
ATOM      3  C   UNL     1      47.739   5.704  13.813  0.00  0.00    +0.000 A 
ATOM      4  C   UNL     1      48.174   6.646  12.871  0.00  0.00    +0.000 A 
ATOM      5  C   UNL     1      47.346   6.935  11.778  0.00  0.00    +0.000 A 
ATOM      6  C   UNL     1      46.088   6.332  11.657  0.00  0.00    +0.000 A 
ENDROOT
BRANCH   1   7
ATOM      7  C   UNL     1      44.275   4.782  12.501  0.00  0.00    +0.000 C 
BRANCH   7   8
ATOM      8  O   UNL     1      43.817   4.902  11.156  0.00  0.00    +0.000 OA
BRANCH   8   9
ATOM      9  C   UNL     1      43.578   3.626  10.562  0.00  0.00    +0.000 C 
BRANCH   9  13
ATOM     10  C   UNL     1      46.577   2.752   7.565  0.00  0.00    +0.000 A 
ATOM     11  C   UNL     1      46.187   4.075   7.796  0.00  0.00    +0.000 A 
ATOM     12  C   UNL     1      45.220   4.359   8.766  0.00  0.00    +0.000 A 
ATOM     13  C   UNL     1      44.617   3.332   9.504  0.00  0.00    +0.000 A 
ATOM     14  C   UNL     1      45.028   2.010   9.277  0.00  0.00    +0.000 A 
ATOM     15  C   UNL     1      45.993   1.720   8.306  0.00  0.00    +0.000 A 
BRANCH  10  17
ATOM     16  N   UNL     1      47.392   2.920   5.273  0.00  0.00    +0.000 N 
ATOM     17  C   UNL     1      47.575   2.396   6.523  0.00  0.00    +0.000 C 
ATOM     18  O   UNL     1      48.545   1.692   6.774  0.00  0.00    +0.000 OA
ATOM     19  H   UNL     1      48.130   2.748   4.602  0.00  0.00    +0.000 HD
ATOM     20  H   UNL     1      46.760   3.686   5.093  0.00  0.00    +0.000 HD
ENDBRANCH  10  17
ENDBRANCH   9  13
ENDBRANCH   8   9
ENDBRANCH   7   8
ENDBRANCH   1   7
BRANCH   4  21
ATOM     21  C   UNL     1      49.517   7.319  13.013  0.00  0.00    +0.000 C 
BRANCH  21  22
ATOM     22  N   UNL     1      50.014   7.205  14.358  0.00  0.00    +0.000 N 
ATOM     23  C   UNL     1      51.111   7.904  14.788  0.00  0.00    +0.000 C 
ATOM     24  O   UNL     1      51.812   8.564  14.025  0.00  0.00    +0.000 OA
ATOM     25  H   UNL     1      49.371   6.832  15.046  0.00  0.00    +0.000 HD
BRANCH  23  26
ATOM     26  C   UNL     1      51.429   7.784  16.215  0.00  0.00    +0.000 A 
ATOM     27  C   UNL     1      52.751   7.688  16.632  0.00  0.00    +0.000 A 
ATOM     28  S   UNL     1      52.918   7.517  18.321  0.00  0.00    +0.000 S 
ATOM     29  C   UNL     1      51.237   7.612  18.549  0.00  0.00    +0.000 A 
ATOM     30  N   UNL     1      50.713   7.547  19.787  0.00  0.00    +0.000 NA
ATOM     31  C   UNL     1      49.381   7.650  19.793  0.00  0.00    +0.000 A 
ATOM     32  N   UNL     1      48.571   7.802  18.734  0.00  0.00    +0.000 NA
ATOM     33  C   UNL     1      49.157   7.857  17.537  0.00  0.00    +0.000 A 
ATOM     34  C   UNL     1      50.536   7.756  17.360  0.00  0.00    +0.000 A 
BRANCH  33  35
ATOM     35  O   UNL     1      48.276   8.004  16.506  0.00  0.00    +0.000 OA
ATOM     36  H   UNL     1      47.859   7.121  16.498  0.00  0.00    +0.000 HD
ENDBRANCH  33  35
ENDBRANCH  23  26
ENDBRANCH  21  22
ENDBRANCH   4  21
TORSDOF 9
ENDMDL
MODEL 6
REMARK VINA RESULT:    -6.936      5.082      8.503
REMARK INTER + INTRA:         -11.662
REMARK INTER:                 -10.594
REMARK INTRA:                  -1.068
REMARK UNBOUND:                -1.279
REMARK  Name = 
REMARK  9 active torsions:
REMARK  status: ('A' for Active; 'I' for Inactive)
REMARK    1  A    between atoms: C_2  and  C_4
REMARK    2  A    between atoms: C_7  and  C_8
REMARK    3  A    between atoms: C_8  and  O_9
REMARK    4  A    between atoms: O_9  and  C_10
REMARK    5  A    between atoms: C_10  and  C_11
REMARK    6  A    between atoms: C_14  and  C_15
REMARK    7  A    between atoms: C_15  and  N_16
REMARK    8  A    between atoms: C_17  and  C_19
REMARK    9  A    between atoms: C_26  and  O_27
REMARK                            x       y       z     vdW  Elec       q    Type
REMARK                         _______ _______ _______ _____ _____    ______ ____
ROOT
ATOM      1  C   UNL     1      49.748   9.147  11.484  0.00  0.00    +0.000 A 
ATOM      2  C   UNL     1      48.818  10.185  11.638  0.00  0.00    +0.000 A 
ATOM      3  C   UNL     1      47.549   9.935  12.168  0.00  0.00    +0.000 A 
ATOM      4  C   UNL     1      47.184   8.642  12.569  0.00  0.00    +0.000 A 
ATOM      5  C   UNL     1      48.099   7.598  12.379  0.00  0.00    +0.000 A 
ATOM      6  C   UNL     1      49.368   7.848  11.846  0.00  0.00    +0.000 A 
ENDROOT
BRANCH   1   7
ATOM      7  C   UNL     1      51.122   9.424  10.925  0.00  0.00    +0.000 C 
BRANCH   7   8
ATOM      8  O   UNL     1      51.775   8.186  10.652  0.00  0.00    +0.000 OA
BRANCH   8   9
ATOM      9  C   UNL     1      52.975   8.374   9.903  0.00  0.00    +0.000 C 
BRANCH   9  13
ATOM     10  C   UNL     1      53.797   4.855   7.521  0.00  0.00    +0.000 A 
ATOM     11  C   UNL     1      54.597   5.149   8.630  0.00  0.00    +0.000 A 
ATOM     12  C   UNL     1      54.331   6.284   9.402  0.00  0.00    +0.000 A 
ATOM     13  C   UNL     1      53.279   7.150   9.071  0.00  0.00    +0.000 A 
ATOM     14  C   UNL     1      52.472   6.836   7.967  0.00  0.00    +0.000 A 
ATOM     15  C   UNL     1      52.736   5.704   7.190  0.00  0.00    +0.000 A 
BRANCH  10  17
ATOM     16  N   UNL     1      53.159   2.652   6.694  0.00  0.00    +0.000 N 
ATOM     17  C   UNL     1      54.060   3.679   6.650  0.00  0.00    +0.000 C 
ATOM     18  O   UNL     1      55.022   3.640   5.894  0.00  0.00    +0.000 OA
ATOM     19  H   UNL     1      53.298   1.904   6.027  0.00  0.00    +0.000 HD
ATOM     20  H   UNL     1      52.243   2.750   7.107  0.00  0.00    +0.000 HD
ENDBRANCH  10  17
ENDBRANCH   9  13
ENDBRANCH   8   9
ENDBRANCH   7   8
ENDBRANCH   1   7
BRANCH   4  21
ATOM     21  C   UNL     1      45.827   8.372  13.169  0.00  0.00    +0.000 C 
BRANCH  21  22
ATOM     22  N   UNL     1      45.393   7.030  12.885  0.00  0.00    +0.000 N 
ATOM     23  C   UNL     1      44.631   6.732  11.786  0.00  0.00    +0.000 C 
ATOM     24  O   UNL     1      44.163   7.600  11.054  0.00  0.00    +0.000 OA
ATOM     25  H   UNL     1      45.902   6.285  13.345  0.00  0.00    +0.000 HD
BRANCH  23  26
ATOM     26  C   UNL     1      44.366   5.307  11.557  0.00  0.00    +0.000 A 
ATOM     27  C   UNL     1      43.657   4.567  12.495  0.00  0.00    +0.000 A 
ATOM     28  S   UNL     1      43.484   2.923  12.071  0.00  0.00    +0.000 S 
ATOM     29  C   UNL     1      44.309   3.161  10.605  0.00  0.00    +0.000 A 
ATOM     30  N   UNL     1      44.491   2.136   9.753  0.00  0.00    +0.000 NA
ATOM     31  C   UNL     1      45.145   2.493   8.643  0.00  0.00    +0.000 A 
ATOM     32  N   UNL     1      45.607   3.713   8.328  0.00  0.00    +0.000 NA
ATOM     33  C   UNL     1      45.393   4.681   9.219  0.00  0.00    +0.000 A 
ATOM     34  C   UNL     1      44.735   4.471  10.429  0.00  0.00    +0.000 A 
BRANCH  33  35
ATOM     35  O   UNL     1      45.896   5.892   8.839  0.00  0.00    +0.000 OA
ATOM     36  H   UNL     1      45.151   6.239   8.311  0.00  0.00    +0.000 HD
ENDBRANCH  33  35
ENDBRANCH  23  26
ENDBRANCH  21  22
ENDBRANCH   4  21
TORSDOF 9
ENDMDL
MODEL 7
REMARK VINA RESULT:    -6.897      1.753      2.258
REMARK INTER + INTRA:         -11.604
REMARK INTER:                 -10.659
REMARK INTRA:                  -0.945
REMARK UNBOUND:                -1.279
REMARK  Name = 
REMARK  9 active torsions:
REMARK  status: ('A' for Active; 'I' for Inactive)
REMARK    1  A    between atoms: C_2  and  C_4
REMARK    2  A    between atoms: C_7  and  C_8
REMARK    3  A    between atoms: C_8  and  O_9
REMARK    4  A    between atoms: O_9  and  C_10
REMARK    5  A    between atoms: C_10  and  C_11
REMARK    6  A    between atoms: C_14  and  C_15
REMARK    7  A    between atoms: C_15  and  N_16
REMARK    8  A    between atoms: C_17  and  C_19
REMARK    9  A    between atoms: C_26  and  O_27
REMARK                            x       y       z     vdW  Elec       q    Type
REMARK                         _______ _______ _______ _____ _____    ______ ____
ROOT
ATOM      1  C   UNL     1      46.296   6.700  11.959  0.00  0.00    +0.000 A 
ATOM      2  C   UNL     1      46.526   5.707  12.922  0.00  0.00    +0.000 A 
ATOM      3  C   UNL     1      47.565   5.835  13.848  0.00  0.00    +0.000 A 
ATOM      4  C   UNL     1      48.392   6.967  13.842  0.00  0.00    +0.000 A 
ATOM      5  C   UNL     1      48.188   7.941  12.855  0.00  0.00    +0.000 A 
ATOM      6  C   UNL     1      47.148   7.811  11.928  0.00  0.00    +0.000 A 
ENDROOT
BRANCH   1   7
ATOM      7  C   UNL     1      45.165   6.564  10.971  0.00  0.00    +0.000 C 
BRANCH   7   8
ATOM      8  O   UNL     1      44.414   5.391  11.278  0.00  0.00    +0.000 OA
BRANCH   8   9
ATOM      9  C   UNL     1      43.740   4.878  10.129  0.00  0.00    +0.000 C 
BRANCH   9  13
ATOM     10  C   UNL     1      46.292   2.177   7.910  0.00  0.00    +0.000 A 
ATOM     11  C   UNL     1      45.407   1.671   8.867  0.00  0.00    +0.000 A 
ATOM     12  C   UNL     1      44.580   2.543   9.583  0.00  0.00    +0.000 A 
ATOM     13  C   UNL     1      44.635   3.927   9.370  0.00  0.00    +0.000 A 
ATOM     14  C   UNL     1      45.514   4.422   8.394  0.00  0.00    +0.000 A 
ATOM     15  C   UNL     1      46.346   3.555   7.678  0.00  0.00    +0.000 A 
BRANCH  10  17
ATOM     16  N   UNL     1      47.058  -0.055   7.295  0.00  0.00    +0.000 N 
ATOM     17  C   UNL     1      47.215   1.295   7.147  0.00  0.00    +0.000 C 
ATOM     18  O   UNL     1      48.060   1.751   6.387  0.00  0.00    +0.000 OA
ATOM     19  H   UNL     1      47.627  -0.641   6.698  0.00  0.00    +0.000 HD
ATOM     20  H   UNL     1      46.232  -0.463   7.708  0.00  0.00    +0.000 HD
ENDBRANCH  10  17
ENDBRANCH   9  13
ENDBRANCH   8   9
ENDBRANCH   7   8
ENDBRANCH   1   7
BRANCH   4  21
ATOM     21  C   UNL     1      49.496   7.125  14.857  0.00  0.00    +0.000 C 
BRANCH  21  22
ATOM     22  N   UNL     1      49.005   6.911  16.193  0.00  0.00    +0.000 N 
ATOM     23  C   UNL     1      49.610   6.036  17.056  0.00  0.00    +0.000 C 
ATOM     24  O   UNL     1      50.520   5.289  16.707  0.00  0.00    +0.000 OA
ATOM     25  H   UNL     1      48.395   7.627  16.569  0.00  0.00    +0.000 HD
BRANCH  23  26
ATOM     26  C   UNL     1      49.077   6.012  18.423  0.00  0.00    +0.000 A 
ATOM     27  C   UNL     1      49.033   4.821  19.137  0.00  0.00    +0.000 A 
ATOM     28  S   UNL     1      48.345   4.986  20.689  0.00  0.00    +0.000 S 
ATOM     29  C   UNL     1      48.130   6.657  20.473  0.00  0.00    +0.000 A 
ATOM     30  N   UNL     1      47.593   7.407  21.454  0.00  0.00    +0.000 NA
ATOM     31  C   UNL     1      47.506   8.700  21.129  0.00  0.00    +0.000 A 
ATOM     32  N   UNL     1      47.883   9.278  19.978  0.00  0.00    +0.000 NA
ATOM     33  C   UNL     1      48.404   8.476  19.050  0.00  0.00    +0.000 A 
ATOM     34  C   UNL     1      48.556   7.102  19.229  0.00  0.00    +0.000 A 
BRANCH  33  35
ATOM     35  O   UNL     1      48.757   9.127  17.903  0.00  0.00    +0.000 OA
ATOM     36  H   UNL     1      49.560   8.629  17.653  0.00  0.00    +0.000 HD
ENDBRANCH  33  35
ENDBRANCH  23  26
ENDBRANCH  21  22
ENDBRANCH   4  21
TORSDOF 9
ENDMDL
MODEL 8
REMARK VINA RESULT:    -6.890      4.281      8.909
REMARK INTER + INTRA:         -11.594
REMARK INTER:                  -8.857
REMARK INTRA:                  -2.737
REMARK UNBOUND:                -1.279
REMARK  Name = 
REMARK  9 active torsions:
REMARK  status: ('A' for Active; 'I' for Inactive)
REMARK    1  A    between atoms: C_2  and  C_4
REMARK    2  A    between atoms: C_7  and  C_8
REMARK    3  A    between atoms: C_8  and  O_9
REMARK    4  A    between atoms: O_9  and  C_10
REMARK    5  A    between atoms: C_10  and  C_11
REMARK    6  A    between atoms: C_14  and  C_15
REMARK    7  A    between atoms: C_15  and  N_16
REMARK    8  A    between atoms: C_17  and  C_19
REMARK    9  A    between atoms: C_26  and  O_27
REMARK                            x       y       z     vdW  Elec       q    Type
REMARK                         _______ _______ _______ _____ _____    ______ ____
ROOT
ATOM      1  C   UNL     1      48.743   9.079  19.717  0.00  0.00    +0.000 A 
ATOM      2  C   UNL     1      49.672   8.469  18.862  0.00  0.00    +0.000 A 
ATOM      3  C   UNL     1      49.588   8.640  17.476  0.00  0.00    +0.000 A 
ATOM      4  C   UNL     1      48.580   9.436  16.915  0.00  0.00    +0.000 A 
ATOM      5  C   UNL     1      47.628  10.013  17.766  0.00  0.00    +0.000 A 
ATOM      6  C   UNL     1      47.712   9.840  19.152  0.00  0.00    +0.000 A 
ENDROOT
BRANCH   1   7
ATOM      7  C   UNL     1      48.845   8.903  21.212  0.00  0.00    +0.000 C 
BRANCH   7   8
ATOM      8  O   UNL     1      47.640   8.318  21.698  0.00  0.00    +0.000 OA
BRANCH   8   9
ATOM      9  C   UNL     1      47.819   6.943  22.039  0.00  0.00    +0.000 C 
BRANCH   9  13
ATOM     10  C   UNL     1      48.158   4.517  18.470  0.00  0.00    +0.000 A 
ATOM     11  C   UNL     1      49.136   4.432  19.467  0.00  0.00    +0.000 A 
ATOM     12  C   UNL     1      49.026   5.213  20.621  0.00  0.00    +0.000 A 
ATOM     13  C   UNL     1      47.954   6.101  20.791  0.00  0.00    +0.000 A 
ATOM     14  C   UNL     1      46.970   6.165  19.793  0.00  0.00    +0.000 A 
ATOM     15  C   UNL     1      47.077   5.388  18.635  0.00  0.00    +0.000 A 
BRANCH  10  17
ATOM     16  N   UNL     1      47.095   3.167  16.740  0.00  0.00    +0.000 N 
ATOM     17  C   UNL     1      48.248   3.732  17.211  0.00  0.00    +0.000 C 
ATOM     18  O   UNL     1      49.299   3.622  16.594  0.00  0.00    +0.000 OA
ATOM     19  H   UNL     1      47.152   2.719  15.835  0.00  0.00    +0.000 HD
ATOM     20  H   UNL     1      46.182   3.435  17.076  0.00  0.00    +0.000 HD
ENDBRANCH  10  17
ENDBRANCH   9  13
ENDBRANCH   8   9
ENDBRANCH   7   8
ENDBRANCH   1   7
BRANCH   4  21
ATOM     21  C   UNL     1      48.503   9.648  15.423  0.00  0.00    +0.000 C 
BRANCH  21  22
ATOM     22  N   UNL     1      47.568   8.738  14.819  0.00  0.00    +0.000 N 
ATOM     23  C   UNL     1      47.307   8.752  13.473  0.00  0.00    +0.000 C 
ATOM     24  O   UNL     1      47.751   9.620  12.726  0.00  0.00    +0.000 OA
ATOM     25  H   UNL     1      47.334   7.910  15.353  0.00  0.00    +0.000 HD
BRANCH  23  26
ATOM     26  C   UNL     1      46.426   7.688  12.980  0.00  0.00    +0.000 A 
ATOM     27  C   UNL     1      45.313   8.002  12.209  0.00  0.00    +0.000 A 
ATOM     28  S   UNL     1      44.391   6.638  11.762  0.00  0.00    +0.000 S 
ATOM     29  C   UNL     1      45.474   5.586  12.542  0.00  0.00    +0.000 A 
ATOM     30  N   UNL     1      45.266   4.257  12.521  0.00  0.00    +0.000 NA
ATOM     31  C   UNL     1      46.215   3.574  13.168  0.00  0.00    +0.000 A 
ATOM     32  N   UNL     1      47.290   4.070  13.799  0.00  0.00    +0.000 NA
ATOM     33  C   UNL     1      47.433   5.395  13.782  0.00  0.00    +0.000 A 
ATOM     34  C   UNL     1      46.526   6.251  13.158  0.00  0.00    +0.000 A 
BRANCH  33  35
ATOM     35  O   UNL     1      48.541   5.832  14.449  0.00  0.00    +0.000 OA
ATOM     36  H   UNL     1      48.322   6.778  14.562  0.00  0.00    +0.000 HD
ENDBRANCH  33  35
ENDBRANCH  23  26
ENDBRANCH  21  22
ENDBRANCH   4  21
TORSDOF 9
ENDMDL
MODEL 9
REMARK VINA RESULT:    -6.677      4.160      9.075
REMARK INTER + INTRA:         -11.275
REMARK INTER:                  -9.079
REMARK INTRA:                  -2.196
REMARK UNBOUND:                -1.279
REMARK  Name = 
REMARK  9 active torsions:
REMARK  status: ('A' for Active; 'I' for Inactive)
REMARK    1  A    between atoms: C_2  and  C_4
REMARK    2  A    between atoms: C_7  and  C_8
REMARK    3  A    between atoms: C_8  and  O_9
REMARK    4  A    between atoms: O_9  and  C_10
REMARK    5  A    between atoms: C_10  and  C_11
REMARK    6  A    between atoms: C_14  and  C_15
REMARK    7  A    between atoms: C_15  and  N_16
REMARK    8  A    between atoms: C_17  and  C_19
REMARK    9  A    between atoms: C_26  and  O_27
REMARK                            x       y       z     vdW  Elec       q    Type
REMARK                         _______ _______ _______ _____ _____    ______ ____
ROOT
ATOM      1  C   UNL     1      51.693   7.846  17.132  0.00  0.00    +0.000 A 
ATOM      2  C   UNL     1      50.927   8.990  17.400  0.00  0.00    +0.000 A 
ATOM      3  C   UNL     1      49.836   9.325  16.591  0.00  0.00    +0.000 A 
ATOM      4  C   UNL     1      49.479   8.517  15.504  0.00  0.00    +0.000 A 
ATOM      5  C   UNL     1      50.268   7.396  15.212  0.00  0.00    +0.000 A 
ATOM      6  C   UNL     1      51.360   7.063  16.020  0.00  0.00    +0.000 A 
ENDROOT
BRANCH   1   7
ATOM      7  C   UNL     1      52.861   7.481  18.015  0.00  0.00    +0.000 C 
BRANCH   7   8
ATOM      8  O   UNL     1      52.385   7.211  19.332  0.00  0.00    +0.000 OA
BRANCH   8   9
ATOM      9  C   UNL     1      52.440   5.819  19.639  0.00  0.00    +0.000 C 
BRANCH   9  13
ATOM     10  C   UNL     1      49.288   3.692  17.569  0.00  0.00    +0.000 A 
ATOM     11  C   UNL     1      48.971   4.768  18.405  0.00  0.00    +0.000 A 
ATOM     12  C   UNL     1      49.988   5.458  19.073  0.00  0.00    +0.000 A 
ATOM     13  C   UNL     1      51.330   5.076  18.932  0.00  0.00    +0.000 A 
ATOM     14  C   UNL     1      51.639   4.007  18.077  0.00  0.00    +0.000 A 
ATOM     15  C   UNL     1      50.624   3.312  17.409  0.00  0.00    +0.000 A 
BRANCH  10  17
ATOM     16  N   UNL     1      46.993   2.882  17.424  0.00  0.00    +0.000 N 
ATOM     17  C   UNL     1      48.241   2.908  16.865  0.00  0.00    +0.000 C 
ATOM     18  O   UNL     1      48.467   2.334  15.807  0.00  0.00    +0.000 OA
ATOM     19  H   UNL     1      46.269   2.426  16.885  0.00  0.00    +0.000 HD
ATOM     20  H   UNL     1      46.708   3.529  18.144  0.00  0.00    +0.000 HD
ENDBRANCH  10  17
ENDBRANCH   9  13
ENDBRANCH   8   9
ENDBRANCH   7   8
ENDBRANCH   1   7
BRANCH   4  21
ATOM     21  C   UNL     1      48.285   8.857  14.646  0.00  0.00    +0.000 C 
BRANCH  21  22
ATOM     22  N   UNL     1      47.498   7.685  14.367  0.00  0.00    +0.000 N 
ATOM     23  C   UNL     1      47.136   7.342  13.091  0.00  0.00    +0.000 C 
ATOM     24  O   UNL     1      47.345   8.074  12.127  0.00  0.00    +0.000 OA
ATOM     25  H   UNL     1      47.470   6.978  15.091  0.00  0.00    +0.000 HD
BRANCH  23  26
ATOM     26  C   UNL     1      46.439   6.059  12.946  0.00  0.00    +0.000 A 
ATOM     27  C   UNL     1      47.006   4.894  13.448  0.00  0.00    +0.000 A 
ATOM     28  S   UNL     1      46.068   3.500  13.150  0.00  0.00    +0.000 S 
ATOM     29  C   UNL     1      44.858   4.416  12.384  0.00  0.00    +0.000 A 
ATOM     30  N   UNL     1      43.753   3.816  11.903  0.00  0.00    +0.000 NA
ATOM     31  C   UNL     1      42.898   4.677  11.344  0.00  0.00    +0.000 A 
ATOM     32  N   UNL     1      43.039   6.007  11.228  0.00  0.00    +0.000 NA
ATOM     33  C   UNL     1      44.159   6.533  11.724  0.00  0.00    +0.000 A 
ATOM     34  C   UNL     1      45.156   5.770  12.331  0.00  0.00    +0.000 A 
BRANCH  33  35
ATOM     35  O   UNL     1      44.242   7.886  11.565  0.00  0.00    +0.000 OA
ATOM     36  H   UNL     1      44.945   8.101  12.209  0.00  0.00    +0.000 HD
ENDBRANCH  33  35
ENDBRANCH  23  26
ENDBRANCH  21  22
ENDBRANCH   4  21
TORSDOF 9
ENDMDL
