MODEL 1
REMARK VINA RESULT:    -6.876      0.000      0.000
REMARK INTER + INTRA:          -9.368
REMARK INTER:                  -8.886
REMARK INTRA:                  -0.481
REMARK UNBOUND:                -0.481
REMARK  Name = 
REMARK  6 active torsions:
REMARK  status: ('A' for Active; 'I' for Inactive)
REMARK    1  A    between atoms: C_1  and  N_2
REMARK    2  A    between atoms: N_2  and  C_3
REMARK    3  A    between atoms: N_2  and  C_11
REMARK    4  A    between atoms: C_8  and  C_9
REMARK    5  A    between atoms: C_11  and  C_12
REMARK    6  A    between atoms: C_16  and  C_17
REMARK                            x       y       z     vdW  Elec       q    Type
REMARK                         _______ _______ _______ _____ _____    ______ ____
ROOT
ATOM      1  C   UNL     1      45.668   5.480  12.305  0.00  0.00    +0.000 C 
ATOM      2  C   UNL     1      46.378   4.232  12.822  0.00  0.00    +0.000 C 
ATOM      3  C   UNL     1      45.348   4.882  13.678  0.00  0.00    +0.000 C 
ENDROOT
BRANCH   1   4
ATOM      4  C   UNL     1      46.444   6.801  12.359  0.00  0.00    +0.000 A 
ATOM      5  C   UNL     1      47.844   6.821  12.279  0.00  0.00    +0.000 A 
ATOM      6  C   UNL     1      48.534   8.006  12.044  0.00  0.00    +0.000 A 
ATOM      7  C   UNL     1      47.832   9.203  11.905  0.00  0.00    +0.000 A 
ATOM      8  C   UNL     1      46.435   9.250  12.051  0.00  0.00    +0.000 A 
ATOM      9  C   UNL     1      45.771   8.038  12.316  0.00  0.00    +0.000 A 
BRANCH   8  10
ATOM     10  C   UNL     1      45.685  10.506  11.855  0.00  0.00    +0.000 A 
ATOM     11  C   UNL     1      46.335  11.732  11.645  0.00  0.00    +0.000 A 
ATOM     12  C   UNL     1      45.605  12.903  11.447  0.00  0.00    +0.000 A 
ATOM     13  C   UNL     1      44.224  12.822  11.453  0.00  0.00    +0.000 A 
ATOM     14  N   UNL     1      43.545  11.673  11.641  0.00  0.00    +0.000 NA
ATOM     15  C   UNL     1      44.289  10.553  11.836  0.00  0.00    +0.000 A 
ENDBRANCH   8  10
ENDBRANCH   1   4
BRANCH   1  17
ATOM     16  C   UNL     1      43.536   6.255  11.214  0.00  0.00    +0.000 C 
ATOM     17  N   UNL     1      44.684   5.361  11.191  0.00  0.00    +0.000 N 
BRANCH  17  18
ATOM     18  C   UNL     1      44.971   4.531  10.099  0.00  0.00    +0.000 A 
ATOM     19  N   UNL     1      45.686   5.103   9.089  0.00  0.00    +0.000 NA
ATOM     20  C   UNL     1      46.042   4.373   8.009  0.00  0.00    +0.000 A 
ATOM     21  C   UNL     1      45.711   3.046   7.845  0.00  0.00    +0.000 A 
ATOM     22  C   UNL     1      44.964   2.449   8.846  0.00  0.00    +0.000 A 
ATOM     23  C   UNL     1      44.577   3.189   9.981  0.00  0.00    +0.000 A 
BRANCH  23  24
ATOM     24  C   UNL     1      43.731   2.530  10.921  0.00  0.00    +0.000 C 
ATOM     25  N   UNL     1      43.021   2.021  11.694  0.00  0.00    +0.000 NA
ENDBRANCH  23  24
ENDBRANCH  17  18
ENDBRANCH   1  17
TORSDOF 5
ENDMDL
MODEL 2
REMARK VINA RESULT:    -6.863      2.229      3.939
REMARK INTER + INTRA:          -9.351
REMARK INTER:                  -8.743
REMARK INTRA:                  -0.608
REMARK UNBOUND:                -0.481
REMARK  Name = 
REMARK  6 active torsions:
REMARK  status: ('A' for Active; 'I' for Inactive)
REMARK    1  A    between atoms: C_1  and  N_2
REMARK    2  A    between atoms: N_2  and  C_3
REMARK    3  A    between atoms: N_2  and  C_11
REMARK    4  A    between atoms: C_8  and  C_9
REMARK    5  A    between atoms: C_11  and  C_12
REMARK    6  A    between atoms: C_16  and  C_17
REMARK                            x       y       z     vdW  Elec       q    Type
REMARK                         _______ _______ _______ _____ _____    ______ ____
ROOT
ATOM      1  C   UNL     1      45.726   5.776  12.097  0.00  0.00    +0.000 C 
ATOM      2  C   UNL     1      46.475   4.622  12.755  0.00  0.00    +0.000 C 
ATOM      3  C   UNL     1      45.461   5.368  13.548  0.00  0.00    +0.000 C 
ENDROOT
BRANCH   1   4
ATOM      4  C   UNL     1      46.478   7.103  11.944  0.00  0.00    +0.000 A 
ATOM      5  C   UNL     1      45.830   8.330  12.152  0.00  0.00    +0.000 A 
ATOM      6  C   UNL     1      46.553   9.510  12.294  0.00  0.00    +0.000 A 
ATOM      7  C   UNL     1      47.945   9.487  12.208  0.00  0.00    +0.000 A 
ATOM      8  C   UNL     1      48.639   8.298  11.926  0.00  0.00    +0.000 A 
ATOM      9  C   UNL     1      47.875   7.127  11.760  0.00  0.00    +0.000 A 
BRANCH   8  10
ATOM     10  C   UNL     1      50.113   8.261  11.884  0.00  0.00    +0.000 A 
ATOM     11  C   UNL     1      50.809   7.672  10.817  0.00  0.00    +0.000 A 
ATOM     12  C   UNL     1      52.203   7.662  10.791  0.00  0.00    +0.000 A 
ATOM     13  C   UNL     1      52.880   8.257  11.840  0.00  0.00    +0.000 A 
ATOM     14  N   UNL     1      52.267   8.846  12.886  0.00  0.00    +0.000 NA
ATOM     15  C   UNL     1      50.909   8.831  12.881  0.00  0.00    +0.000 A 
ENDBRANCH   8  10
ENDBRANCH   1   4
BRANCH   1  17
ATOM     16  C   UNL     1      43.488   6.279  11.060  0.00  0.00    +0.000 C 
ATOM     17  N   UNL     1      44.712   5.491  11.042  0.00  0.00    +0.000 N 
BRANCH  17  18
ATOM     18  C   UNL     1      45.027   4.613   9.996  0.00  0.00    +0.000 A 
ATOM     19  N   UNL     1      45.760   5.142   8.976  0.00  0.00    +0.000 NA
ATOM     20  C   UNL     1      46.144   4.366   7.939  0.00  0.00    +0.000 A 
ATOM     21  C   UNL     1      45.825   3.030   7.830  0.00  0.00    +0.000 A 
ATOM     22  C   UNL     1      45.060   2.475   8.842  0.00  0.00    +0.000 A 
ATOM     23  C   UNL     1      44.644   3.265   9.932  0.00  0.00    +0.000 A 
BRANCH  23  24
ATOM     24  C   UNL     1      43.782   2.644  10.884  0.00  0.00    +0.000 C 
ATOM     25  N   UNL     1      43.071   2.167  11.676  0.00  0.00    +0.000 NA
ENDBRANCH  23  24
ENDBRANCH  17  18
ENDBRANCH   1  17
TORSDOF 5
ENDMDL
MODEL 3
REMARK VINA RESULT:    -6.212      2.689      7.211
REMARK INTER + INTRA:          -8.509
REMARK INTER:                  -8.373
REMARK INTRA:                  -0.135
REMARK UNBOUND:                -0.481
REMARK  Name = 
REMARK  6 active torsions:
REMARK  status: ('A' for Active; 'I' for Inactive)
REMARK    1  A    between atoms: C_1  and  N_2
REMARK    2  A    between atoms: N_2  and  C_3
REMARK    3  A    between atoms: N_2  and  C_11
REMARK    4  A    between atoms: C_8  and  C_9
REMARK    5  A    between atoms: C_11  and  C_12
REMARK    6  A    between atoms: C_16  and  C_17
REMARK                            x       y       z     vdW  Elec       q    Type
REMARK                         _______ _______ _______ _____ _____    ______ ____
ROOT
ATOM      1  C   UNL     1      46.496   7.442  12.475  0.00  0.00    +0.000 C 
ATOM      2  C   UNL     1      46.454   8.863  11.921  0.00  0.00    +0.000 C 
ATOM      3  C   UNL     1      45.860   8.593  13.258  0.00  0.00    +0.000 C 
ENDROOT
BRANCH   1   4
ATOM      4  C   UNL     1      45.489   6.437  11.904  0.00  0.00    +0.000 A 
ATOM      5  C   UNL     1      44.110   6.602  12.102  0.00  0.00    +0.000 A 
ATOM      6  C   UNL     1      43.185   5.870  11.365  0.00  0.00    +0.000 A 
ATOM      7  C   UNL     1      43.626   4.938  10.425  0.00  0.00    +0.000 A 
ATOM      8  C   UNL     1      44.995   4.680  10.241  0.00  0.00    +0.000 A 
ATOM      9  C   UNL     1      45.904   5.418  11.023  0.00  0.00    +0.000 A 
BRANCH   8  10
ATOM     10  C   UNL     1      45.466   3.731   9.214  0.00  0.00    +0.000 A 
ATOM     11  C   UNL     1      46.037   4.169   8.008  0.00  0.00    +0.000 A 
ATOM     12  C   UNL     1      46.489   3.254   7.058  0.00  0.00    +0.000 A 
ATOM     13  C   UNL     1      46.369   1.905   7.340  0.00  0.00    +0.000 A 
ATOM     14  N   UNL     1      45.838   1.427   8.483  0.00  0.00    +0.000 NA
ATOM     15  C   UNL     1      45.403   2.346   9.383  0.00  0.00    +0.000 A 
ENDBRANCH   8  10
ENDBRANCH   1   4
BRANCH   1  17
ATOM     16  C   UNL     1      48.971   7.156  12.112  0.00  0.00    +0.000 C 
ATOM     17  N   UNL     1      47.796   6.863  12.920  0.00  0.00    +0.000 N 
BRANCH  17  18
ATOM     18  C   UNL     1      47.876   6.211  14.157  0.00  0.00    +0.000 A 
ATOM     19  N   UNL     1      47.321   4.966  14.211  0.00  0.00    +0.000 NA
ATOM     20  C   UNL     1      47.380   4.243  15.350  0.00  0.00    +0.000 A 
ATOM     21  C   UNL     1      47.972   4.696  16.509  0.00  0.00    +0.000 A 
ATOM     22  C   UNL     1      48.521   5.966  16.488  0.00  0.00    +0.000 A 
ATOM     23  C   UNL     1      48.470   6.742  15.313  0.00  0.00    +0.000 A 
BRANCH  23  24
ATOM     24  C   UNL     1      48.973   8.074  15.399  0.00  0.00    +0.000 C 
ATOM     25  N   UNL     1      49.414   9.152  15.454  0.00  0.00    +0.000 NA
ENDBRANCH  23  24
ENDBRANCH  17  18
ENDBRANCH   1  17
TORSDOF 5
ENDMDL
MODEL 4
REMARK VINA RESULT:    -5.885      4.064      7.088
REMARK INTER + INTRA:          -8.086
REMARK INTER:                  -7.567
REMARK INTRA:                  -0.519
REMARK UNBOUND:                -0.481
REMARK  Name = 
REMARK  6 active torsions:
REMARK  status: ('A' for Active; 'I' for Inactive)
REMARK    1  A    between atoms: C_1  and  N_2
REMARK    2  A    between atoms: N_2  and  C_3
REMARK    3  A    between atoms: N_2  and  C_11
REMARK    4  A    between atoms: C_8  and  C_9
REMARK    5  A    between atoms: C_11  and  C_12
REMARK    6  A    between atoms: C_16  and  C_17
REMARK                            x       y       z     vdW  Elec       q    Type
REMARK                         _______ _______ _______ _____ _____    ______ ____
ROOT
ATOM      1  C   UNL     1      48.946   8.125  15.277  0.00  0.00    +0.000 C 
ATOM      2  C   UNL     1      49.467   9.520  15.607  0.00  0.00    +0.000 C 
ATOM      3  C   UNL     1      48.133   9.109  16.122  0.00  0.00    +0.000 C 
ENDROOT
BRANCH   1   4
ATOM      4  C   UNL     1      48.391   7.899  13.866  0.00  0.00    +0.000 A 
ATOM      5  C   UNL     1      49.137   8.249  12.730  0.00  0.00    +0.000 A 
ATOM      6  C   UNL     1      48.775   7.797  11.465  0.00  0.00    +0.000 A 
ATOM      7  C   UNL     1      47.640   7.001  11.310  0.00  0.00    +0.000 A 
ATOM      8  C   UNL     1      46.816   6.685  12.403  0.00  0.00    +0.000 A 
ATOM      9  C   UNL     1      47.195   7.181  13.664  0.00  0.00    +0.000 A 
BRANCH   8  10
ATOM     10  C   UNL     1      45.643   5.802  12.250  0.00  0.00    +0.000 A 
ATOM     11  C   UNL     1      44.905   5.752  11.057  0.00  0.00    +0.000 A 
ATOM     12  C   UNL     1      43.809   4.899  10.930  0.00  0.00    +0.000 A 
ATOM     13  C   UNL     1      43.476   4.098  12.007  0.00  0.00    +0.000 A 
ATOM     14  N   UNL     1      44.153   4.097  13.173  0.00  0.00    +0.000 NA
ATOM     15  C   UNL     1      45.210   4.944  13.263  0.00  0.00    +0.000 A 
ENDBRANCH   8  10
ENDBRANCH   1   4
BRANCH   1  17
ATOM     16  C   UNL     1      51.024   6.929  16.042  0.00  0.00    +0.000 C 
ATOM     17  N   UNL     1      49.574   6.933  15.915  0.00  0.00    +0.000 N 
BRANCH  17  18
ATOM     18  C   UNL     1      48.763   5.955  16.506  0.00  0.00    +0.000 A 
ATOM     19  N   UNL     1      48.310   4.975  15.673  0.00  0.00    +0.000 NA
ATOM     20  C   UNL     1      47.550   3.968  16.156  0.00  0.00    +0.000 A 
ATOM     21  C   UNL     1      47.177   3.863  17.478  0.00  0.00    +0.000 A 
ATOM     22  C   UNL     1      47.604   4.859  18.340  0.00  0.00    +0.000 A 
ATOM     23  C   UNL     1      48.395   5.923  17.860  0.00  0.00    +0.000 A 
BRANCH  23  24
ATOM     24  C   UNL     1      48.715   6.956  18.789  0.00  0.00    +0.000 C 
ATOM     25  N   UNL     1      49.008   7.806  19.532  0.00  0.00    +0.000 NA
ENDBRANCH  23  24
ENDBRANCH  17  18
ENDBRANCH   1  17
TORSDOF 5
ENDMDL
MODEL 5
REMARK VINA RESULT:    -5.879      3.570      7.416
REMARK INTER + INTRA:          -8.079
REMARK INTER:                  -7.579
REMARK INTRA:                  -0.500
REMARK UNBOUND:                -0.481
REMARK  Name = 
REMARK  6 active torsions:
REMARK  status: ('A' for Active; 'I' for Inactive)
REMARK    1  A    between atoms: C_1  and  N_2
REMARK    2  A    between atoms: N_2  and  C_3
REMARK    3  A    between atoms: N_2  and  C_11
REMARK    4  A    between atoms: C_8  and  C_9
REMARK    5  A    between atoms: C_11  and  C_12
REMARK    6  A    between atoms: C_16  and  C_17
REMARK                            x       y       z     vdW  Elec       q    Type
REMARK                         _______ _______ _______ _____ _____    ______ ____
ROOT
ATOM      1  C   UNL     1      48.813   8.122  12.672  0.00  0.00    +0.000 C 
ATOM      2  C   UNL     1      49.842   7.308  11.894  0.00  0.00    +0.000 C 
ATOM      3  C   UNL     1      49.546   8.700  11.460  0.00  0.00    +0.000 C 
ENDROOT
BRANCH   1   4
ATOM      4  C   UNL     1      47.334   7.806  12.422  0.00  0.00    +0.000 A 
ATOM      5  C   UNL     1      46.337   8.759  12.679  0.00  0.00    +0.000 A 
ATOM      6  C   UNL     1      45.042   8.593  12.198  0.00  0.00    +0.000 A 
ATOM      7  C   UNL     1      44.714   7.452  11.466  0.00  0.00    +0.000 A 
ATOM      8  C   UNL     1      45.655   6.431  11.245  0.00  0.00    +0.000 A 
ATOM      9  C   UNL     1      46.948   6.618  11.769  0.00  0.00    +0.000 A 
BRANCH   8  10
ATOM     10  C   UNL     1      45.325   5.247  10.429  0.00  0.00    +0.000 A 
ATOM     11  C   UNL     1      45.766   5.115   9.103  0.00  0.00    +0.000 A 
ATOM     12  C   UNL     1      45.455   3.980   8.355  0.00  0.00    +0.000 A 
ATOM     13  C   UNL     1      44.709   2.984   8.959  0.00  0.00    +0.000 A 
ATOM     14  N   UNL     1      44.266   3.051  10.231  0.00  0.00    +0.000 NA
ATOM     15  C   UNL     1      44.583   4.173  10.927  0.00  0.00    +0.000 A 
ENDBRANCH   8  10
ENDBRANCH   1   4
BRANCH   1  17
ATOM     16  C   UNL     1      48.851   9.999  14.349  0.00  0.00    +0.000 C 
ATOM     17  N   UNL     1      49.141   8.605  14.045  0.00  0.00    +0.000 N 
BRANCH  17  18
ATOM     18  C   UNL     1      49.551   7.690  15.022  0.00  0.00    +0.000 A 
ATOM     19  N   UNL     1      48.554   7.004  15.651  0.00  0.00    +0.000 NA
ATOM     20  C   UNL     1      48.852   6.073  16.584  0.00  0.00    +0.000 A 
ATOM     21  C   UNL     1      50.138   5.766  16.968  0.00  0.00    +0.000 A 
ATOM     22  C   UNL     1      51.167   6.465  16.362  0.00  0.00    +0.000 A 
ATOM     23  C   UNL     1      50.883   7.444  15.388  0.00  0.00    +0.000 A 
BRANCH  23  24
ATOM     24  C   UNL     1      51.990   8.185  14.879  0.00  0.00    +0.000 C 
ATOM     25  N   UNL     1      52.887   8.817  14.484  0.00  0.00    +0.000 NA
ENDBRANCH  23  24
ENDBRANCH  17  18
ENDBRANCH   1  17
TORSDOF 5
ENDMDL
MODEL 6
REMARK VINA RESULT:    -5.837      2.800      3.417
REMARK INTER + INTRA:          -8.024
REMARK INTER:                  -7.473
REMARK INTRA:                  -0.551
REMARK UNBOUND:                -0.481
REMARK  Name = 
REMARK  6 active torsions:
REMARK  status: ('A' for Active; 'I' for Inactive)
REMARK    1  A    between atoms: C_1  and  N_2
REMARK    2  A    between atoms: N_2  and  C_3
REMARK    3  A    between atoms: N_2  and  C_11
REMARK    4  A    between atoms: C_8  and  C_9
REMARK    5  A    between atoms: C_11  and  C_12
REMARK    6  A    between atoms: C_16  and  C_17
REMARK                            x       y       z     vdW  Elec       q    Type
REMARK                         _______ _______ _______ _____ _____    ______ ____
ROOT
ATOM      1  C   UNL     1      46.602   5.430  12.983  0.00  0.00    +0.000 C 
ATOM      2  C   UNL     1      47.153   4.025  13.207  0.00  0.00    +0.000 C 
ATOM      3  C   UNL     1      46.488   4.728  14.338  0.00  0.00    +0.000 C 
ENDROOT
BRANCH   1   4
ATOM      4  C   UNL     1      47.612   6.583  12.954  0.00  0.00    +0.000 A 
ATOM      5  C   UNL     1      48.218   6.984  11.754  0.00  0.00    +0.000 A 
ATOM      6  C   UNL     1      48.908   8.189  11.664  0.00  0.00    +0.000 A 
ATOM      7  C   UNL     1      49.022   9.009  12.786  0.00  0.00    +0.000 A 
ATOM      8  C   UNL     1      48.499   8.620  14.031  0.00  0.00    +0.000 A 
ATOM      9  C   UNL     1      47.832   7.382  14.094  0.00  0.00    +0.000 A 
BRANCH   8  10
ATOM     10  C   UNL     1      48.575   9.507  15.208  0.00  0.00    +0.000 A 
ATOM     11  C   UNL     1      48.053   9.131  16.455  0.00  0.00    +0.000 A 
ATOM     12  C   UNL     1      48.150   9.980  17.556  0.00  0.00    +0.000 A 
ATOM     13  C   UNL     1      48.783  11.198  17.389  0.00  0.00    +0.000 A 
ATOM     14  N   UNL     1      49.312  11.609  16.219  0.00  0.00    +0.000 NA
ATOM     15  C   UNL     1      49.193  10.760  15.166  0.00  0.00    +0.000 A 
ENDBRANCH   8  10
ENDBRANCH   1   4
BRANCH   1  17
ATOM     16  C   UNL     1      44.499   6.720  12.481  0.00  0.00    +0.000 C 
ATOM     17  N   UNL     1      45.390   5.621  12.136  0.00  0.00    +0.000 N 
BRANCH  17  18
ATOM     18  C   UNL     1      45.234   4.863  10.968  0.00  0.00    +0.000 A 
ATOM     19  N   UNL     1      45.767   5.401   9.834  0.00  0.00    +0.000 NA
ATOM     20  C   UNL     1      45.699   4.728   8.664  0.00  0.00    +0.000 A 
ATOM     21  C   UNL     1      45.097   3.497   8.529  0.00  0.00    +0.000 A 
ATOM     22  C   UNL     1      44.527   2.940   9.661  0.00  0.00    +0.000 A 
ATOM     23  C   UNL     1      44.581   3.623  10.892  0.00  0.00    +0.000 A 
BRANCH  23  24
ATOM     24  C   UNL     1      43.890   3.028  11.989  0.00  0.00    +0.000 C 
ATOM     25  N   UNL     1      43.354   2.545  12.905  0.00  0.00    +0.000 NA
ENDBRANCH  23  24
ENDBRANCH  17  18
ENDBRANCH   1  17
TORSDOF 5
ENDMDL
MODEL 7
REMARK VINA RESULT:    -5.593      5.119      8.090
REMARK INTER + INTRA:          -7.709
REMARK INTER:                  -7.424
REMARK INTRA:                  -0.284
REMARK UNBOUND:                -0.481
REMARK  Name = 
REMARK  6 active torsions:
REMARK  status: ('A' for Active; 'I' for Inactive)
REMARK    1  A    between atoms: C_1  and  N_2
REMARK    2  A    between atoms: N_2  and  C_3
REMARK    3  A    between atoms: N_2  and  C_11
REMARK    4  A    between atoms: C_8  and  C_9
REMARK    5  A    between atoms: C_11  and  C_12
REMARK    6  A    between atoms: C_16  and  C_17
REMARK                            x       y       z     vdW  Elec       q    Type
REMARK                         _______ _______ _______ _____ _____    ______ ____
ROOT
ATOM      1  C   UNL     1      48.213   4.893  16.655  0.00  0.00    +0.000 C 
ATOM      2  C   UNL     1      47.145   3.973  17.237  0.00  0.00    +0.000 C 
ATOM      3  C   UNL     1      48.337   3.370  16.583  0.00  0.00    +0.000 C 
ENDROOT
BRANCH   1   4
ATOM      4  C   UNL     1      47.904   5.564  15.311  0.00  0.00    +0.000 A 
ATOM      5  C   UNL     1      48.793   6.488  14.743  0.00  0.00    +0.000 A 
ATOM      6  C   UNL     1      48.667   6.883  13.414  0.00  0.00    +0.000 A 
ATOM      7  C   UNL     1      47.629   6.375  12.634  0.00  0.00    +0.000 A 
ATOM      8  C   UNL     1      46.667   5.505  13.176  0.00  0.00    +0.000 A 
ATOM      9  C   UNL     1      46.808   5.147  14.529  0.00  0.00    +0.000 A 
BRANCH   8  10
ATOM     10  C   UNL     1      45.597   4.927  12.339  0.00  0.00    +0.000 A 
ATOM     11  C   UNL     1      45.468   5.244  10.978  0.00  0.00    +0.000 A 
ATOM     12  C   UNL     1      44.458   4.674  10.204  0.00  0.00    +0.000 A 
ATOM     13  C   UNL     1      43.595   3.780  10.812  0.00  0.00    +0.000 A 
ATOM     14  N   UNL     1      43.675   3.431  12.111  0.00  0.00    +0.000 NA
ATOM     15  C   UNL     1      44.667   4.011  12.836  0.00  0.00    +0.000 A 
ENDBRANCH   8  10
ENDBRANCH   1   4
BRANCH   1  17
ATOM     16  C   UNL     1      50.532   5.492  17.430  0.00  0.00    +0.000 C 
ATOM     17  N   UNL     1      49.094   5.673  17.571  0.00  0.00    +0.000 N 
BRANCH  17  18
ATOM     18  C   UNL     1      48.536   6.651  18.403  0.00  0.00    +0.000 A 
ATOM     19  N   UNL     1      48.367   7.883  17.844  0.00  0.00    +0.000 NA
ATOM     20  C   UNL     1      47.803   8.883  18.556  0.00  0.00    +0.000 A 
ATOM     21  C   UNL     1      47.382   8.744  19.860  0.00  0.00    +0.000 A 
ATOM     22  C   UNL     1      47.564   7.510  20.460  0.00  0.00    +0.000 A 
ATOM     23  C   UNL     1      48.153   6.451  19.739  0.00  0.00    +0.000 A 
BRANCH  23  24
ATOM     24  C   UNL     1      48.392   5.241  20.455  0.00  0.00    +0.000 C 
ATOM     25  N   UNL     1      48.564   4.261  21.064  0.00  0.00    +0.000 NA
ENDBRANCH  23  24
ENDBRANCH  17  18
ENDBRANCH   1  17
TORSDOF 5
ENDMDL
MODEL 8
REMARK VINA RESULT:    -5.580      3.449      7.391
REMARK INTER + INTRA:          -7.692
REMARK INTER:                  -6.989
REMARK INTRA:                  -0.702
REMARK UNBOUND:                -0.481
REMARK  Name = 
REMARK  6 active torsions:
REMARK  status: ('A' for Active; 'I' for Inactive)
REMARK    1  A    between atoms: C_1  and  N_2
REMARK    2  A    between atoms: N_2  and  C_3
REMARK    3  A    between atoms: N_2  and  C_11
REMARK    4  A    between atoms: C_8  and  C_9
REMARK    5  A    between atoms: C_11  and  C_12
REMARK    6  A    between atoms: C_16  and  C_17
REMARK                            x       y       z     vdW  Elec       q    Type
REMARK                         _______ _______ _______ _____ _____    ______ ____
ROOT
ATOM      1  C   UNL     1      49.507   8.482  12.638  0.00  0.00    +0.000 C 
ATOM      2  C   UNL     1      50.209   7.878  11.426  0.00  0.00    +0.000 C 
ATOM      3  C   UNL     1      50.026   9.353  11.491  0.00  0.00    +0.000 C 
ENDROOT
BRANCH   1   4
ATOM      4  C   UNL     1      47.980   8.362  12.697  0.00  0.00    +0.000 A 
ATOM      5  C   UNL     1      47.162   9.501  12.632  0.00  0.00    +0.000 A 
ATOM      6  C   UNL     1      45.794   9.391  12.400  0.00  0.00    +0.000 A 
ATOM      7  C   UNL     1      45.214   8.131  12.251  0.00  0.00    +0.000 A 
ATOM      8  C   UNL     1      45.975   6.957  12.382  0.00  0.00    +0.000 A 
ATOM      9  C   UNL     1      47.350   7.103  12.644  0.00  0.00    +0.000 A 
BRANCH   8  10
ATOM     10  C   UNL     1      45.373   5.625  12.176  0.00  0.00    +0.000 A 
ATOM     11  C   UNL     1      45.114   5.121  10.892  0.00  0.00    +0.000 A 
ATOM     12  C   UNL     1      44.559   3.854  10.720  0.00  0.00    +0.000 A 
ATOM     13  C   UNL     1      44.281   3.104  11.848  0.00  0.00    +0.000 A 
ATOM     14  N   UNL     1      44.517   3.531  13.105  0.00  0.00    +0.000 NA
ATOM     15  C   UNL     1      45.052   4.773  13.234  0.00  0.00    +0.000 A 
ENDBRANCH   8  10
ENDBRANCH   1   4
BRANCH   1  17
ATOM     16  C   UNL     1      51.609   8.136  13.980  0.00  0.00    +0.000 C 
ATOM     17  N   UNL     1      50.199   8.497  13.959  0.00  0.00    +0.000 N 
BRANCH  17  18
ATOM     18  C   UNL     1      49.533   9.002  15.084  0.00  0.00    +0.000 A 
ATOM     19  N   UNL     1      49.564  10.357  15.235  0.00  0.00    +0.000 NA
ATOM     20  C   UNL     1      48.921  10.941  16.269  0.00  0.00    +0.000 A 
ATOM     21  C   UNL     1      48.220  10.238  17.224  0.00  0.00    +0.000 A 
ATOM     22  C   UNL     1      48.194   8.859  17.107  0.00  0.00    +0.000 A 
ATOM     23  C   UNL     1      48.860   8.225  16.039  0.00  0.00    +0.000 A 
BRANCH  23  24
ATOM     24  C   UNL     1      48.865   6.798  16.041  0.00  0.00    +0.000 C 
ATOM     25  N   UNL     1      48.855   5.633  16.011  0.00  0.00    +0.000 NA
ENDBRANCH  23  24
ENDBRANCH  17  18
ENDBRANCH   1  17
TORSDOF 5
ENDMDL
MODEL 9
REMARK VINA RESULT:    -5.376      4.680      7.250
REMARK INTER + INTRA:          -7.429
REMARK INTER:                  -7.389
REMARK INTRA:                  -0.040
REMARK UNBOUND:                -0.481
REMARK  Name = 
REMARK  6 active torsions:
REMARK  status: ('A' for Active; 'I' for Inactive)
REMARK    1  A    between atoms: C_1  and  N_2
REMARK    2  A    between atoms: N_2  and  C_3
REMARK    3  A    between atoms: N_2  and  C_11
REMARK    4  A    between atoms: C_8  and  C_9
REMARK    5  A    between atoms: C_11  and  C_12
REMARK    6  A    between atoms: C_16  and  C_17
REMARK                            x       y       z     vdW  Elec       q    Type
REMARK                         _______ _______ _______ _____ _____    ______ ____
ROOT
ATOM      1  C   UNL     1      50.128   7.112  15.944  0.00  0.00    +0.000 C 
ATOM      2  C   UNL     1      51.642   6.927  15.914  0.00  0.00    +0.000 C 
ATOM      3  C   UNL     1      51.084   8.239  16.343  0.00  0.00    +0.000 C 
ENDROOT
BRANCH   1   4
ATOM      4  C   UNL     1      49.422   7.332  14.601  0.00  0.00    +0.000 A 
ATOM      5  C   UNL     1      50.112   7.860  13.499  0.00  0.00    +0.000 A 
ATOM      6  C   UNL     1      49.573   7.801  12.218  0.00  0.00    +0.000 A 
ATOM      7  C   UNL     1      48.317   7.227  12.018  0.00  0.00    +0.000 A 
ATOM      8  C   UNL     1      47.552   6.752  13.097  0.00  0.00    +0.000 A 
ATOM      9  C   UNL     1      48.115   6.852  14.383  0.00  0.00    +0.000 A 
BRANCH   8  10
ATOM     10  C   UNL     1      46.245   6.100  12.883  0.00  0.00    +0.000 A 
ATOM     11  C   UNL     1      45.267   6.659  12.047  0.00  0.00    +0.000 A 
ATOM     12  C   UNL     1      44.045   6.018  11.849  0.00  0.00    +0.000 A 
ATOM     13  C   UNL     1      43.828   4.812  12.490  0.00  0.00    +0.000 A 
ATOM     14  N   UNL     1      44.733   4.222  13.296  0.00  0.00    +0.000 NA
ATOM     15  C   UNL     1      45.909   4.878  13.471  0.00  0.00    +0.000 A 
ENDBRANCH   8  10
ENDBRANCH   1   4
BRANCH   1  17
ATOM     16  C   UNL     1      48.481   7.237  17.843  0.00  0.00    +0.000 C 
ATOM     17  N   UNL     1      49.320   6.414  16.984  0.00  0.00    +0.000 N 
BRANCH  17  18
ATOM     18  C   UNL     1      49.267   5.014  16.996  0.00  0.00    +0.000 A 
ATOM     19  N   UNL     1      48.245   4.451  16.290  0.00  0.00    +0.000 NA
ATOM     20  C   UNL     1      48.131   3.107  16.212  0.00  0.00    +0.000 A 
ATOM     21  C   UNL     1      48.998   2.233  16.830  0.00  0.00    +0.000 A 
ATOM     22  C   UNL     1      50.029   2.780  17.574  0.00  0.00    +0.000 A 
ATOM     23  C   UNL     1      50.169   4.179  17.673  0.00  0.00    +0.000 A 
BRANCH  23  24
ATOM     24  C   UNL     1      51.199   4.663  18.533  0.00  0.00    +0.000 C 
ATOM     25  N   UNL     1      52.036   5.090  19.223  0.00  0.00    +0.000 NA
ENDBRANCH  23  24
ENDBRANCH  17  18
ENDBRANCH   1  17
TORSDOF 5
ENDMDL
