MODEL 1
REMARK VINA RESULT:    -8.341      0.000      0.000
REMARK INTER + INTRA:         -14.898
REMARK INTER:                 -12.973
REMARK INTRA:                  -1.925
REMARK UNBOUND:                -1.925
REMARK  Name = 
REMARK  11 active torsions:
REMARK  status: ('A' for Active; 'I' for Inactive)
REMARK    1  A    between atoms: C_1  and  C_2
REMARK    2  A    between atoms: C_2  and  N_3
REMARK    3  A    between atoms: C_2  and  C_20
REMARK    4  A    between atoms: N_3  and  C_4
REMARK    5  A    between atoms: C_4  and  C_5
REMARK    6  A    between atoms: C_8  and  C_9
REMARK    7  A    between atoms: C_9  and  N_10
REMARK    8  A    between atoms: N_10  and  C_11
REMARK    9  A    between atoms: C_11  and  C_12
REMARK   10  A    between atoms: C_23  and  C_24
REMARK   11  A    between atoms: C_24  and  O_26
REMARK                            x       y       z     vdW  Elec       q    Type
REMARK                         _______ _______ _______ _____ _____    ______ ____
ROOT
ATOM      1  N   UNL     1      48.768   6.245  14.346  0.00  0.00    +0.000 NA
ATOM      2  H   UNL     1      49.569   5.632  14.186  0.00  0.00    +0.000 HD
ENDROOT
BRANCH   1   4
ATOM      3  C   UNL     1      48.283   8.561  15.138  0.00  0.00    +0.000 C 
ATOM      4  C   UNL     1      49.194   7.329  15.283  0.00  0.00    +0.000 C 
BRANCH   4   5
ATOM      5  C   UNL     1      49.181   6.761  16.712  0.00  0.00    +0.000 A 
ATOM      6  C   UNL     1      49.023   7.653  17.787  0.00  0.00    +0.000 A 
ATOM      7  C   UNL     1      48.591   7.192  19.030  0.00  0.00    +0.000 A 
ATOM      8  C   UNL     1      48.129   5.877  19.152  0.00  0.00    +0.000 A 
ATOM      9  C   UNL     1      48.087   5.080  18.002  0.00  0.00    +0.000 A 
ATOM     10  C   UNL     1      47.756   3.677  17.980  0.00  0.00    +0.000 A 
ATOM     11  O   UNL     1      46.720   3.281  17.451  0.00  0.00    +0.000 OA
ATOM     12  N   UNL     1      48.862   2.917  18.221  0.00  0.00    +0.000 N 
ATOM     13  C   UNL     1      50.017   3.395  17.638  0.00  0.00    +0.000 A 
ATOM     14  N   UNL     1      50.090   4.463  16.904  0.00  0.00    +0.000 NA
ATOM     15  C   UNL     1      48.974   5.393  16.970  0.00  0.00    +0.000 A 
ATOM     16  H   UNL     1      48.939   2.636  19.198  0.00  0.00    +0.000 HD
BRANCH   8  17
ATOM     17  C   UNL     1      48.016   5.208  20.482  0.00  0.00    +0.000 C 
ATOM     18  O   UNL     1      48.932   4.562  20.971  0.00  0.00    +0.000 OA
BRANCH  17  19
ATOM     19  O   UNL     1      46.893   5.465  21.175  0.00  0.00    +0.000 OA
ATOM     20  H   UNL     1      46.639   6.395  21.290  0.00  0.00    +0.000 HD
ENDBRANCH  17  19
ENDBRANCH   8  17
ENDBRANCH   4   5
ENDBRANCH   1   4
BRANCH   1  21
ATOM     21  C   UNL     1      48.303   6.732  13.042  0.00  0.00    +0.000 C 
BRANCH  21  22
ATOM     22  C   UNL     1      47.068   6.017  12.522  0.00  0.00    +0.000 A 
ATOM     23  C   UNL     1      46.450   6.382  11.316  0.00  0.00    +0.000 A 
ATOM     24  C   UNL     1      45.347   5.663  10.828  0.00  0.00    +0.000 A 
ATOM     25  C   UNL     1      44.843   4.553  11.525  0.00  0.00    +0.000 A 
ATOM     26  C   UNL     1      45.468   4.185  12.722  0.00  0.00    +0.000 A 
ATOM     27  C   UNL     1      46.565   4.904  13.212  0.00  0.00    +0.000 A 
BRANCH  25  28
ATOM     28  C   UNL     1      43.646   3.776  11.017  0.00  0.00    +0.000 C 
BRANCH  28  29
ATOM     29  N   UNL     1      43.788   3.455   9.597  0.00  0.00    +0.000 NA
ATOM     30  H   UNL     1      44.338   4.188   9.150  0.00  0.00    +0.000 HD
BRANCH  29  31
ATOM     31  C   UNL     1      44.455   2.172   9.393  0.00  0.00    +0.000 C 
BRANCH  31  32
ATOM     32  C   UNL     1      45.601   2.320   8.422  0.00  0.00    +0.000 A 
ATOM     33  C   UNL     1      45.909   3.557   7.850  0.00  0.00    +0.000 A 
ATOM     34  C   UNL     1      46.969   3.634   6.957  0.00  0.00    +0.000 A 
ATOM     35  N   UNL     1      47.730   2.580   6.599  0.00  0.00    +0.000 NA
ATOM     36  C   UNL     1      47.418   1.392   7.160  0.00  0.00    +0.000 A 
ATOM     37  C   UNL     1      46.385   1.216   8.066  0.00  0.00    +0.000 A 
ENDBRANCH  31  32
ENDBRANCH  29  31
ENDBRANCH  28  29
ENDBRANCH  25  28
ENDBRANCH  21  22
ENDBRANCH   1  21
TORSDOF 10
ENDMDL
MODEL 2
REMARK VINA RESULT:    -7.760      1.515      2.401
REMARK INTER + INTRA:         -13.995
REMARK INTER:                 -12.146
REMARK INTRA:                  -1.848
REMARK UNBOUND:                -1.925
REMARK  Name = 
REMARK  11 active torsions:
REMARK  status: ('A' for Active; 'I' for Inactive)
REMARK    1  A    between atoms: C_1  and  C_2
REMARK    2  A    between atoms: C_2  and  N_3
REMARK    3  A    between atoms: C_2  and  C_20
REMARK    4  A    between atoms: N_3  and  C_4
REMARK    5  A    between atoms: C_4  and  C_5
REMARK    6  A    between atoms: C_8  and  C_9
REMARK    7  A    between atoms: C_9  and  N_10
REMARK    8  A    between atoms: N_10  and  C_11
REMARK    9  A    between atoms: C_11  and  C_12
REMARK   10  A    between atoms: C_23  and  C_24
REMARK   11  A    between atoms: C_24  and  O_26
REMARK                            x       y       z     vdW  Elec       q    Type
REMARK                         _______ _______ _______ _____ _____    ______ ____
ROOT
ATOM      1  N   UNL     1      47.814   7.045  14.885  0.00  0.00    +0.000 NA
ATOM      2  H   UNL     1      47.519   6.194  15.366  0.00  0.00    +0.000 HD
ENDROOT
BRANCH   1   4
ATOM      3  C   UNL     1      48.470   8.595  16.727  0.00  0.00    +0.000 C 
ATOM      4  C   UNL     1      48.967   7.628  15.638  0.00  0.00    +0.000 C 
BRANCH   4   5
ATOM      5  C   UNL     1      49.793   6.470  16.221  0.00  0.00    +0.000 A 
ATOM      6  C   UNL     1      51.195   6.587  16.236  0.00  0.00    +0.000 A 
ATOM      7  C   UNL     1      51.960   5.802  17.098  0.00  0.00    +0.000 A 
ATOM      8  C   UNL     1      51.320   5.040  18.082  0.00  0.00    +0.000 A 
ATOM      9  C   UNL     1      49.927   5.124  18.185  0.00  0.00    +0.000 A 
ATOM     10  C   UNL     1      49.112   4.317  19.058  0.00  0.00    +0.000 A 
ATOM     11  O   UNL     1      48.518   4.817  20.010  0.00  0.00    +0.000 OA
ATOM     12  N   UNL     1      48.794   3.132  18.461  0.00  0.00    +0.000 N 
ATOM     13  C   UNL     1      48.528   3.230  17.112  0.00  0.00    +0.000 A 
ATOM     14  N   UNL     1      48.552   4.334  16.429  0.00  0.00    +0.000 NA
ATOM     15  C   UNL     1      49.217   5.476  17.035  0.00  0.00    +0.000 A 
ATOM     16  H   UNL     1      49.416   2.374  18.739  0.00  0.00    +0.000 HD
BRANCH   8  17
ATOM     17  C   UNL     1      52.014   3.912  18.772  0.00  0.00    +0.000 C 
ATOM     18  O   UNL     1      52.579   4.049  19.848  0.00  0.00    +0.000 OA
BRANCH  17  19
ATOM     19  O   UNL     1      51.872   2.701  18.206  0.00  0.00    +0.000 OA
ATOM     20  H   UNL     1      52.578   2.396  17.614  0.00  0.00    +0.000 HD
ENDBRANCH  17  19
ENDBRANCH   8  17
ENDBRANCH   4   5
ENDBRANCH   1   4
BRANCH   1  21
ATOM     21  C   UNL     1      48.125   6.694  13.494  0.00  0.00    +0.000 C 
BRANCH  21  22
ATOM     22  C   UNL     1      46.982   6.016  12.759  0.00  0.00    +0.000 A 
ATOM     23  C   UNL     1      46.286   4.928  13.308  0.00  0.00    +0.000 A 
ATOM     24  C   UNL     1      45.192   4.361  12.635  0.00  0.00    +0.000 A 
ATOM     25  C   UNL     1      44.758   4.877  11.403  0.00  0.00    +0.000 A 
ATOM     26  C   UNL     1      45.446   5.969  10.863  0.00  0.00    +0.000 A 
ATOM     27  C   UNL     1      46.539   6.532  11.532  0.00  0.00    +0.000 A 
BRANCH  25  28
ATOM     28  C   UNL     1      43.588   4.267  10.659  0.00  0.00    +0.000 C 
BRANCH  28  29
ATOM     29  N   UNL     1      43.975   3.856   9.310  0.00  0.00    +0.000 NA
ATOM     30  H   UNL     1      44.694   4.492   8.969  0.00  0.00    +0.000 HD
BRANCH  29  31
ATOM     31  C   UNL     1      44.497   2.492   9.284  0.00  0.00    +0.000 C 
BRANCH  31  32
ATOM     32  C   UNL     1      45.679   2.396   8.349  0.00  0.00    +0.000 A 
ATOM     33  C   UNL     1      46.294   1.170   8.084  0.00  0.00    +0.000 A 
ATOM     34  C   UNL     1      47.382   1.142   7.223  0.00  0.00    +0.000 A 
ATOM     35  N   UNL     1      47.892   2.234   6.618  0.00  0.00    +0.000 NA
ATOM     36  C   UNL     1      47.287   3.410   6.886  0.00  0.00    +0.000 A 
ATOM     37  C   UNL     1      46.192   3.540   7.726  0.00  0.00    +0.000 A 
ENDBRANCH  31  32
ENDBRANCH  29  31
ENDBRANCH  28  29
ENDBRANCH  25  28
ENDBRANCH  21  22
ENDBRANCH   1  21
TORSDOF 10
ENDMDL
MODEL 3
REMARK VINA RESULT:    -7.269      1.369      1.722
REMARK INTER + INTRA:         -13.231
REMARK INTER:                 -11.249
REMARK INTRA:                  -1.981
REMARK UNBOUND:                -1.925
REMARK  Name = 
REMARK  11 active torsions:
REMARK  status: ('A' for Active; 'I' for Inactive)
REMARK    1  A    between atoms: C_1  and  C_2
REMARK    2  A    between atoms: C_2  and  N_3
REMARK    3  A    between atoms: C_2  and  C_20
REMARK    4  A    between atoms: N_3  and  C_4
REMARK    5  A    between atoms: C_4  and  C_5
REMARK    6  A    between atoms: C_8  and  C_9
REMARK    7  A    between atoms: C_9  and  N_10
REMARK    8  A    between atoms: N_10  and  C_11
REMARK    9  A    between atoms: C_11  and  C_12
REMARK   10  A    between atoms: C_23  and  C_24
REMARK   11  A    between atoms: C_24  and  O_26
REMARK                            x       y       z     vdW  Elec       q    Type
REMARK                         _______ _______ _______ _____ _____    ______ ____
ROOT
ATOM      1  N   UNL     1      48.462   7.451  14.180  0.00  0.00    +0.000 NA
ATOM      2  H   UNL     1      47.890   6.990  14.888  0.00  0.00    +0.000 HD
ENDROOT
BRANCH   1   4
ATOM      3  C   UNL     1      49.822   9.298  15.164  0.00  0.00    +0.000 C 
ATOM      4  C   UNL     1      49.776   7.803  14.803  0.00  0.00    +0.000 C 
BRANCH   4   5
ATOM      5  C   UNL     1      49.980   6.901  16.032  0.00  0.00    +0.000 A 
ATOM      6  C   UNL     1      51.248   6.875  16.641  0.00  0.00    +0.000 A 
ATOM      7  C   UNL     1      51.390   6.432  17.955  0.00  0.00    +0.000 A 
ATOM      8  C   UNL     1      50.248   6.198  18.729  0.00  0.00    +0.000 A 
ATOM      9  C   UNL     1      48.997   6.453  18.157  0.00  0.00    +0.000 A 
ATOM     10  C   UNL     1      47.728   6.150  18.772  0.00  0.00    +0.000 A 
ATOM     11  O   UNL     1      46.972   7.047  19.137  0.00  0.00    +0.000 OA
ATOM     12  N   UNL     1      47.361   4.863  18.509  0.00  0.00    +0.000 N 
ATOM     13  C   UNL     1      47.664   4.436  17.234  0.00  0.00    +0.000 A 
ATOM     14  N   UNL     1      48.237   5.164  16.324  0.00  0.00    +0.000 NA
ATOM     15  C   UNL     1      48.898   6.381  16.766  0.00  0.00    +0.000 A 
ATOM     16  H   UNL     1      47.606   4.223  19.264  0.00  0.00    +0.000 HD
BRANCH   8  17
ATOM     17  C   UNL     1      50.303   5.379  19.976  0.00  0.00    +0.000 C 
ATOM     18  O   UNL     1      50.362   5.883  21.090  0.00  0.00    +0.000 OA
BRANCH  17  19
ATOM     19  O   UNL     1      50.151   4.053  19.817  0.00  0.00    +0.000 OA
ATOM     20  H   UNL     1      50.893   3.482  20.074  0.00  0.00    +0.000 HD
ENDBRANCH  17  19
ENDBRANCH   8  17
ENDBRANCH   4   5
ENDBRANCH   1   4
BRANCH   1  21
ATOM     21  C   UNL     1      48.571   6.549  13.028  0.00  0.00    +0.000 C 
BRANCH  21  22
ATOM     22  C   UNL     1      47.237   6.021  12.531  0.00  0.00    +0.000 A 
ATOM     23  C   UNL     1      46.615   6.534  11.383  0.00  0.00    +0.000 A 
ATOM     24  C   UNL     1      45.412   5.983  10.910  0.00  0.00    +0.000 A 
ATOM     25  C   UNL     1      44.810   4.898  11.565  0.00  0.00    +0.000 A 
ATOM     26  C   UNL     1      45.438   4.380  12.704  0.00  0.00    +0.000 A 
ATOM     27  C   UNL     1      46.634   4.932  13.178  0.00  0.00    +0.000 A 
BRANCH  25  28
ATOM     28  C   UNL     1      43.506   4.302  11.074  0.00  0.00    +0.000 C 
BRANCH  28  29
ATOM     29  N   UNL     1      43.649   3.756   9.725  0.00  0.00    +0.000 NA
ATOM     30  H   UNL     1      44.134   4.441   9.146  0.00  0.00    +0.000 HD
BRANCH  29  31
ATOM     31  C   UNL     1      44.407   2.508   9.720  0.00  0.00    +0.000 C 
BRANCH  31  32
ATOM     32  C   UNL     1      45.467   2.537   8.644  0.00  0.00    +0.000 A 
ATOM     33  C   UNL     1      45.783   3.722   7.973  0.00  0.00    +0.000 A 
ATOM     34  C   UNL     1      46.760   3.689   6.988  0.00  0.00    +0.000 A 
ATOM     35  N   UNL     1      47.432   2.575   6.629  0.00  0.00    +0.000 NA
ATOM     36  C   UNL     1      47.113   1.441   7.287  0.00  0.00    +0.000 A 
ATOM     37  C   UNL     1      46.158   1.373   8.289  0.00  0.00    +0.000 A 
ENDBRANCH  31  32
ENDBRANCH  29  31
ENDBRANCH  28  29
ENDBRANCH  25  28
ENDBRANCH  21  22
ENDBRANCH   1  21
TORSDOF 10
ENDMDL
MODEL 4
REMARK VINA RESULT:    -7.249      3.200      8.062
REMARK INTER + INTRA:         -13.200
REMARK INTER:                 -10.961
REMARK INTRA:                  -2.240
REMARK UNBOUND:                -1.925
REMARK  Name = 
REMARK  11 active torsions:
REMARK  status: ('A' for Active; 'I' for Inactive)
REMARK    1  A    between atoms: C_1  and  C_2
REMARK    2  A    between atoms: C_2  and  N_3
REMARK    3  A    between atoms: C_2  and  C_20
REMARK    4  A    between atoms: N_3  and  C_4
REMARK    5  A    between atoms: C_4  and  C_5
REMARK    6  A    between atoms: C_8  and  C_9
REMARK    7  A    between atoms: C_9  and  N_10
REMARK    8  A    between atoms: N_10  and  C_11
REMARK    9  A    between atoms: C_11  and  C_12
REMARK   10  A    between atoms: C_23  and  C_24
REMARK   11  A    between atoms: C_24  and  O_26
REMARK                            x       y       z     vdW  Elec       q    Type
REMARK                         _______ _______ _______ _____ _____    ______ ____
ROOT
ATOM      1  N   UNL     1      47.382   8.876  13.200  0.00  0.00    +0.000 NA
ATOM      2  H   UNL     1      46.842   9.696  12.922  0.00  0.00    +0.000 HD
ENDROOT
BRANCH   1   4
ATOM      3  C   UNL     1      49.204   7.952  11.766  0.00  0.00    +0.000 C 
ATOM      4  C   UNL     1      47.683   8.080  11.971  0.00  0.00    +0.000 C 
BRANCH   4   5
ATOM      5  C   UNL     1      46.998   6.711  12.106  0.00  0.00    +0.000 A 
ATOM      6  C   UNL     1      47.249   5.946  13.260  0.00  0.00    +0.000 A 
ATOM      7  C   UNL     1      46.372   4.931  13.640  0.00  0.00    +0.000 A 
ATOM      8  C   UNL     1      45.144   4.803  12.981  0.00  0.00    +0.000 A 
ATOM      9  C   UNL     1      44.828   5.730  11.982  0.00  0.00    +0.000 A 
ATOM     10  C   UNL     1      43.666   5.665  11.131  0.00  0.00    +0.000 A 
ATOM     11  O   UNL     1      42.769   6.500  11.221  0.00  0.00    +0.000 OA
ATOM     12  N   UNL     1      43.909   4.879  10.043  0.00  0.00    +0.000 N 
ATOM     13  C   UNL     1      45.178   5.009   9.521  0.00  0.00    +0.000 A 
ATOM     14  N   UNL     1      46.092   5.807   9.983  0.00  0.00    +0.000 NA
ATOM     15  C   UNL     1      45.890   6.348  11.318  0.00  0.00    +0.000 A 
ATOM     16  H   UNL     1      43.573   3.924  10.166  0.00  0.00    +0.000 HD
BRANCH   8  17
ATOM     17  C   UNL     1      44.341   3.547  13.062  0.00  0.00    +0.000 C 
ATOM     18  O   UNL     1      43.231   3.509  13.575  0.00  0.00    +0.000 OA
BRANCH  17  19
ATOM     19  O   UNL     1      44.850   2.481  12.419  0.00  0.00    +0.000 OA
ATOM     20  H   UNL     1      44.883   1.639  12.901  0.00  0.00    +0.000 HD
ENDBRANCH  17  19
ENDBRANCH   8  17
ENDBRANCH   4   5
ENDBRANCH   1   4
BRANCH   1  21
ATOM     21  C   UNL     1      48.575   9.341  13.917  0.00  0.00    +0.000 C 
BRANCH  21  22
ATOM     22  C   UNL     1      48.714   8.771  15.318  0.00  0.00    +0.000 A 
ATOM     23  C   UNL     1      48.079   9.355  16.424  0.00  0.00    +0.000 A 
ATOM     24  C   UNL     1      48.172   8.771  17.698  0.00  0.00    +0.000 A 
ATOM     25  C   UNL     1      48.891   7.581  17.893  0.00  0.00    +0.000 A 
ATOM     26  C   UNL     1      49.513   6.994  16.786  0.00  0.00    +0.000 A 
ATOM     27  C   UNL     1      49.425   7.579  15.518  0.00  0.00    +0.000 A 
BRANCH  25  28
ATOM     28  C   UNL     1      49.011   6.946  19.264  0.00  0.00    +0.000 C 
BRANCH  28  29
ATOM     29  N   UNL     1      49.873   5.765  19.226  0.00  0.00    +0.000 NA
ATOM     30  H   UNL     1      50.601   5.870  19.932  0.00  0.00    +0.000 HD
BRANCH  29  31
ATOM     31  C   UNL     1      49.128   4.537  19.491  0.00  0.00    +0.000 C 
BRANCH  31  32
ATOM     32  C   UNL     1      49.145   3.637  18.278  0.00  0.00    +0.000 A 
ATOM     33  C   UNL     1      50.253   2.837  17.986  0.00  0.00    +0.000 A 
ATOM     34  C   UNL     1      50.216   2.035  16.854  0.00  0.00    +0.000 A 
ATOM     35  N   UNL     1      49.169   1.977  16.006  0.00  0.00    +0.000 NA
ATOM     36  C   UNL     1      48.108   2.756  16.303  0.00  0.00    +0.000 A 
ATOM     37  C   UNL     1      48.046   3.585  17.412  0.00  0.00    +0.000 A 
ENDBRANCH  31  32
ENDBRANCH  29  31
ENDBRANCH  28  29
ENDBRANCH  25  28
ENDBRANCH  21  22
ENDBRANCH   1  21
TORSDOF 10
ENDMDL
MODEL 5
REMARK VINA RESULT:    -6.850      2.754      4.089
REMARK INTER + INTRA:         -12.580
REMARK INTER:                  -9.978
REMARK INTRA:                  -2.603
REMARK UNBOUND:                -1.925
REMARK  Name = 
REMARK  11 active torsions:
REMARK  status: ('A' for Active; 'I' for Inactive)
REMARK    1  A    between atoms: C_1  and  C_2
REMARK    2  A    between atoms: C_2  and  N_3
REMARK    3  A    between atoms: C_2  and  C_20
REMARK    4  A    between atoms: N_3  and  C_4
REMARK    5  A    between atoms: C_4  and  C_5
REMARK    6  A    between atoms: C_8  and  C_9
REMARK    7  A    between atoms: C_9  and  N_10
REMARK    8  A    between atoms: N_10  and  C_11
REMARK    9  A    between atoms: C_11  and  C_12
REMARK   10  A    between atoms: C_23  and  C_24
REMARK   11  A    between atoms: C_24  and  O_26
REMARK                            x       y       z     vdW  Elec       q    Type
REMARK                         _______ _______ _______ _____ _____    ______ ____
ROOT
ATOM      1  N   UNL     1      51.124   6.847  15.237  0.00  0.00    +0.000 NA
ATOM      2  H   UNL     1      51.753   6.270  14.677  0.00  0.00    +0.000 HD
ENDROOT
BRANCH   1   4
ATOM      3  C   UNL     1      51.638   8.430  17.097  0.00  0.00    +0.000 C 
ATOM      4  C   UNL     1      51.708   6.972  16.609  0.00  0.00    +0.000 C 
BRANCH   4   5
ATOM      5  C   UNL     1      50.954   6.009  17.540  0.00  0.00    +0.000 A 
ATOM      6  C   UNL     1      51.655   5.426  18.611  0.00  0.00    +0.000 A 
ATOM      7  C   UNL     1      50.966   4.900  19.703  0.00  0.00    +0.000 A 
ATOM      8  C   UNL     1      49.590   5.128  19.821  0.00  0.00    +0.000 A 
ATOM      9  C   UNL     1      48.962   5.912  18.847  0.00  0.00    +0.000 A 
ATOM     10  C   UNL     1      47.541   6.138  18.757  0.00  0.00    +0.000 A 
ATOM     11  O   UNL     1      47.063   7.250  18.967  0.00  0.00    +0.000 OA
ATOM     12  N   UNL     1      46.938   5.138  18.052  0.00  0.00    +0.000 N 
ATOM     13  C   UNL     1      47.666   4.686  16.972  0.00  0.00    +0.000 A 
ATOM     14  N   UNL     1      48.823   5.150  16.611  0.00  0.00    +0.000 NA
ATOM     15  C   UNL     1      49.548   5.955  17.580  0.00  0.00    +0.000 A 
ATOM     16  H   UNL     1      46.541   4.418  18.655  0.00  0.00    +0.000 HD
BRANCH   8  17
ATOM     17  C   UNL     1      48.736   4.302  20.725  0.00  0.00    +0.000 C 
ATOM     18  O   UNL     1      48.373   4.695  21.826  0.00  0.00    +0.000 OA
BRANCH  17  19
ATOM     19  O   UNL     1      48.274   3.151  20.208  0.00  0.00    +0.000 OA
ATOM     20  H   UNL     1      48.799   2.730  19.507  0.00  0.00    +0.000 HD
ENDBRANCH  17  19
ENDBRANCH   8  17
ENDBRANCH   4   5
ENDBRANCH   1   4
BRANCH   1  21
ATOM     21  C   UNL     1      50.949   8.129  14.544  0.00  0.00    +0.000 C 
BRANCH  21  22
ATOM     22  C   UNL     1      49.560   8.330  13.964  0.00  0.00    +0.000 A 
ATOM     23  C   UNL     1      48.423   8.443  14.778  0.00  0.00    +0.000 A 
ATOM     24  C   UNL     1      47.160   8.692  14.217  0.00  0.00    +0.000 A 
ATOM     25  C   UNL     1      47.004   8.848  12.831  0.00  0.00    +0.000 A 
ATOM     26  C   UNL     1      48.142   8.747  12.022  0.00  0.00    +0.000 A 
ATOM     27  C   UNL     1      49.400   8.494  12.580  0.00  0.00    +0.000 A 
BRANCH  25  28
ATOM     28  C   UNL     1      45.646   9.104  12.211  0.00  0.00    +0.000 C 
BRANCH  28  29
ATOM     29  N   UNL     1      44.773   7.939  12.350  0.00  0.00    +0.000 NA
ATOM     30  H   UNL     1      43.803   8.249  12.289  0.00  0.00    +0.000 HD
BRANCH  29  31
ATOM     31  C   UNL     1      45.020   6.945  11.310  0.00  0.00    +0.000 C 
BRANCH  31  32
ATOM     32  C   UNL     1      45.302   5.595  11.926  0.00  0.00    +0.000 A 
ATOM     33  C   UNL     1      46.275   5.441  12.917  0.00  0.00    +0.000 A 
ATOM     34  C   UNL     1      46.497   4.176  13.442  0.00  0.00    +0.000 A 
ATOM     35  N   UNL     1      45.828   3.070  13.053  0.00  0.00    +0.000 NA
ATOM     36  C   UNL     1      44.893   3.237  12.094  0.00  0.00    +0.000 A 
ATOM     37  C   UNL     1      44.594   4.459  11.514  0.00  0.00    +0.000 A 
ENDBRANCH  31  32
ENDBRANCH  29  31
ENDBRANCH  28  29
ENDBRANCH  25  28
ENDBRANCH  21  22
ENDBRANCH   1  21
TORSDOF 10
ENDMDL
MODEL 6
REMARK VINA RESULT:    -6.553      2.134      3.545
REMARK INTER + INTRA:         -12.118
REMARK INTER:                  -9.892
REMARK INTRA:                  -2.226
REMARK UNBOUND:                -1.925
REMARK  Name = 
REMARK  11 active torsions:
REMARK  status: ('A' for Active; 'I' for Inactive)
REMARK    1  A    between atoms: C_1  and  C_2
REMARK    2  A    between atoms: C_2  and  N_3
REMARK    3  A    between atoms: C_2  and  C_20
REMARK    4  A    between atoms: N_3  and  C_4
REMARK    5  A    between atoms: C_4  and  C_5
REMARK    6  A    between atoms: C_8  and  C_9
REMARK    7  A    between atoms: C_9  and  N_10
REMARK    8  A    between atoms: N_10  and  C_11
REMARK    9  A    between atoms: C_11  and  C_12
REMARK   10  A    between atoms: C_23  and  C_24
REMARK   11  A    between atoms: C_24  and  O_26
REMARK                            x       y       z     vdW  Elec       q    Type
REMARK                         _______ _______ _______ _____ _____    ______ ____
ROOT
ATOM      1  N   UNL     1      51.581   7.333  14.819  0.00  0.00    +0.000 NA
ATOM      2  H   UNL     1      52.466   6.959  14.475  0.00  0.00    +0.000 HD
ENDROOT
BRANCH   1   4
ATOM      3  C   UNL     1      51.635   9.413  16.197  0.00  0.00    +0.000 C 
ATOM      4  C   UNL     1      51.813   7.885  16.190  0.00  0.00    +0.000 C 
BRANCH   4   5
ATOM      5  C   UNL     1      50.847   7.182  17.159  0.00  0.00    +0.000 A 
ATOM      6  C   UNL     1      50.262   7.940  18.189  0.00  0.00    +0.000 A 
ATOM      7  C   UNL     1      49.099   7.498  18.818  0.00  0.00    +0.000 A 
ATOM      8  C   UNL     1      48.409   6.399  18.293  0.00  0.00    +0.000 A 
ATOM      9  C   UNL     1      48.900   5.806  17.125  0.00  0.00    +0.000 A 
ATOM     10  C   UNL     1      48.381   4.601  16.528  0.00  0.00    +0.000 A 
ATOM     11  O   UNL     1      47.805   4.630  15.443  0.00  0.00    +0.000 OA
ATOM     12  N   UNL     1      48.956   3.498  17.088  0.00  0.00    +0.000 N 
ATOM     13  C   UNL     1      50.297   3.641  17.373  0.00  0.00    +0.000 A 
ATOM     14  N   UNL     1      50.997   4.708  17.135  0.00  0.00    +0.000 NA
ATOM     15  C   UNL     1      50.266   5.935  16.862  0.00  0.00    +0.000 A 
ATOM     16  H   UNL     1      48.384   3.091  17.828  0.00  0.00    +0.000 HD
BRANCH   8  17
ATOM     17  C   UNL     1      47.404   5.647  19.101  0.00  0.00    +0.000 C 
ATOM     18  O   UNL     1      46.200   5.765  18.925  0.00  0.00    +0.000 OA
BRANCH  17  19
ATOM     19  O   UNL     1      47.900   4.729  19.949  0.00  0.00    +0.000 OA
ATOM     20  H   UNL     1      48.545   5.030  20.610  0.00  0.00    +0.000 HD
ENDBRANCH  17  19
ENDBRANCH   8  17
ENDBRANCH   4   5
ENDBRANCH   1   4
BRANCH   1  21
ATOM     21  C   UNL     1      51.101   8.325  13.850  0.00  0.00    +0.000 C 
BRANCH  21  22
ATOM     22  C   UNL     1      49.649   8.140  13.446  0.00  0.00    +0.000 A 
ATOM     23  C   UNL     1      48.591   8.595  14.247  0.00  0.00    +0.000 A 
ATOM     24  C   UNL     1      47.260   8.467  13.818  0.00  0.00    +0.000 A 
ATOM     25  C   UNL     1      46.955   7.894  12.573  0.00  0.00    +0.000 A 
ATOM     26  C   UNL     1      48.013   7.452  11.771  0.00  0.00    +0.000 A 
ATOM     27  C   UNL     1      49.339   7.575  12.200  0.00  0.00    +0.000 A 
BRANCH  25  28
ATOM     28  C   UNL     1      45.523   7.738  12.104  0.00  0.00    +0.000 C 
BRANCH  28  29
ATOM     29  N   UNL     1      44.746   6.923  13.038  0.00  0.00    +0.000 NA
ATOM     30  H   UNL     1      43.803   6.812  12.667  0.00  0.00    +0.000 HD
BRANCH  29  31
ATOM     31  C   UNL     1      45.338   5.602  13.232  0.00  0.00    +0.000 C 
BRANCH  31  32
ATOM     32  C   UNL     1      44.763   4.615  12.245  0.00  0.00    +0.000 A 
ATOM     33  C   UNL     1      43.812   3.669  12.638  0.00  0.00    +0.000 A 
ATOM     34  C   UNL     1      43.324   2.781  11.691  0.00  0.00    +0.000 A 
ATOM     35  N   UNL     1      43.711   2.769  10.399  0.00  0.00    +0.000 NA
ATOM     36  C   UNL     1      44.631   3.688  10.036  0.00  0.00    +0.000 A 
ATOM     37  C   UNL     1      45.173   4.620  10.906  0.00  0.00    +0.000 A 
ENDBRANCH  31  32
ENDBRANCH  29  31
ENDBRANCH  28  29
ENDBRANCH  25  28
ENDBRANCH  21  22
ENDBRANCH   1  21
TORSDOF 10
ENDMDL
MODEL 7
REMARK VINA RESULT:    -6.443      2.462      4.479
REMARK INTER + INTRA:         -11.947
REMARK INTER:                  -9.891
REMARK INTRA:                  -2.056
REMARK UNBOUND:                -1.925
REMARK  Name = 
REMARK  11 active torsions:
REMARK  status: ('A' for Active; 'I' for Inactive)
REMARK    1  A    between atoms: C_1  and  C_2
REMARK    2  A    between atoms: C_2  and  N_3
REMARK    3  A    between atoms: C_2  and  C_20
REMARK    4  A    between atoms: N_3  and  C_4
REMARK    5  A    between atoms: C_4  and  C_5
REMARK    6  A    between atoms: C_8  and  C_9
REMARK    7  A    between atoms: C_9  and  N_10
REMARK    8  A    between atoms: N_10  and  C_11
REMARK    9  A    between atoms: C_11  and  C_12
REMARK   10  A    between atoms: C_23  and  C_24
REMARK   11  A    between atoms: C_24  and  O_26
REMARK                            x       y       z     vdW  Elec       q    Type
REMARK                         _______ _______ _______ _____ _____    ______ ____
ROOT
ATOM      1  N   UNL     1      49.185   8.193  17.977  0.00  0.00    +0.000 NA
ATOM      2  H   UNL     1      48.466   7.576  17.596  0.00  0.00    +0.000 HD
ENDROOT
BRANCH   1   4
ATOM      3  C   UNL     1      49.807   7.181  20.172  0.00  0.00    +0.000 C 
ATOM      4  C   UNL     1      50.192   7.348  18.691  0.00  0.00    +0.000 C 
BRANCH   4   5
ATOM      5  C   UNL     1      50.290   5.999  17.960  0.00  0.00    +0.000 A 
ATOM      6  C   UNL     1      51.566   5.472  17.694  0.00  0.00    +0.000 A 
ATOM      7  C   UNL     1      51.728   4.112  17.429  0.00  0.00    +0.000 A 
ATOM      8  C   UNL     1      50.647   3.243  17.619  0.00  0.00    +0.000 A 
ATOM      9  C   UNL     1      49.447   3.773  18.105  0.00  0.00    +0.000 A 
ATOM     10  C   UNL     1      48.213   3.040  18.238  0.00  0.00    +0.000 A 
ATOM     11  O   UNL     1      47.744   2.788  19.346  0.00  0.00    +0.000 OA
ATOM     12  N   UNL     1      47.512   3.059  17.068  0.00  0.00    +0.000 N 
ATOM     13  C   UNL     1      47.568   4.260  16.393  0.00  0.00    +0.000 A 
ATOM     14  N   UNL     1      48.209   5.312  16.802  0.00  0.00    +0.000 NA
ATOM     15  C   UNL     1      49.193   5.123  17.856  0.00  0.00    +0.000 A 
ATOM     16  H   UNL     1      47.667   2.223  16.506  0.00  0.00    +0.000 HD
BRANCH   8  17
ATOM     17  C   UNL     1      50.624   1.880  17.009  0.00  0.00    +0.000 C 
ATOM     18  O   UNL     1      51.151   0.914  17.542  0.00  0.00    +0.000 OA
BRANCH  17  19
ATOM     19  O   UNL     1      49.875   1.745  15.900  0.00  0.00    +0.000 OA
ATOM     20  H   UNL     1      49.598   2.556  15.443  0.00  0.00    +0.000 HD
ENDBRANCH  17  19
ENDBRANCH   8  17
ENDBRANCH   4   5
ENDBRANCH   1   4
BRANCH   1  21
ATOM     21  C   UNL     1      49.743   8.976  16.868  0.00  0.00    +0.000 C 
BRANCH  21  22
ATOM     22  C   UNL     1      49.232   8.559  15.501  0.00  0.00    +0.000 A 
ATOM     23  C   UNL     1      48.084   9.129  14.930  0.00  0.00    +0.000 A 
ATOM     24  C   UNL     1      47.670   8.770  13.637  0.00  0.00    +0.000 A 
ATOM     25  C   UNL     1      48.401   7.843  12.877  0.00  0.00    +0.000 A 
ATOM     26  C   UNL     1      49.552   7.284  13.444  0.00  0.00    +0.000 A 
ATOM     27  C   UNL     1      49.962   7.638  14.735  0.00  0.00    +0.000 A 
BRANCH  25  28
ATOM     28  C   UNL     1      47.959   7.436  11.486  0.00  0.00    +0.000 C 
BRANCH  28  29
ATOM     29  N   UNL     1      46.599   6.897  11.500  0.00  0.00    +0.000 NA
ATOM     30  H   UNL     1      46.358   6.598  10.556  0.00  0.00    +0.000 HD
BRANCH  29  31
ATOM     31  C   UNL     1      46.473   5.758  12.405  0.00  0.00    +0.000 C 
BRANCH  31  32
ATOM     32  C   UNL     1      45.349   4.853  11.962  0.00  0.00    +0.000 A 
ATOM     33  C   UNL     1      44.997   4.744  10.614  0.00  0.00    +0.000 A 
ATOM     34  C   UNL     1      43.950   3.902  10.264  0.00  0.00    +0.000 A 
ATOM     35  N   UNL     1      43.240   3.174  11.151  0.00  0.00    +0.000 NA
ATOM     36  C   UNL     1      43.594   3.292  12.448  0.00  0.00    +0.000 A 
ATOM     37  C   UNL     1      44.627   4.099  12.895  0.00  0.00    +0.000 A 
ENDBRANCH  31  32
ENDBRANCH  29  31
ENDBRANCH  28  29
ENDBRANCH  25  28
ENDBRANCH  21  22
ENDBRANCH   1  21
TORSDOF 10
ENDMDL
MODEL 8
REMARK VINA RESULT:    -6.204      3.052      5.367
REMARK INTER + INTRA:         -11.575
REMARK INTER:                  -9.155
REMARK INTRA:                  -2.420
REMARK UNBOUND:                -1.925
REMARK  Name = 
REMARK  11 active torsions:
REMARK  status: ('A' for Active; 'I' for Inactive)
REMARK    1  A    between atoms: C_1  and  C_2
REMARK    2  A    between atoms: C_2  and  N_3
REMARK    3  A    between atoms: C_2  and  C_20
REMARK    4  A    between atoms: N_3  and  C_4
REMARK    5  A    between atoms: C_4  and  C_5
REMARK    6  A    between atoms: C_8  and  C_9
REMARK    7  A    between atoms: C_9  and  N_10
REMARK    8  A    between atoms: N_10  and  C_11
REMARK    9  A    between atoms: C_11  and  C_12
REMARK   10  A    between atoms: C_23  and  C_24
REMARK   11  A    between atoms: C_24  and  O_26
REMARK                            x       y       z     vdW  Elec       q    Type
REMARK                         _______ _______ _______ _____ _____    ______ ____
ROOT
ATOM      1  N   UNL     1      47.508   7.154  19.026  0.00  0.00    +0.000 NA
ATOM      2  H   UNL     1      47.447   6.489  18.254  0.00  0.00    +0.000 HD
ENDROOT
BRANCH   1   4
ATOM      3  C   UNL     1      47.365   6.291  21.363  0.00  0.00    +0.000 C 
ATOM      4  C   UNL     1      48.271   6.507  20.137  0.00  0.00    +0.000 C 
BRANCH   4   5
ATOM      5  C   UNL     1      48.859   5.188  19.610  0.00  0.00    +0.000 A 
ATOM      6  C   UNL     1      47.974   4.181  19.184  0.00  0.00    +0.000 A 
ATOM      7  C   UNL     1      48.413   3.169  18.332  0.00  0.00    +0.000 A 
ATOM      8  C   UNL     1      49.682   3.265  17.748  0.00  0.00    +0.000 A 
ATOM      9  C   UNL     1      50.451   4.402  18.018  0.00  0.00    +0.000 A 
ATOM     10  C   UNL     1      51.817   4.596  17.598  0.00  0.00    +0.000 A 
ATOM     11  O   UNL     1      52.105   5.450  16.762  0.00  0.00    +0.000 OA
ATOM     12  N   UNL     1      52.681   4.045  18.497  0.00  0.00    +0.000 N 
ATOM     13  C   UNL     1      52.304   4.198  19.814  0.00  0.00    +0.000 A 
ATOM     14  N   UNL     1      51.235   4.818  20.212  0.00  0.00    +0.000 NA
ATOM     15  C   UNL     1      50.206   5.075  19.217  0.00  0.00    +0.000 A 
ATOM     16  H   UNL     1      52.985   3.110  18.226  0.00  0.00    +0.000 HD
BRANCH   8  17
ATOM     17  C   UNL     1      50.360   2.076  17.151  0.00  0.00    +0.000 C 
ATOM     18  O   UNL     1      50.160   1.717  15.999  0.00  0.00    +0.000 OA
BRANCH  17  19
ATOM     19  O   UNL     1      51.306   1.496  17.909  0.00  0.00    +0.000 OA
ATOM     20  H   UNL     1      51.989   0.976  17.456  0.00  0.00    +0.000 HD
ENDBRANCH  17  19
ENDBRANCH   8  17
ENDBRANCH   4   5
ENDBRANCH   1   4
BRANCH   1  21
ATOM     21  C   UNL     1      48.125   8.384  18.516  0.00  0.00    +0.000 C 
BRANCH  21  22
ATOM     22  C   UNL     1      48.471   8.333  17.038  0.00  0.00    +0.000 A 
ATOM     23  C   UNL     1      48.411   9.471  16.220  0.00  0.00    +0.000 A 
ATOM     24  C   UNL     1      48.798   9.409  14.872  0.00  0.00    +0.000 A 
ATOM     25  C   UNL     1      49.267   8.210  14.312  0.00  0.00    +0.000 A 
ATOM     26  C   UNL     1      49.337   7.079  15.132  0.00  0.00    +0.000 A 
ATOM     27  C   UNL     1      48.947   7.140  16.475  0.00  0.00    +0.000 A 
BRANCH  25  28
ATOM     28  C   UNL     1      49.676   8.125  12.855  0.00  0.00    +0.000 C 
BRANCH  28  29
ATOM     29  N   UNL     1      48.950   7.059  12.164  0.00  0.00    +0.000 NA
ATOM     30  H   UNL     1      48.893   6.250  12.782  0.00  0.00    +0.000 HD
BRANCH  29  31
ATOM     31  C   UNL     1      47.599   7.471  11.794  0.00  0.00    +0.000 C 
BRANCH  31  32
ATOM     32  C   UNL     1      46.627   6.331  11.987  0.00  0.00    +0.000 A 
ATOM     33  C   UNL     1      45.878   5.831  10.919  0.00  0.00    +0.000 A 
ATOM     34  C   UNL     1      44.994   4.787  11.155  0.00  0.00    +0.000 A 
ATOM     35  N   UNL     1      44.808   4.216  12.363  0.00  0.00    +0.000 NA
ATOM     36  C   UNL     1      45.540   4.712  13.383  0.00  0.00    +0.000 A 
ATOM     37  C   UNL     1      46.451   5.746  13.247  0.00  0.00    +0.000 A 
ENDBRANCH  31  32
ENDBRANCH  29  31
ENDBRANCH  28  29
ENDBRANCH  25  28
ENDBRANCH  21  22
ENDBRANCH   1  21
TORSDOF 10
ENDMDL
MODEL 9
REMARK VINA RESULT:    -6.114      4.133      5.300
REMARK INTER + INTRA:         -11.435
REMARK INTER:                 -10.347
REMARK INTRA:                  -1.088
REMARK UNBOUND:                -1.925
REMARK  Name = 
REMARK  11 active torsions:
REMARK  status: ('A' for Active; 'I' for Inactive)
REMARK    1  A    between atoms: C_1  and  C_2
REMARK    2  A    between atoms: C_2  and  N_3
REMARK    3  A    between atoms: C_2  and  C_20
REMARK    4  A    between atoms: N_3  and  C_4
REMARK    5  A    between atoms: C_4  and  C_5
REMARK    6  A    between atoms: C_8  and  C_9
REMARK    7  A    between atoms: C_9  and  N_10
REMARK    8  A    between atoms: N_10  and  C_11
REMARK    9  A    between atoms: C_11  and  C_12
REMARK   10  A    between atoms: C_23  and  C_24
REMARK   11  A    between atoms: C_24  and  O_26
REMARK                            x       y       z     vdW  Elec       q    Type
REMARK                         _______ _______ _______ _____ _____    ______ ____
ROOT
ATOM      1  N   UNL     1      46.138   8.551  13.421  0.00  0.00    +0.000 NA
ATOM      2  H   UNL     1      46.484   9.109  14.203  0.00  0.00    +0.000 HD
ENDROOT
BRANCH   1   4
ATOM      3  C   UNL     1      45.442  10.361  11.850  0.00  0.00    +0.000 C 
ATOM      4  C   UNL     1      46.480   9.265  12.153  0.00  0.00    +0.000 C 
BRANCH   4   5
ATOM      5  C   UNL     1      47.902   9.833  12.292  0.00  0.00    +0.000 A 
ATOM      6  C   UNL     1      48.052  11.203  12.574  0.00  0.00    +0.000 A 
ATOM      7  C   UNL     1      49.244  11.686  13.114  0.00  0.00    +0.000 A 
ATOM      8  C   UNL     1      50.215  10.780  13.554  0.00  0.00    +0.000 A 
ATOM      9  C   UNL     1      49.935   9.412  13.465  0.00  0.00    +0.000 A 
ATOM     10  C   UNL     1      50.870   8.354  13.758  0.00  0.00    +0.000 A 
ATOM     11  O   UNL     1      50.708   7.618  14.728  0.00  0.00    +0.000 OA
ATOM     12  N   UNL     1      51.628   8.064  12.662  0.00  0.00    +0.000 N 
ATOM     13  C   UNL     1      50.940   8.107  11.468  0.00  0.00    +0.000 A 
ATOM     14  N   UNL     1      49.677   8.382  11.350  0.00  0.00    +0.000 NA
ATOM     15  C   UNL     1      49.022   9.004  12.489  0.00  0.00    +0.000 A 
ATOM     16  H   UNL     1      52.531   8.538  12.674  0.00  0.00    +0.000 HD
BRANCH   8  17
ATOM     17  C   UNL     1      51.630  11.199  13.779  0.00  0.00    +0.000 C 
ATOM     18  O   UNL     1      52.086  11.399  14.897  0.00  0.00    +0.000 OA
BRANCH  17  19
ATOM     19  O   UNL     1      52.419  11.219  12.690  0.00  0.00    +0.000 OA
ATOM     20  H   UNL     1      53.362  11.408  12.822  0.00  0.00    +0.000 HD
ENDBRANCH  17  19
ENDBRANCH   8  17
ENDBRANCH   4   5
ENDBRANCH   1   4
BRANCH   1  21
ATOM     21  C   UNL     1      46.725   7.210  13.528  0.00  0.00    +0.000 C 
BRANCH  21  22
ATOM     22  C   UNL     1      45.820   6.099  13.027  0.00  0.00    +0.000 A 
ATOM     23  C   UNL     1      44.573   6.364  12.439  0.00  0.00    +0.000 A 
ATOM     24  C   UNL     1      43.785   5.321  11.926  0.00  0.00    +0.000 A 
ATOM     25  C   UNL     1      44.228   3.990  11.976  0.00  0.00    +0.000 A 
ATOM     26  C   UNL     1      45.477   3.730  12.551  0.00  0.00    +0.000 A 
ATOM     27  C   UNL     1      46.261   4.768  13.067  0.00  0.00    +0.000 A 
BRANCH  25  28
ATOM     28  C   UNL     1      43.382   2.854  11.438  0.00  0.00    +0.000 C 
BRANCH  28  29
ATOM     29  N   UNL     1      44.017   2.224  10.280  0.00  0.00    +0.000 NA
ATOM     30  H   UNL     1      43.376   1.532   9.894  0.00  0.00    +0.000 HD
BRANCH  29  31
ATOM     31  C   UNL     1      44.347   3.198   9.243  0.00  0.00    +0.000 C 
BRANCH  31  32
ATOM     32  C   UNL     1      45.517   2.716   8.419  0.00  0.00    +0.000 A 
ATOM     33  C   UNL     1      46.261   3.601   7.634  0.00  0.00    +0.000 A 
ATOM     34  C   UNL     1      47.322   3.102   6.891  0.00  0.00    +0.000 A 
ATOM     35  N   UNL     1      47.687   1.803   6.876  0.00  0.00    +0.000 NA
ATOM     36  C   UNL     1      46.957   0.963   7.639  0.00  0.00    +0.000 A 
ATOM     37  C   UNL     1      45.885   1.366   8.420  0.00  0.00    +0.000 A 
ENDBRANCH  31  32
ENDBRANCH  29  31
ENDBRANCH  28  29
ENDBRANCH  25  28
ENDBRANCH  21  22
ENDBRANCH   1  21
TORSDOF 10
ENDMDL
