MODEL 1
REMARK VINA RESULT:    -8.742      0.000      0.000
REMARK INTER + INTRA:         -12.850
REMARK INTER:                 -11.809
REMARK INTRA:                  -1.041
REMARK UNBOUND:                -1.041
REMARK  Name = 
REMARK  8 active torsions:
REMARK  status: ('A' for Active; 'I' for Inactive)
REMARK    1  A    between atoms: C_1  and  O_2
REMARK    2  A    between atoms: O_2  and  C_3
REMARK    3  A    between atoms: C_5  and  C_6
REMARK    4  A    between atoms: C_13  and  C_14
REMARK    5  A    between atoms: C_14  and  C_15
REMARK    6  A    between atoms: C_14  and  C_16
REMARK    7  A    between atoms: C_16  and  N_17
REMARK    8  A    between atoms: C_21  and  C_22
REMARK                            x       y       z     vdW  Elec       q    Type
REMARK                         _______ _______ _______ _____ _____    ______ ____
ROOT
ATOM      1  C   UNL     1      43.316   4.520  12.320  0.00  0.00    +0.000 C 
ATOM      2  C   UNL     1      42.453   5.778  12.155  0.00  0.00    +0.000 C 
ENDROOT
BRANCH   1   7
ATOM      3  C   UNL     1      46.804   4.227  13.891  0.00  0.00    +0.000 A 
ATOM      4  C   UNL     1      47.328   5.499  13.640  0.00  0.00    +0.000 A 
ATOM      5  C   UNL     1      46.588   6.478  12.955  0.00  0.00    +0.000 A 
ATOM      6  C   UNL     1      45.272   6.148  12.578  0.00  0.00    +0.000 A 
ATOM      7  C   UNL     1      44.714   4.879  12.823  0.00  0.00    +0.000 A 
ATOM      8  C   UNL     1      45.501   3.926  13.482  0.00  0.00    +0.000 A 
BRANCH   5   9
ATOM      9  C   UNL     1      47.194   7.778  12.573  0.00  0.00    +0.000 A 
ATOM     10  C   UNL     1      48.539   7.858  12.164  0.00  0.00    +0.000 A 
ATOM     11  C   UNL     1      49.103   9.062  11.727  0.00  0.00    +0.000 A 
ATOM     12  C   UNL     1      48.330  10.214  11.682  0.00  0.00    +0.000 A 
ATOM     13  C   UNL     1      47.001  10.170  12.095  0.00  0.00    +0.000 A 
ATOM     14  C   UNL     1      46.445   8.968  12.546  0.00  0.00    +0.000 A 
ENDBRANCH   5   9
BRANCH   3  16
ATOM     15  C   UNL     1      47.707   3.336  15.904  0.00  0.00    +0.000 C 
ATOM     16  O   UNL     1      47.475   3.202  14.506  0.00  0.00    +0.000 OA
ENDBRANCH   3  16
ENDBRANCH   1   7
BRANCH   1  17
ATOM     17  C   UNL     1      43.423   3.703  11.012  0.00  0.00    +0.000 C 
BRANCH  17  18
ATOM     18  N   UNL     1      43.999   4.482   9.903  0.00  0.00    +0.000 N 
ATOM     19  C   UNL     1      44.849   3.711   9.087  0.00  0.00    +0.000 A 
ATOM     20  C   UNL     1      45.490   4.326   8.013  0.00  0.00    +0.000 A 
ATOM     21  C   UNL     1      46.342   3.572   7.201  0.00  0.00    +0.000 A 
ATOM     22  C   UNL     1      46.541   2.220   7.470  0.00  0.00    +0.000 A 
ATOM     23  C   UNL     1      45.854   1.689   8.547  0.00  0.00    +0.000 A 
ATOM     24  N   UNL     1      45.022   2.400   9.345  0.00  0.00    +0.000 NA
ATOM     25  H   UNL     1      44.540   5.277  10.235  0.00  0.00    +0.000 HD
BRANCH  22  26
ATOM     26  C   UNL     1      47.457   1.422   6.624  0.00  0.00    +0.000 C 
ATOM     27  N   UNL     1      48.598   2.001   6.145  0.00  0.00    +0.000 N 
ATOM     28  O   UNL     1      47.199   0.254   6.344  0.00  0.00    +0.000 OA
ATOM     29  H   UNL     1      48.906   2.947   6.312  0.00  0.00    +0.000 HD
ATOM     30  H   UNL     1      49.193   1.418   5.569  0.00  0.00    +0.000 HD
ENDBRANCH  22  26
ENDBRANCH  17  18
ENDBRANCH   1  17
TORSDOF 6
ENDMDL
MODEL 2
REMARK VINA RESULT:    -7.911      1.715      4.003
REMARK INTER + INTRA:         -11.727
REMARK INTER:                 -10.716
REMARK INTRA:                  -1.011
REMARK UNBOUND:                -1.041
REMARK  Name = 
REMARK  8 active torsions:
REMARK  status: ('A' for Active; 'I' for Inactive)
REMARK    1  A    between atoms: C_1  and  O_2
REMARK    2  A    between atoms: O_2  and  C_3
REMARK    3  A    between atoms: C_5  and  C_6
REMARK    4  A    between atoms: C_13  and  C_14
REMARK    5  A    between atoms: C_14  and  C_15
REMARK    6  A    between atoms: C_14  and  C_16
REMARK    7  A    between atoms: C_16  and  N_17
REMARK    8  A    between atoms: C_21  and  C_22
REMARK                            x       y       z     vdW  Elec       q    Type
REMARK                         _______ _______ _______ _____ _____    ______ ____
ROOT
ATOM      1  C   UNL     1      43.937   4.304  12.462  0.00  0.00    +0.000 C 
ATOM      2  C   UNL     1      42.804   5.198  12.982  0.00  0.00    +0.000 C 
ENDROOT
BRANCH   1   7
ATOM      3  C   UNL     1      47.146   6.406  12.490  0.00  0.00    +0.000 A 
ATOM      4  C   UNL     1      47.750   5.972  13.674  0.00  0.00    +0.000 A 
ATOM      5  C   UNL     1      47.146   5.007  14.498  0.00  0.00    +0.000 A 
ATOM      6  C   UNL     1      45.930   4.450  14.058  0.00  0.00    +0.000 A 
ATOM      7  C   UNL     1      45.301   4.861  12.867  0.00  0.00    +0.000 A 
ATOM      8  C   UNL     1      45.927   5.847  12.094  0.00  0.00    +0.000 A 
BRANCH   5   9
ATOM      9  C   UNL     1      47.723   4.648  15.818  0.00  0.00    +0.000 A 
ATOM     10  C   UNL     1      48.557   5.545  16.513  0.00  0.00    +0.000 A 
ATOM     11  C   UNL     1      49.045   5.254  17.792  0.00  0.00    +0.000 A 
ATOM     12  C   UNL     1      48.703   4.057  18.409  0.00  0.00    +0.000 A 
ATOM     13  C   UNL     1      47.892   3.144  17.741  0.00  0.00    +0.000 A 
ATOM     14  C   UNL     1      47.418   3.432  16.457  0.00  0.00    +0.000 A 
ENDBRANCH   5   9
BRANCH   3  16
ATOM     15  C   UNL     1      49.052   7.577  11.678  0.00  0.00    +0.000 C 
ATOM     16  O   UNL     1      47.642   7.375  11.658  0.00  0.00    +0.000 OA
ENDBRANCH   3  16
ENDBRANCH   1   7
BRANCH   1  17
ATOM     17  C   UNL     1      43.882   4.115  10.928  0.00  0.00    +0.000 C 
BRANCH  17  18
ATOM     18  N   UNL     1      44.197   2.737  10.515  0.00  0.00    +0.000 N 
ATOM     19  C   UNL     1      45.028   2.692   9.380  0.00  0.00    +0.000 A 
ATOM     20  C   UNL     1      45.385   1.449   8.857  0.00  0.00    +0.000 A 
ATOM     21  C   UNL     1      46.203   1.391   7.725  0.00  0.00    +0.000 A 
ATOM     22  C   UNL     1      46.653   2.570   7.134  0.00  0.00    +0.000 A 
ATOM     23  C   UNL     1      46.262   3.757   7.727  0.00  0.00    +0.000 A 
ATOM     24  N   UNL     1      45.473   3.835   8.825  0.00  0.00    +0.000 NA
ATOM     25  H   UNL     1      43.360   2.202  10.298  0.00  0.00    +0.000 HD
BRANCH  22  26
ATOM     26  C   UNL     1      47.504   2.514   5.923  0.00  0.00    +0.000 C 
ATOM     27  N   UNL     1      48.849   2.721   6.043  0.00  0.00    +0.000 N 
ATOM     28  O   UNL     1      47.014   2.292   4.819  0.00  0.00    +0.000 OA
ATOM     29  H   UNL     1      49.353   2.909   6.896  0.00  0.00    +0.000 HD
ATOM     30  H   UNL     1      49.391   2.675   5.188  0.00  0.00    +0.000 HD
ENDBRANCH  22  26
ENDBRANCH  17  18
ENDBRANCH   1  17
TORSDOF 6
ENDMDL
MODEL 3
REMARK VINA RESULT:    -7.573      1.757      2.680
REMARK INTER + INTRA:         -11.270
REMARK INTER:                 -10.333
REMARK INTRA:                  -0.937
REMARK UNBOUND:                -1.041
REMARK  Name = 
REMARK  8 active torsions:
REMARK  status: ('A' for Active; 'I' for Inactive)
REMARK    1  A    between atoms: C_1  and  O_2
REMARK    2  A    between atoms: O_2  and  C_3
REMARK    3  A    between atoms: C_5  and  C_6
REMARK    4  A    between atoms: C_13  and  C_14
REMARK    5  A    between atoms: C_14  and  C_15
REMARK    6  A    between atoms: C_14  and  C_16
REMARK    7  A    between atoms: C_16  and  N_17
REMARK    8  A    between atoms: C_21  and  C_22
REMARK                            x       y       z     vdW  Elec       q    Type
REMARK                         _______ _______ _______ _____ _____    ______ ____
ROOT
ATOM      1  C   UNL     1      43.883   4.935  11.737  0.00  0.00    +0.000 C 
ATOM      2  C   UNL     1      42.495   5.415  12.178  0.00  0.00    +0.000 C 
ENDROOT
BRANCH   1   7
ATOM      3  C   UNL     1      47.230   6.675  12.436  0.00  0.00    +0.000 A 
ATOM      4  C   UNL     1      46.891   8.017  12.235  0.00  0.00    +0.000 A 
ATOM      5  C   UNL     1      45.592   8.400  11.862  0.00  0.00    +0.000 A 
ATOM      6  C   UNL     1      44.624   7.383  11.751  0.00  0.00    +0.000 A 
ATOM      7  C   UNL     1      44.932   6.025  11.954  0.00  0.00    +0.000 A 
ATOM      8  C   UNL     1      46.249   5.689  12.295  0.00  0.00    +0.000 A 
BRANCH   5   9
ATOM      9  C   UNL     1      45.270   9.808  11.519  0.00  0.00    +0.000 A 
ATOM     10  C   UNL     1      46.129  10.860  11.892  0.00  0.00    +0.000 A 
ATOM     11  C   UNL     1      45.880  12.182  11.511  0.00  0.00    +0.000 A 
ATOM     12  C   UNL     1      44.766  12.483  10.739  0.00  0.00    +0.000 A 
ATOM     13  C   UNL     1      43.890  11.468  10.367  0.00  0.00    +0.000 A 
ATOM     14  C   UNL     1      44.134  10.148  10.763  0.00  0.00    +0.000 A 
ENDBRANCH   5   9
BRANCH   3  16
ATOM     15  C   UNL     1      49.511   7.189  12.881  0.00  0.00    +0.000 C 
ATOM     16  O   UNL     1      48.481   6.213  12.751  0.00  0.00    +0.000 OA
ENDBRANCH   3  16
ENDBRANCH   1   7
BRANCH   1  17
ATOM     17  C   UNL     1      43.905   4.473  10.261  0.00  0.00    +0.000 C 
BRANCH  17  18
ATOM     18  N   UNL     1      44.206   3.039  10.121  0.00  0.00    +0.000 N 
ATOM     19  C   UNL     1      45.094   2.776   9.061  0.00  0.00    +0.000 A 
ATOM     20  C   UNL     1      45.447   1.454   8.791  0.00  0.00    +0.000 A 
ATOM     21  C   UNL     1      46.321   1.180   7.735  0.00  0.00    +0.000 A 
ATOM     22  C   UNL     1      46.831   2.225   6.968  0.00  0.00    +0.000 A 
ATOM     23  C   UNL     1      46.439   3.506   7.315  0.00  0.00    +0.000 A 
ATOM     24  N   UNL     1      45.596   3.793   8.335  0.00  0.00    +0.000 NA
ATOM     25  H   UNL     1      43.369   2.486   9.957  0.00  0.00    +0.000 HD
BRANCH  22  26
ATOM     26  C   UNL     1      47.743   1.938   5.838  0.00  0.00    +0.000 C 
ATOM     27  N   UNL     1      48.185   2.969   5.058  0.00  0.00    +0.000 N 
ATOM     28  O   UNL     1      48.097   0.788   5.590  0.00  0.00    +0.000 OA
ATOM     29  H   UNL     1      47.960   3.946   5.171  0.00  0.00    +0.000 HD
ATOM     30  H   UNL     1      48.806   2.725   4.296  0.00  0.00    +0.000 HD
ENDBRANCH  22  26
ENDBRANCH  17  18
ENDBRANCH   1  17
TORSDOF 6
ENDMDL
MODEL 4
REMARK VINA RESULT:    -7.170      1.420      2.176
REMARK INTER + INTRA:         -10.726
REMARK INTER:                  -9.810
REMARK INTRA:                  -0.916
REMARK UNBOUND:                -1.041
REMARK  Name = 
REMARK  8 active torsions:
REMARK  status: ('A' for Active; 'I' for Inactive)
REMARK    1  A    between atoms: C_1  and  O_2
REMARK    2  A    between atoms: O_2  and  C_3
REMARK    3  A    between atoms: C_5  and  C_6
REMARK    4  A    between atoms: C_13  and  C_14
REMARK    5  A    between atoms: C_14  and  C_15
REMARK    6  A    between atoms: C_14  and  C_16
REMARK    7  A    between atoms: C_16  and  N_17
REMARK    8  A    between atoms: C_21  and  C_22
REMARK                            x       y       z     vdW  Elec       q    Type
REMARK                         _______ _______ _______ _____ _____    ______ ____
ROOT
ATOM      1  C   UNL     1      44.239   6.630  11.639  0.00  0.00    +0.000 C 
ATOM      2  C   UNL     1      43.831   8.103  11.512  0.00  0.00    +0.000 C 
ENDROOT
BRANCH   1   7
ATOM      3  C   UNL     1      47.274   5.279  13.559  0.00  0.00    +0.000 A 
ATOM      4  C   UNL     1      48.264   6.194  13.188  0.00  0.00    +0.000 A 
ATOM      5  C   UNL     1      47.994   7.256  12.309  0.00  0.00    +0.000 A 
ATOM      6  C   UNL     1      46.668   7.400  11.857  0.00  0.00    +0.000 A 
ATOM      7  C   UNL     1      45.647   6.501  12.219  0.00  0.00    +0.000 A 
ATOM      8  C   UNL     1      45.972   5.440  13.073  0.00  0.00    +0.000 A 
BRANCH   5   9
ATOM      9  C   UNL     1      49.076   8.143  11.813  0.00  0.00    +0.000 A 
ATOM     10  C   UNL     1      48.854   9.521  11.626  0.00  0.00    +0.000 A 
ATOM     11  C   UNL     1      49.883  10.384  11.233  0.00  0.00    +0.000 A 
ATOM     12  C   UNL     1      51.163   9.887  11.025  0.00  0.00    +0.000 A 
ATOM     13  C   UNL     1      51.410   8.526  11.187  0.00  0.00    +0.000 A 
ATOM     14  C   UNL     1      50.374   7.664  11.564  0.00  0.00    +0.000 A 
ENDBRANCH   5   9
BRANCH   3  16
ATOM     15  C   UNL     1      47.232   4.378  15.761  0.00  0.00    +0.000 C 
ATOM     16  O   UNL     1      47.464   4.190  14.369  0.00  0.00    +0.000 OA
ENDBRANCH   3  16
ENDBRANCH   1   7
BRANCH   1  17
ATOM     17  C   UNL     1      44.156   5.876  10.291  0.00  0.00    +0.000 C 
BRANCH  17  18
ATOM     18  N   UNL     1      44.271   4.417  10.450  0.00  0.00    +0.000 N 
ATOM     19  C   UNL     1      45.019   3.821   9.418  0.00  0.00    +0.000 A 
ATOM     20  C   UNL     1      45.187   2.436   9.422  0.00  0.00    +0.000 A 
ATOM     21  C   UNL     1      45.921   1.831   8.398  0.00  0.00    +0.000 A 
ATOM     22  C   UNL     1      46.477   2.614   7.388  0.00  0.00    +0.000 A 
ATOM     23  C   UNL     1      46.274   3.980   7.471  0.00  0.00    +0.000 A 
ATOM     24  N   UNL     1      45.569   4.586   8.455  0.00  0.00    +0.000 NA
ATOM     25  H   UNL     1      43.362   3.961  10.466  0.00  0.00    +0.000 HD
BRANCH  22  26
ATOM     26  C   UNL     1      47.240   1.976   6.291  0.00  0.00    +0.000 C 
ATOM     27  N   UNL     1      46.896   2.242   4.996  0.00  0.00    +0.000 N 
ATOM     28  O   UNL     1      48.169   1.209   6.533  0.00  0.00    +0.000 OA
ATOM     29  H   UNL     1      46.155   2.853   4.686  0.00  0.00    +0.000 HD
ATOM     30  H   UNL     1      47.444   1.782   4.279  0.00  0.00    +0.000 HD
ENDBRANCH  22  26
ENDBRANCH  17  18
ENDBRANCH   1  17
TORSDOF 6
ENDMDL
MODEL 5
REMARK VINA RESULT:    -7.169      2.225      3.292
REMARK INTER + INTRA:         -10.724
REMARK INTER:                  -9.873
REMARK INTRA:                  -0.851
REMARK UNBOUND:                -1.041
REMARK  Name = 
REMARK  8 active torsions:
REMARK  status: ('A' for Active; 'I' for Inactive)
REMARK    1  A    between atoms: C_1  and  O_2
REMARK    2  A    between atoms: O_2  and  C_3
REMARK    3  A    between atoms: C_5  and  C_6
REMARK    4  A    between atoms: C_13  and  C_14
REMARK    5  A    between atoms: C_14  and  C_15
REMARK    6  A    between atoms: C_14  and  C_16
REMARK    7  A    between atoms: C_16  and  N_17
REMARK    8  A    between atoms: C_21  and  C_22
REMARK                            x       y       z     vdW  Elec       q    Type
REMARK                         _______ _______ _______ _____ _____    ______ ____
ROOT
ATOM      1  C   UNL     1      44.208   5.172  11.977  0.00  0.00    +0.000 C 
ATOM      2  C   UNL     1      43.188   5.140  13.122  0.00  0.00    +0.000 C 
ENDROOT
BRANCH   1   7
ATOM      3  C   UNL     1      44.651   8.953  11.497  0.00  0.00    +0.000 A 
ATOM      4  C   UNL     1      46.015   9.107  11.762  0.00  0.00    +0.000 A 
ATOM      5  C   UNL     1      46.826   8.013  12.110  0.00  0.00    +0.000 A 
ATOM      6  C   UNL     1      46.222   6.741  12.129  0.00  0.00    +0.000 A 
ATOM      7  C   UNL     1      44.854   6.553  11.859  0.00  0.00    +0.000 A 
ATOM      8  C   UNL     1      44.080   7.677  11.547  0.00  0.00    +0.000 A 
BRANCH   5   9
ATOM      9  C   UNL     1      48.240   8.199  12.521  0.00  0.00    +0.000 A 
ATOM     10  C   UNL     1      49.295   7.699  11.733  0.00  0.00    +0.000 A 
ATOM     11  C   UNL     1      50.634   7.932  12.065  0.00  0.00    +0.000 A 
ATOM     12  C   UNL     1      50.949   8.680  13.192  0.00  0.00    +0.000 A 
ATOM     13  C   UNL     1      49.928   9.176  13.998  0.00  0.00    +0.000 A 
ATOM     14  C   UNL     1      48.591   8.927  13.672  0.00  0.00    +0.000 A 
ENDBRANCH   5   9
BRANCH   3  16
ATOM     15  C   UNL     1      42.507   9.596  10.689  0.00  0.00    +0.000 C 
ATOM     16  O   UNL     1      43.782   9.971  11.200  0.00  0.00    +0.000 OA
ENDBRANCH   3  16
ENDBRANCH   1   7
BRANCH   1  17
ATOM     17  C   UNL     1      43.584   4.768  10.620  0.00  0.00    +0.000 C 
BRANCH  17  18
ATOM     18  N   UNL     1      44.445   5.113   9.476  0.00  0.00    +0.000 N 
ATOM     19  C   UNL     1      45.068   3.984   8.912  0.00  0.00    +0.000 A 
ATOM     20  C   UNL     1      45.938   4.162   7.837  0.00  0.00    +0.000 A 
ATOM     21  C   UNL     1      46.569   3.049   7.273  0.00  0.00    +0.000 A 
ATOM     22  C   UNL     1      46.323   1.779   7.788  0.00  0.00    +0.000 A 
ATOM     23  C   UNL     1      45.436   1.692   8.846  0.00  0.00    +0.000 A 
ATOM     24  N   UNL     1      44.812   2.756   9.405  0.00  0.00    +0.000 NA
ATOM     25  H   UNL     1      45.180   5.766   9.734  0.00  0.00    +0.000 HD
BRANCH  22  26
ATOM     26  C   UNL     1      47.004   0.599   7.207  0.00  0.00    +0.000 C 
ATOM     27  N   UNL     1      47.657   0.726   6.014  0.00  0.00    +0.000 N 
ATOM     28  O   UNL     1      46.981  -0.487   7.780  0.00  0.00    +0.000 OA
ATOM     29  H   UNL     1      47.739   1.566   5.461  0.00  0.00    +0.000 HD
ATOM     30  H   UNL     1      48.107  -0.108   5.654  0.00  0.00    +0.000 HD
ENDBRANCH  22  26
ENDBRANCH  17  18
ENDBRANCH   1  17
TORSDOF 6
ENDMDL
MODEL 6
REMARK VINA RESULT:    -7.118      3.011      4.288
REMARK INTER + INTRA:         -10.656
REMARK INTER:                  -9.852
REMARK INTRA:                  -0.804
REMARK UNBOUND:                -1.041
REMARK  Name = 
REMARK  8 active torsions:
REMARK  status: ('A' for Active; 'I' for Inactive)
REMARK    1  A    between atoms: C_1  and  O_2
REMARK    2  A    between atoms: O_2  and  C_3
REMARK    3  A    between atoms: C_5  and  C_6
REMARK    4  A    between atoms: C_13  and  C_14
REMARK    5  A    between atoms: C_14  and  C_15
REMARK    6  A    between atoms: C_14  and  C_16
REMARK    7  A    between atoms: C_16  and  N_17
REMARK    8  A    between atoms: C_21  and  C_22
REMARK                            x       y       z     vdW  Elec       q    Type
REMARK                         _______ _______ _______ _____ _____    ______ ____
ROOT
ATOM      1  C   UNL     1      45.372   5.884  11.849  0.00  0.00    +0.000 C 
ATOM      2  C   UNL     1      45.130   5.346  13.265  0.00  0.00    +0.000 C 
ENDROOT
BRANCH   1   7
ATOM      3  C   UNL     1      46.757   9.445  12.198  0.00  0.00    +0.000 A 
ATOM      4  C   UNL     1      45.676  10.207  11.746  0.00  0.00    +0.000 A 
ATOM      5  C   UNL     1      44.484   9.607  11.308  0.00  0.00    +0.000 A 
ATOM      6  C   UNL     1      44.396   8.204  11.394  0.00  0.00    +0.000 A 
ATOM      7  C   UNL     1      45.464   7.410  11.853  0.00  0.00    +0.000 A 
ATOM      8  C   UNL     1      46.643   8.052  12.250  0.00  0.00    +0.000 A 
BRANCH   5   9
ATOM      9  C   UNL     1      43.391  10.409  10.703  0.00  0.00    +0.000 A 
ATOM     10  C   UNL     1      43.672  11.567   9.952  0.00  0.00    +0.000 A 
ATOM     11  C   UNL     1      42.660  12.290   9.311  0.00  0.00    +0.000 A 
ATOM     12  C   UNL     1      41.341  11.866   9.401  0.00  0.00    +0.000 A 
ATOM     13  C   UNL     1      41.030  10.733  10.148  0.00  0.00    +0.000 A 
ATOM     14  C   UNL     1      42.042  10.022  10.800  0.00  0.00    +0.000 A 
ENDBRANCH   5   9
BRANCH   3  16
ATOM     15  C   UNL     1      48.964   8.999  12.968  0.00  0.00    +0.000 C 
ATOM     16  O   UNL     1      47.969   9.947  12.594  0.00  0.00    +0.000 OA
ENDBRANCH   3  16
ENDBRANCH   1   7
BRANCH   1  17
ATOM     17  C   UNL     1      44.283   5.427  10.851  0.00  0.00    +0.000 C 
BRANCH  17  18
ATOM     18  N   UNL     1      44.299   3.972  10.622  0.00  0.00    +0.000 N 
ATOM     19  C   UNL     1      45.049   3.614   9.485  0.00  0.00    +0.000 A 
ATOM     20  C   UNL     1      45.127   2.269   9.128  0.00  0.00    +0.000 A 
ATOM     21  C   UNL     1      45.862   1.902   7.997  0.00  0.00    +0.000 A 
ATOM     22  C   UNL     1      46.507   2.879   7.242  0.00  0.00    +0.000 A 
ATOM     23  C   UNL     1      46.388   4.187   7.677  0.00  0.00    +0.000 A 
ATOM     24  N   UNL     1      45.684   4.563   8.771  0.00  0.00    +0.000 NA
ATOM     25  H   UNL     1      43.363   3.595  10.497  0.00  0.00    +0.000 HD
BRANCH  22  26
ATOM     26  C   UNL     1      47.271   2.497   6.033  0.00  0.00    +0.000 C 
ATOM     27  N   UNL     1      48.632   2.400   6.105  0.00  0.00    +0.000 N 
ATOM     28  O   UNL     1      46.697   2.276   4.969  0.00  0.00    +0.000 OA
ATOM     29  H   UNL     1      49.202   2.559   6.923  0.00  0.00    +0.000 HD
ATOM     30  H   UNL     1      49.113   2.138   5.253  0.00  0.00    +0.000 HD
ENDBRANCH  22  26
ENDBRANCH  17  18
ENDBRANCH   1  17
TORSDOF 6
ENDMDL
MODEL 7
REMARK VINA RESULT:    -6.962      3.795      7.816
REMARK INTER + INTRA:         -10.445
REMARK INTER:                  -9.307
REMARK INTRA:                  -1.138
REMARK UNBOUND:                -1.041
REMARK  Name = 
REMARK  8 active torsions:
REMARK  status: ('A' for Active; 'I' for Inactive)
REMARK    1  A    between atoms: C_1  and  O_2
REMARK    2  A    between atoms: O_2  and  C_3
REMARK    3  A    between atoms: C_5  and  C_6
REMARK    4  A    between atoms: C_13  and  C_14
REMARK    5  A    between atoms: C_14  and  C_15
REMARK    6  A    between atoms: C_14  and  C_16
REMARK    7  A    between atoms: C_16  and  N_17
REMARK    8  A    between atoms: C_21  and  C_22
REMARK                            x       y       z     vdW  Elec       q    Type
REMARK                         _______ _______ _______ _____ _____    ______ ____
ROOT
ATOM      1  C   UNL     1      48.517   8.814  12.577  0.00  0.00    +0.000 C 
ATOM      2  C   UNL     1      48.525   9.847  13.710  0.00  0.00    +0.000 C 
ENDROOT
BRANCH   1   7
ATOM      3  C   UNL     1      44.798   9.156  11.699  0.00  0.00    +0.000 A 
ATOM      4  C   UNL     1      44.487   7.854  11.297  0.00  0.00    +0.000 A 
ATOM      5  C   UNL     1      45.457   6.837  11.285  0.00  0.00    +0.000 A 
ATOM      6  C   UNL     1      46.745   7.165  11.748  0.00  0.00    +0.000 A 
ATOM      7  C   UNL     1      47.086   8.465  12.167  0.00  0.00    +0.000 A 
ATOM      8  C   UNL     1      46.094   9.453  12.132  0.00  0.00    +0.000 A 
BRANCH   5   9
ATOM      9  C   UNL     1      45.159   5.491  10.732  0.00  0.00    +0.000 A 
ATOM     10  C   UNL     1      44.411   4.554  11.471  0.00  0.00    +0.000 A 
ATOM     11  C   UNL     1      44.056   3.311  10.934  0.00  0.00    +0.000 A 
ATOM     12  C   UNL     1      44.435   2.981   9.639  0.00  0.00    +0.000 A 
ATOM     13  C   UNL     1      45.188   3.881   8.890  0.00  0.00    +0.000 A 
ATOM     14  C   UNL     1      45.554   5.116   9.436  0.00  0.00    +0.000 A 
ENDBRANCH   5   9
BRANCH   3  16
ATOM     15  C   UNL     1      42.871  10.171  10.738  0.00  0.00    +0.000 C 
ATOM     16  O   UNL     1      43.927  10.215  11.693  0.00  0.00    +0.000 OA
ENDBRANCH   3  16
ENDBRANCH   1   7
BRANCH   1  17
ATOM     17  C   UNL     1      49.284   7.523  12.950  0.00  0.00    +0.000 C 
BRANCH  17  18
ATOM     18  N   UNL     1      49.818   7.558  14.322  0.00  0.00    +0.000 N 
ATOM     19  C   UNL     1      49.229   6.588  15.154  0.00  0.00    +0.000 A 
ATOM     20  C   UNL     1      49.616   6.524  16.492  0.00  0.00    +0.000 A 
ATOM     21  C   UNL     1      49.033   5.570  17.331  0.00  0.00    +0.000 A 
ATOM     22  C   UNL     1      48.074   4.696  16.823  0.00  0.00    +0.000 A 
ATOM     23  C   UNL     1      47.760   4.820  15.482  0.00  0.00    +0.000 A 
ATOM     24  N   UNL     1      48.315   5.735  14.652  0.00  0.00    +0.000 NA
ATOM     25  H   UNL     1      49.675   8.462  14.765  0.00  0.00    +0.000 HD
BRANCH  22  26
ATOM     26  C   UNL     1      47.439   3.696  17.712  0.00  0.00    +0.000 C 
ATOM     27  N   UNL     1      47.960   3.482  18.957  0.00  0.00    +0.000 N 
ATOM     28  O   UNL     1      46.459   3.055  17.340  0.00  0.00    +0.000 OA
ATOM     29  H   UNL     1      48.757   3.950  19.362  0.00  0.00    +0.000 HD
ATOM     30  H   UNL     1      47.494   2.788  19.529  0.00  0.00    +0.000 HD
ENDBRANCH  22  26
ENDBRANCH  17  18
ENDBRANCH   1  17
TORSDOF 6
ENDMDL
MODEL 8
REMARK VINA RESULT:    -6.686      4.283      8.298
REMARK INTER + INTRA:         -10.072
REMARK INTER:                  -9.222
REMARK INTRA:                  -0.849
REMARK UNBOUND:                -1.041
REMARK  Name = 
REMARK  8 active torsions:
REMARK  status: ('A' for Active; 'I' for Inactive)
REMARK    1  A    between atoms: C_1  and  O_2
REMARK    2  A    between atoms: O_2  and  C_3
REMARK    3  A    between atoms: C_5  and  C_6
REMARK    4  A    between atoms: C_13  and  C_14
REMARK    5  A    between atoms: C_14  and  C_15
REMARK    6  A    between atoms: C_14  and  C_16
REMARK    7  A    between atoms: C_16  and  N_17
REMARK    8  A    between atoms: C_21  and  C_22
REMARK                            x       y       z     vdW  Elec       q    Type
REMARK                         _______ _______ _______ _____ _____    ______ ____
ROOT
ATOM      1  C   UNL     1      48.798   7.309  13.390  0.00  0.00    +0.000 C 
ATOM      2  C   UNL     1      49.748   8.280  12.676  0.00  0.00    +0.000 C 
ENDROOT
BRANCH   1   7
ATOM      3  C   UNL     1      45.387   8.529  12.125  0.00  0.00    +0.000 A 
ATOM      4  C   UNL     1      44.921   7.396  11.452  0.00  0.00    +0.000 A 
ATOM      5  C   UNL     1      45.685   6.219  11.374  0.00  0.00    +0.000 A 
ATOM      6  C   UNL     1      46.921   6.204  12.050  0.00  0.00    +0.000 A 
ATOM      7  C   UNL     1      47.413   7.326  12.743  0.00  0.00    +0.000 A 
ATOM      8  C   UNL     1      46.629   8.486  12.767  0.00  0.00    +0.000 A 
BRANCH   5   9
ATOM      9  C   UNL     1      45.248   5.067  10.547  0.00  0.00    +0.000 A 
ATOM     10  C   UNL     1      45.513   5.025   9.164  0.00  0.00    +0.000 A 
ATOM     11  C   UNL     1      45.177   3.912   8.385  0.00  0.00    +0.000 A 
ATOM     12  C   UNL     1      44.572   2.810   8.975  0.00  0.00    +0.000 A 
ATOM     13  C   UNL     1      44.284   2.828  10.337  0.00  0.00    +0.000 A 
ATOM     14  C   UNL     1      44.608   3.948  11.109  0.00  0.00    +0.000 A 
ENDBRANCH   5   9
BRANCH   3  16
ATOM     15  C   UNL     1      45.450  10.884  11.788  0.00  0.00    +0.000 C 
ATOM     16  O   UNL     1      44.729   9.728  12.206  0.00  0.00    +0.000 OA
ENDBRANCH   3  16
ENDBRANCH   1   7
BRANCH   1  17
ATOM     17  C   UNL     1      48.674   7.610  14.902  0.00  0.00    +0.000 C 
BRANCH  17  18
ATOM     18  N   UNL     1      48.096   6.487  15.657  0.00  0.00    +0.000 N 
ATOM     19  C   UNL     1      49.067   5.763  16.374  0.00  0.00    +0.000 A 
ATOM     20  C   UNL     1      48.667   4.650  17.114  0.00  0.00    +0.000 A 
ATOM     21  C   UNL     1      49.624   3.918  17.823  0.00  0.00    +0.000 A 
ATOM     22  C   UNL     1      50.961   4.306  17.785  0.00  0.00    +0.000 A 
ATOM     23  C   UNL     1      51.267   5.430  17.038  0.00  0.00    +0.000 A 
ATOM     24  N   UNL     1      50.355   6.155  16.347  0.00  0.00    +0.000 NA
ATOM     25  H   UNL     1      47.614   5.827  15.052  0.00  0.00    +0.000 HD
BRANCH  22  26
ATOM     26  C   UNL     1      51.981   3.523  18.520  0.00  0.00    +0.000 C 
ATOM     27  N   UNL     1      52.181   2.213  18.190  0.00  0.00    +0.000 N 
ATOM     28  O   UNL     1      52.639   4.035  19.422  0.00  0.00    +0.000 OA
ATOM     29  H   UNL     1      51.700   1.695  17.470  0.00  0.00    +0.000 HD
ATOM     30  H   UNL     1      52.888   1.716  18.720  0.00  0.00    +0.000 HD
ENDBRANCH  22  26
ENDBRANCH  17  18
ENDBRANCH   1  17
TORSDOF 6
ENDMDL
MODEL 9
REMARK VINA RESULT:    -6.317      4.063      7.133
REMARK INTER + INTRA:          -9.574
REMARK INTER:                  -8.779
REMARK INTRA:                  -0.795
REMARK UNBOUND:                -1.041
REMARK  Name = 
REMARK  8 active torsions:
REMARK  status: ('A' for Active; 'I' for Inactive)
REMARK    1  A    between atoms: C_1  and  O_2
REMARK    2  A    between atoms: O_2  and  C_3
REMARK    3  A    between atoms: C_5  and  C_6
REMARK    4  A    between atoms: C_13  and  C_14
REMARK    5  A    between atoms: C_14  and  C_15
REMARK    6  A    between atoms: C_14  and  C_16
REMARK    7  A    between atoms: C_16  and  N_17
REMARK    8  A    between atoms: C_21  and  C_22
REMARK                            x       y       z     vdW  Elec       q    Type
REMARK                         _______ _______ _______ _____ _____    ______ ____
ROOT
ATOM      1  C   UNL     1      48.765   7.330  15.608  0.00  0.00    +0.000 C 
ATOM      2  C   UNL     1      49.954   8.094  15.012  0.00  0.00    +0.000 C 
ENDROOT
BRANCH   1   7
ATOM      3  C   UNL     1      48.908   6.396  19.327  0.00  0.00    +0.000 A 
ATOM      4  C   UNL     1      49.784   5.307  19.305  0.00  0.00    +0.000 A 
ATOM      5  C   UNL     1      50.342   4.835  18.105  0.00  0.00    +0.000 A 
ATOM      6  C   UNL     1      50.029   5.539  16.925  0.00  0.00    +0.000 A 
ATOM      7  C   UNL     1      49.158   6.644  16.916  0.00  0.00    +0.000 A 
ATOM      8  C   UNL     1      48.602   7.058  18.133  0.00  0.00    +0.000 A 
BRANCH   5   9
ATOM      9  C   UNL     1      51.163   3.599  18.067  0.00  0.00    +0.000 A 
ATOM     10  C   UNL     1      50.677   2.424  17.460  0.00  0.00    +0.000 A 
ATOM     11  C   UNL     1      51.467   1.275  17.348  0.00  0.00    +0.000 A 
ATOM     12  C   UNL     1      52.768   1.277  17.835  0.00  0.00    +0.000 A 
ATOM     13  C   UNL     1      53.271   2.418  18.453  0.00  0.00    +0.000 A 
ATOM     14  C   UNL     1      52.473   3.560  18.577  0.00  0.00    +0.000 A 
ENDBRANCH   5   9
BRANCH   3  16
ATOM     15  C   UNL     1      47.618   5.940  21.274  0.00  0.00    +0.000 C 
ATOM     16  O   UNL     1      48.283   6.887  20.444  0.00  0.00    +0.000 OA
ENDBRANCH   3  16
ENDBRANCH   1   7
BRANCH   1  17
ATOM     17  C   UNL     1      48.180   6.289  14.625  0.00  0.00    +0.000 C 
BRANCH  17  18
ATOM     18  N   UNL     1      47.195   6.873  13.701  0.00  0.00    +0.000 N 
ATOM     19  C   UNL     1      46.412   5.896  13.059  0.00  0.00    +0.000 A 
ATOM     20  C   UNL     1      45.455   6.303  12.130  0.00  0.00    +0.000 A 
ATOM     21  C   UNL     1      44.676   5.341  11.481  0.00  0.00    +0.000 A 
ATOM     22  C   UNL     1      44.862   3.990  11.768  0.00  0.00    +0.000 A 
ATOM     23  C   UNL     1      45.823   3.677  12.712  0.00  0.00    +0.000 A 
ATOM     24  N   UNL     1      46.586   4.593  13.355  0.00  0.00    +0.000 NA
ATOM     25  H   UNL     1      47.637   7.430  12.974  0.00  0.00    +0.000 HD
BRANCH  22  26
ATOM     26  C   UNL     1      44.053   2.966  11.069  0.00  0.00    +0.000 C 
ATOM     27  N   UNL     1      44.597   2.291  10.013  0.00  0.00    +0.000 N 
ATOM     28  O   UNL     1      42.901   2.724  11.422  0.00  0.00    +0.000 OA
ATOM     29  H   UNL     1      45.528   2.409   9.641  0.00  0.00    +0.000 HD
ATOM     30  H   UNL     1      44.006   1.601   9.564  0.00  0.00    +0.000 HD
ENDBRANCH  22  26
ENDBRANCH  17  18
ENDBRANCH   1  17
TORSDOF 6
ENDMDL
