MODEL 1
REMARK VINA RESULT:    -7.477      0.000      0.000
REMARK INTER + INTRA:         -11.744
REMARK INTER:                 -10.537
REMARK INTRA:                  -1.207
REMARK UNBOUND:                -1.207
REMARK  Name = 
REMARK  8 active torsions:
REMARK  status: ('A' for Active; 'I' for Inactive)
REMARK    1  A    between atoms: C_1  and  O_2
REMARK    2  A    between atoms: O_2  and  C_3
REMARK    3  A    between atoms: C_7  and  C_8
REMARK    4  A    between atoms: N_10  and  C_11
REMARK    5  A    between atoms: C_11  and  C_12
REMARK    6  A    between atoms: C_15  and  C_16
REMARK    7  A    between atoms: C_16  and  N_17
REMARK    8  A    between atoms: C_18  and  C_20
REMARK                            x       y       z     vdW  Elec       q    Type
REMARK                         _______ _______ _______ _____ _____    ______ ____
ROOT
ATOM      1  C   UNL     1      44.793   4.675  11.351  0.00  0.00    +0.000 A 
ATOM      2  C   UNL     1      45.127   3.513  12.061  0.00  0.00    +0.000 A 
ATOM      3  C   UNL     1      45.893   3.584  13.231  0.00  0.00    +0.000 A 
ATOM      4  C   UNL     1      46.324   4.821  13.729  0.00  0.00    +0.000 A 
ATOM      5  C   UNL     1      45.996   5.982  13.014  0.00  0.00    +0.000 A 
ATOM      6  C   UNL     1      45.231   5.911  11.845  0.00  0.00    +0.000 A 
ENDROOT
BRANCH   1   7
ATOM      7  C   UNL     1      43.956   4.595  10.098  0.00  0.00    +0.000 C 
BRANCH   7  10
ATOM      8  C   UNL     1      45.631   4.112   8.367  0.00  0.00    +0.000 C 
ATOM      9  O   UNL     1      46.113   5.236   8.420  0.00  0.00    +0.000 OA
ATOM     10  N   UNL     1      44.547   3.709   9.119  0.00  0.00    +0.000 N 
ATOM     11  H   UNL     1      44.330   2.723   9.191  0.00  0.00    +0.000 HD
BRANCH   8  16
ATOM     12  C   UNL     1      46.933   0.748   7.216  0.00  0.00    +0.000 A 
ATOM     13  C   UNL     1      47.304   1.029   5.900  0.00  0.00    +0.000 A 
ATOM     14  C   UNL     1      47.166   2.324   5.390  0.00  0.00    +0.000 A 
ATOM     15  C   UNL     1      46.639   3.340   6.186  0.00  0.00    +0.000 A 
ATOM     16  C   UNL     1      46.245   3.063   7.500  0.00  0.00    +0.000 A 
ATOM     17  C   UNL     1      46.421   1.773   8.018  0.00  0.00    +0.000 A 
BRANCH  12  19
ATOM     18  C   UNL     1      46.638  -1.607   7.040  0.00  0.00    +0.000 C 
ATOM     19  O   UNL     1      47.011  -0.477   7.821  0.00  0.00    +0.000 OA
ENDBRANCH  12  19
ENDBRANCH   8  16
ENDBRANCH   7  10
ENDBRANCH   1   7
BRANCH   4  20
ATOM     20  C   UNL     1      47.140   4.907  14.996  0.00  0.00    +0.000 C 
BRANCH  20  21
ATOM     21  N   UNL     1      47.862   6.151  15.084  0.00  0.00    +0.000 N 
ATOM     22  C   UNL     1      48.984   6.271  15.869  0.00  0.00    +0.000 C 
ATOM     23  O   UNL     1      49.446   5.322  16.496  0.00  0.00    +0.000 OA
ATOM     24  H   UNL     1      47.383   6.987  14.767  0.00  0.00    +0.000 HD
BRANCH  22  25
ATOM     25  C   UNL     1      49.645   7.583  15.864  0.00  0.00    +0.000 A 
ATOM     26  C   UNL     1      49.906   8.231  17.065  0.00  0.00    +0.000 A 
ATOM     27  S   UNL     1      50.734   9.711  16.880  0.00  0.00    +0.000 S 
ATOM     28  C   UNL     1      50.718   9.571  15.184  0.00  0.00    +0.000 A 
ATOM     29  N   UNL     1      51.255  10.540  14.396  0.00  0.00    +0.000 NA
ATOM     30  C   UNL     1      51.140  10.322  13.128  0.00  0.00    +0.000 A 
ATOM     31  N   UNL     1      50.543   9.218  12.578  0.00  0.00    +0.000 N 
ATOM     32  C   UNL     1      50.026   8.193  13.334  0.00  0.00    +0.000 A 
ATOM     33  O   UNL     1      49.556   7.189  12.810  0.00  0.00    +0.000 OA
ATOM     34  C   UNL     1      50.110   8.399  14.767  0.00  0.00    +0.000 A 
ATOM     35  H   UNL     1      50.498   9.099  11.577  0.00  0.00    +0.000 HD
ENDBRANCH  22  25
ENDBRANCH  20  21
ENDBRANCH   4  20
TORSDOF 7
ENDMDL
MODEL 2
REMARK VINA RESULT:    -7.362      2.118      3.806
REMARK INTER + INTRA:         -11.581
REMARK INTER:                 -10.814
REMARK INTRA:                  -0.768
REMARK UNBOUND:                -1.207
REMARK  Name = 
REMARK  8 active torsions:
REMARK  status: ('A' for Active; 'I' for Inactive)
REMARK    1  A    between atoms: C_1  and  O_2
REMARK    2  A    between atoms: O_2  and  C_3
REMARK    3  A    between atoms: C_7  and  C_8
REMARK    4  A    between atoms: N_10  and  C_11
REMARK    5  A    between atoms: C_11  and  C_12
REMARK    6  A    between atoms: C_15  and  C_16
REMARK    7  A    between atoms: C_16  and  N_17
REMARK    8  A    between atoms: C_18  and  C_20
REMARK                            x       y       z     vdW  Elec       q    Type
REMARK                         _______ _______ _______ _____ _____    ______ ____
ROOT
ATOM      1  C   UNL     1      44.718   5.649  11.347  0.00  0.00    +0.000 A 
ATOM      2  C   UNL     1      45.734   4.968  12.032  0.00  0.00    +0.000 A 
ATOM      3  C   UNL     1      46.723   5.672  12.732  0.00  0.00    +0.000 A 
ATOM      4  C   UNL     1      46.705   7.073  12.778  0.00  0.00    +0.000 A 
ATOM      5  C   UNL     1      45.694   7.753  12.086  0.00  0.00    +0.000 A 
ATOM      6  C   UNL     1      44.705   7.050  11.388  0.00  0.00    +0.000 A 
ENDROOT
BRANCH   1   7
ATOM      7  C   UNL     1      43.647   4.887  10.606  0.00  0.00    +0.000 C 
BRANCH   7  10
ATOM      8  C   UNL     1      45.118   4.124   8.794  0.00  0.00    +0.000 C 
ATOM      9  O   UNL     1      45.450   5.262   8.488  0.00  0.00    +0.000 OA
ATOM     10  N   UNL     1      44.211   3.833   9.792  0.00  0.00    +0.000 N 
ATOM     11  H   UNL     1      44.139   2.885  10.139  0.00  0.00    +0.000 HD
BRANCH   8  16
ATOM     12  C   UNL     1      46.993   2.053   6.237  0.00  0.00    +0.000 A 
ATOM     13  C   UNL     1      47.007   0.799   6.851  0.00  0.00    +0.000 A 
ATOM     14  C   UNL     1      46.376   0.612   8.084  0.00  0.00    +0.000 A 
ATOM     15  C   UNL     1      45.743   1.680   8.720  0.00  0.00    +0.000 A 
ATOM     16  C   UNL     1      45.742   2.945   8.122  0.00  0.00    +0.000 A 
ATOM     17  C   UNL     1      46.342   3.119   6.868  0.00  0.00    +0.000 A 
BRANCH  12  19
ATOM     18  C   UNL     1      47.124   1.652   3.895  0.00  0.00    +0.000 C 
ATOM     19  O   UNL     1      47.582   2.361   5.041  0.00  0.00    +0.000 OA
ENDBRANCH  12  19
ENDBRANCH   8  16
ENDBRANCH   7  10
ENDBRANCH   1   7
BRANCH   4  20
ATOM     20  C   UNL     1      47.760   7.838  13.538  0.00  0.00    +0.000 C 
BRANCH  20  21
ATOM     21  N   UNL     1      47.982   7.286  14.851  0.00  0.00    +0.000 N 
ATOM     22  C   UNL     1      49.252   7.052  15.321  0.00  0.00    +0.000 C 
ATOM     23  O   UNL     1      50.252   7.337  14.669  0.00  0.00    +0.000 OA
ATOM     24  H   UNL     1      47.191   6.841  15.305  0.00  0.00    +0.000 HD
BRANCH  22  25
ATOM     25  C   UNL     1      49.352   6.504  16.681  0.00  0.00    +0.000 A 
ATOM     26  C   UNL     1      50.030   7.213  17.664  0.00  0.00    +0.000 A 
ATOM     27  S   UNL     1      49.995   6.464  19.197  0.00  0.00    +0.000 S 
ATOM     28  C   UNL     1      49.127   5.133  18.587  0.00  0.00    +0.000 A 
ATOM     29  N   UNL     1      48.788   4.091  19.391  0.00  0.00    +0.000 NA
ATOM     30  C   UNL     1      48.165   3.133  18.790  0.00  0.00    +0.000 A 
ATOM     31  N   UNL     1      47.844   3.127  17.457  0.00  0.00    +0.000 N 
ATOM     32  C   UNL     1      48.128   4.177  16.616  0.00  0.00    +0.000 A 
ATOM     33  O   UNL     1      47.770   4.168  15.443  0.00  0.00    +0.000 OA
ATOM     34  C   UNL     1      48.848   5.271  17.239  0.00  0.00    +0.000 A 
ATOM     35  H   UNL     1      47.341   2.354  17.049  0.00  0.00    +0.000 HD
ENDBRANCH  22  25
ENDBRANCH  20  21
ENDBRANCH   4  20
TORSDOF 7
ENDMDL
MODEL 3
REMARK VINA RESULT:    -7.346      2.626      3.760
REMARK INTER + INTRA:         -11.559
REMARK INTER:                 -10.574
REMARK INTRA:                  -0.985
REMARK UNBOUND:                -1.207
REMARK  Name = 
REMARK  8 active torsions:
REMARK  status: ('A' for Active; 'I' for Inactive)
REMARK    1  A    between atoms: C_1  and  O_2
REMARK    2  A    between atoms: O_2  and  C_3
REMARK    3  A    between atoms: C_7  and  C_8
REMARK    4  A    between atoms: N_10  and  C_11
REMARK    5  A    between atoms: C_11  and  C_12
REMARK    6  A    between atoms: C_15  and  C_16
REMARK    7  A    between atoms: C_16  and  N_17
REMARK    8  A    between atoms: C_18  and  C_20
REMARK                            x       y       z     vdW  Elec       q    Type
REMARK                         _______ _______ _______ _____ _____    ______ ____
ROOT
ATOM      1  C   UNL     1      45.325   5.475  11.607  0.00  0.00    +0.000 A 
ATOM      2  C   UNL     1      45.879   6.747  11.406  0.00  0.00    +0.000 A 
ATOM      3  C   UNL     1      46.926   7.208  12.215  0.00  0.00    +0.000 A 
ATOM      4  C   UNL     1      47.455   6.399  13.230  0.00  0.00    +0.000 A 
ATOM      5  C   UNL     1      46.894   5.131  13.435  0.00  0.00    +0.000 A 
ATOM      6  C   UNL     1      45.849   4.669  12.627  0.00  0.00    +0.000 A 
ENDROOT
BRANCH   1   7
ATOM      7  C   UNL     1      44.207   4.976  10.725  0.00  0.00    +0.000 C 
BRANCH   7  10
ATOM      8  C   UNL     1      45.421   4.123   8.768  0.00  0.00    +0.000 C 
ATOM      9  O   UNL     1      45.734   5.242   8.386  0.00  0.00    +0.000 OA
ATOM     10  N   UNL     1      44.641   3.885   9.881  0.00  0.00    +0.000 N 
ATOM     11  H   UNL     1      44.593   2.950  10.265  0.00  0.00    +0.000 HD
BRANCH   8  16
ATOM     12  C   UNL     1      46.995   1.944   6.100  0.00  0.00    +0.000 A 
ATOM     13  C   UNL     1      46.981   0.692   6.719  0.00  0.00    +0.000 A 
ATOM     14  C   UNL     1      46.426   0.544   7.994  0.00  0.00    +0.000 A 
ATOM     15  C   UNL     1      45.900   1.647   8.666  0.00  0.00    +0.000 A 
ATOM     16  C   UNL     1      45.929   2.909   8.062  0.00  0.00    +0.000 A 
ATOM     17  C   UNL     1      46.451   3.046   6.768  0.00  0.00    +0.000 A 
BRANCH  12  19
ATOM     18  C   UNL     1      47.162   1.333   3.807  0.00  0.00    +0.000 C 
ATOM     19  O   UNL     1      47.517   2.216   4.865  0.00  0.00    +0.000 OA
ENDBRANCH  12  19
ENDBRANCH   8  16
ENDBRANCH   7  10
ENDBRANCH   1   7
BRANCH   4  20
ATOM     20  C   UNL     1      48.589   6.884  14.099  0.00  0.00    +0.000 C 
BRANCH  20  21
ATOM     21  N   UNL     1      48.204   6.969  15.485  0.00  0.00    +0.000 N 
ATOM     22  C   UNL     1      48.979   6.417  16.476  0.00  0.00    +0.000 C 
ATOM     23  O   UNL     1      50.049   5.864  16.235  0.00  0.00    +0.000 OA
ATOM     24  H   UNL     1      47.240   7.213  15.682  0.00  0.00    +0.000 HD
BRANCH  22  25
ATOM     25  C   UNL     1      48.493   6.584  17.852  0.00  0.00    +0.000 A 
ATOM     26  C   UNL     1      48.406   5.481  18.693  0.00  0.00    +0.000 A 
ATOM     27  S   UNL     1      47.883   5.864  20.272  0.00  0.00    +0.000 S 
ATOM     28  C   UNL     1      47.693   7.507  19.870  0.00  0.00    +0.000 A 
ATOM     29  N   UNL     1      47.238   8.403  20.785  0.00  0.00    +0.000 NA
ATOM     30  C   UNL     1      47.107   9.606  20.334  0.00  0.00    +0.000 A 
ATOM     31  N   UNL     1      47.397   9.995  19.052  0.00  0.00    +0.000 N 
ATOM     32  C   UNL     1      47.900   9.134  18.107  0.00  0.00    +0.000 A 
ATOM     33  O   UNL     1      48.210   9.527  16.987  0.00  0.00    +0.000 OA
ATOM     34  C   UNL     1      48.047   7.763  18.557  0.00  0.00    +0.000 A 
ATOM     35  H   UNL     1      47.287  10.956  18.765  0.00  0.00    +0.000 HD
ENDBRANCH  22  25
ENDBRANCH  20  21
ENDBRANCH   4  20
TORSDOF 7
ENDMDL
MODEL 4
REMARK VINA RESULT:    -7.195      6.401      9.773
REMARK INTER + INTRA:         -11.346
REMARK INTER:                 -10.416
REMARK INTRA:                  -0.931
REMARK UNBOUND:                -1.207
REMARK  Name = 
REMARK  8 active torsions:
REMARK  status: ('A' for Active; 'I' for Inactive)
REMARK    1  A    between atoms: C_1  and  O_2
REMARK    2  A    between atoms: O_2  and  C_3
REMARK    3  A    between atoms: C_7  and  C_8
REMARK    4  A    between atoms: N_10  and  C_11
REMARK    5  A    between atoms: C_11  and  C_12
REMARK    6  A    between atoms: C_15  and  C_16
REMARK    7  A    between atoms: C_16  and  N_17
REMARK    8  A    between atoms: C_18  and  C_20
REMARK                            x       y       z     vdW  Elec       q    Type
REMARK                         _______ _______ _______ _____ _____    ______ ____
ROOT
ATOM      1  C   UNL     1      51.493   3.070  17.738  0.00  0.00    +0.000 A 
ATOM      2  C   UNL     1      50.816   4.255  18.061  0.00  0.00    +0.000 A 
ATOM      3  C   UNL     1      49.444   4.387  17.812  0.00  0.00    +0.000 A 
ATOM      4  C   UNL     1      48.714   3.329  17.253  0.00  0.00    +0.000 A 
ATOM      5  C   UNL     1      49.393   2.148  16.923  0.00  0.00    +0.000 A 
ATOM      6  C   UNL     1      50.764   2.016  17.172  0.00  0.00    +0.000 A 
ENDROOT
BRANCH   1   7
ATOM      7  C   UNL     1      52.968   2.928  18.019  0.00  0.00    +0.000 C 
BRANCH   7  10
ATOM      8  C   UNL     1      54.183   0.823  18.376  0.00  0.00    +0.000 C 
ATOM      9  O   UNL     1      54.472   1.104  19.532  0.00  0.00    +0.000 OA
ATOM     10  N   UNL     1      53.482   1.665  17.537  0.00  0.00    +0.000 N 
ATOM     11  H   UNL     1      53.094   1.300  16.677  0.00  0.00    +0.000 HD
BRANCH   8  16
ATOM     12  C   UNL     1      54.738  -2.915  18.130  0.00  0.00    +0.000 A 
ATOM     13  C   UNL     1      55.090  -3.056  16.786  0.00  0.00    +0.000 A 
ATOM     14  C   UNL     1      55.184  -1.931  15.961  0.00  0.00    +0.000 A 
ATOM     15  C   UNL     1      54.908  -0.662  16.468  0.00  0.00    +0.000 A 
ATOM     16  C   UNL     1      54.534  -0.513  17.809  0.00  0.00    +0.000 A 
ATOM     17  C   UNL     1      54.479  -1.639  18.642  0.00  0.00    +0.000 A 
BRANCH  12  19
ATOM     18  C   UNL     1      53.278  -4.316  19.381  0.00  0.00    +0.000 C 
ATOM     19  O   UNL     1      54.604  -3.936  19.030  0.00  0.00    +0.000 OA
ENDBRANCH  12  19
ENDBRANCH   8  16
ENDBRANCH   7  10
ENDBRANCH   1   7
BRANCH   4  20
ATOM     20  C   UNL     1      47.233   3.459  16.992  0.00  0.00    +0.000 C 
BRANCH  20  21
ATOM     21  N   UNL     1      46.950   4.465  16.000  0.00  0.00    +0.000 N 
ATOM     22  C   UNL     1      47.038   4.187  14.657  0.00  0.00    +0.000 C 
ATOM     23  O   UNL     1      47.320   3.067  14.240  0.00  0.00    +0.000 OA
ATOM     24  H   UNL     1      46.940   5.430  16.310  0.00  0.00    +0.000 HD
BRANCH  22  25
ATOM     25  C   UNL     1      46.708   5.287  13.741  0.00  0.00    +0.000 A 
ATOM     26  C   UNL     1      47.635   6.295  13.509  0.00  0.00    +0.000 A 
ATOM     27  S   UNL     1      47.114   7.457  12.373  0.00  0.00    +0.000 S 
ATOM     28  C   UNL     1      45.605   6.690  12.198  0.00  0.00    +0.000 A 
ATOM     29  N   UNL     1      44.652   7.199  11.374  0.00  0.00    +0.000 NA
ATOM     30  C   UNL     1      43.543   6.538  11.367  0.00  0.00    +0.000 A 
ATOM     31  N   UNL     1      43.304   5.408  12.105  0.00  0.00    +0.000 N 
ATOM     32  C   UNL     1      44.251   4.833  12.918  0.00  0.00    +0.000 A 
ATOM     33  O   UNL     1      44.027   3.786  13.516  0.00  0.00    +0.000 OA
ATOM     34  C   UNL     1      45.510   5.551  12.978  0.00  0.00    +0.000 A 
ATOM     35  H   UNL     1      42.419   4.927  12.044  0.00  0.00    +0.000 HD
ENDBRANCH  22  25
ENDBRANCH  20  21
ENDBRANCH   4  20
TORSDOF 7
ENDMDL
MODEL 5
REMARK VINA RESULT:    -7.038      5.224      8.045
REMARK INTER + INTRA:         -11.125
REMARK INTER:                 -10.068
REMARK INTRA:                  -1.057
REMARK UNBOUND:                -1.207
REMARK  Name = 
REMARK  8 active torsions:
REMARK  status: ('A' for Active; 'I' for Inactive)
REMARK    1  A    between atoms: C_1  and  O_2
REMARK    2  A    between atoms: O_2  and  C_3
REMARK    3  A    between atoms: C_7  and  C_8
REMARK    4  A    between atoms: N_10  and  C_11
REMARK    5  A    between atoms: C_11  and  C_12
REMARK    6  A    between atoms: C_15  and  C_16
REMARK    7  A    between atoms: C_16  and  N_17
REMARK    8  A    between atoms: C_18  and  C_20
REMARK                            x       y       z     vdW  Elec       q    Type
REMARK                         _______ _______ _______ _____ _____    ______ ____
ROOT
ATOM      1  C   UNL     1      44.961   9.272  11.908  0.00  0.00    +0.000 A 
ATOM      2  C   UNL     1      45.988   9.120  12.850  0.00  0.00    +0.000 A 
ATOM      3  C   UNL     1      46.421   7.846  13.239  0.00  0.00    +0.000 A 
ATOM      4  C   UNL     1      45.850   6.695  12.679  0.00  0.00    +0.000 A 
ATOM      5  C   UNL     1      44.817   6.848  11.743  0.00  0.00    +0.000 A 
ATOM      6  C   UNL     1      44.385   8.121  11.354  0.00  0.00    +0.000 A 
ENDROOT
BRANCH   1   7
ATOM      7  C   UNL     1      44.507  10.646  11.483  0.00  0.00    +0.000 C 
BRANCH   7  10
ATOM      8  C   UNL     1      42.110  10.871  10.998  0.00  0.00    +0.000 C 
ATOM      9  O   UNL     1      42.262  10.681   9.798  0.00  0.00    +0.000 OA
ATOM     10  N   UNL     1      43.149  10.912  11.904  0.00  0.00    +0.000 N 
ATOM     11  H   UNL     1      42.948  10.860  12.894  0.00  0.00    +0.000 HD
BRANCH   8  16
ATOM     12  C   UNL     1      38.401  10.349  11.560  0.00  0.00    +0.000 A 
ATOM     13  C   UNL     1      38.169  11.170  12.665  0.00  0.00    +0.000 A 
ATOM     14  C   UNL     1      39.210  11.926  13.212  0.00  0.00    +0.000 A 
ATOM     15  C   UNL     1      40.493  11.852  12.670  0.00  0.00    +0.000 A 
ATOM     16  C   UNL     1      40.740  11.015  11.575  0.00  0.00    +0.000 A 
ATOM     17  C   UNL     1      39.684  10.289  11.006  0.00  0.00    +0.000 A 
BRANCH  12  19
ATOM     18  C   UNL     1      36.299   9.241  11.693  0.00  0.00    +0.000 C 
ATOM     19  O   UNL     1      37.469   9.557  10.946  0.00  0.00    +0.000 OA
ENDBRANCH  12  19
ENDBRANCH   8  16
ENDBRANCH   7  10
ENDBRANCH   1   7
BRANCH   4  20
ATOM     20  C   UNL     1      46.318   5.319  13.084  0.00  0.00    +0.000 C 
BRANCH  20  21
ATOM     21  N   UNL     1      46.857   5.308  14.420  0.00  0.00    +0.000 N 
ATOM     22  C   UNL     1      47.339   4.152  14.986  0.00  0.00    +0.000 C 
ATOM     23  O   UNL     1      47.372   3.089  14.371  0.00  0.00    +0.000 OA
ATOM     24  H   UNL     1      46.636   6.100  15.014  0.00  0.00    +0.000 HD
BRANCH  22  25
ATOM     25  C   UNL     1      47.880   4.269  16.347  0.00  0.00    +0.000 A 
ATOM     26  C   UNL     1      47.457   3.391  17.337  0.00  0.00    +0.000 A 
ATOM     27  S   UNL     1      48.232   3.628  18.839  0.00  0.00    +0.000 S 
ATOM     28  C   UNL     1      49.114   4.953  18.237  0.00  0.00    +0.000 A 
ATOM     29  N   UNL     1      49.967   5.647  19.036  0.00  0.00    +0.000 NA
ATOM     30  C   UNL     1      50.541   6.650  18.460  0.00  0.00    +0.000 A 
ATOM     31  N   UNL     1      50.344   7.018  17.155  0.00  0.00    +0.000 N 
ATOM     32  C   UNL     1      49.525   6.321  16.299  0.00  0.00    +0.000 A 
ATOM     33  O   UNL     1      49.419   6.638  15.118  0.00  0.00    +0.000 OA
ATOM     34  C   UNL     1      48.838   5.195  16.903  0.00  0.00    +0.000 A 
ATOM     35  H   UNL     1      50.835   7.805  16.759  0.00  0.00    +0.000 HD
ENDBRANCH  22  25
ENDBRANCH  20  21
ENDBRANCH   4  20
TORSDOF 7
ENDMDL
MODEL 6
REMARK VINA RESULT:    -6.975      2.419      3.655
REMARK INTER + INTRA:         -11.036
REMARK INTER:                  -9.956
REMARK INTRA:                  -1.080
REMARK UNBOUND:                -1.207
REMARK  Name = 
REMARK  8 active torsions:
REMARK  status: ('A' for Active; 'I' for Inactive)
REMARK    1  A    between atoms: C_1  and  O_2
REMARK    2  A    between atoms: O_2  and  C_3
REMARK    3  A    between atoms: C_7  and  C_8
REMARK    4  A    between atoms: N_10  and  C_11
REMARK    5  A    between atoms: C_11  and  C_12
REMARK    6  A    between atoms: C_15  and  C_16
REMARK    7  A    between atoms: C_16  and  N_17
REMARK    8  A    between atoms: C_18  and  C_20
REMARK                            x       y       z     vdW  Elec       q    Type
REMARK                         _______ _______ _______ _____ _____    ______ ____
ROOT
ATOM      1  C   UNL     1      45.335   5.139  12.087  0.00  0.00    +0.000 A 
ATOM      2  C   UNL     1      46.280   4.810  13.069  0.00  0.00    +0.000 A 
ATOM      3  C   UNL     1      47.123   5.791  13.608  0.00  0.00    +0.000 A 
ATOM      4  C   UNL     1      47.024   7.126  13.192  0.00  0.00    +0.000 A 
ATOM      5  C   UNL     1      46.084   7.451  12.205  0.00  0.00    +0.000 A 
ATOM      6  C   UNL     1      45.242   6.472  11.666  0.00  0.00    +0.000 A 
ENDROOT
BRANCH   1   7
ATOM      7  C   UNL     1      44.420   4.082  11.518  0.00  0.00    +0.000 C 
BRANCH   7  10
ATOM      8  C   UNL     1      44.887   3.660   9.145  0.00  0.00    +0.000 C 
ATOM      9  O   UNL     1      44.136   4.549   8.766  0.00  0.00    +0.000 OA
ATOM     10  N   UNL     1      45.068   3.325  10.471  0.00  0.00    +0.000 N 
ATOM     11  H   UNL     1      45.848   2.737  10.734  0.00  0.00    +0.000 HD
BRANCH   8  16
ATOM     12  C   UNL     1      46.758   0.803   7.508  0.00  0.00    +0.000 A 
ATOM     13  C   UNL     1      47.204   1.402   6.329  0.00  0.00    +0.000 A 
ATOM     14  C   UNL     1      46.930   2.750   6.076  0.00  0.00    +0.000 A 
ATOM     15  C   UNL     1      46.192   3.501   6.990  0.00  0.00    +0.000 A 
ATOM     16  C   UNL     1      45.722   2.903   8.165  0.00  0.00    +0.000 A 
ATOM     17  C   UNL     1      46.033   1.563   8.432  0.00  0.00    +0.000 A 
BRANCH  12  19
ATOM     18  C   UNL     1      46.582  -1.493   6.906  0.00  0.00    +0.000 C 
ATOM     19  O   UNL     1      46.954  -0.504   7.861  0.00  0.00    +0.000 OA
ENDBRANCH  12  19
ENDBRANCH   8  16
ENDBRANCH   7  10
ENDBRANCH   1   7
BRANCH   4  20
ATOM     20  C   UNL     1      47.921   8.190  13.776  0.00  0.00    +0.000 C 
BRANCH  20  21
ATOM     21  N   UNL     1      47.672   8.388  15.181  0.00  0.00    +0.000 N 
ATOM     22  C   UNL     1      48.408   9.286  15.916  0.00  0.00    +0.000 C 
ATOM     23  O   UNL     1      49.279   9.987  15.408  0.00  0.00    +0.000 OA
ATOM     24  H   UNL     1      47.130   7.677  15.659  0.00  0.00    +0.000 HD
BRANCH  22  25
ATOM     25  C   UNL     1      48.050   9.415  17.335  0.00  0.00    +0.000 A 
ATOM     26  C   UNL     1      47.736  10.663  17.859  0.00  0.00    +0.000 A 
ATOM     27  S   UNL     1      47.283  10.621  19.504  0.00  0.00    +0.000 S 
ATOM     28  C   UNL     1      47.553   8.943  19.592  0.00  0.00    +0.000 A 
ATOM     29  N   UNL     1      47.373   8.265  20.757  0.00  0.00    +0.000 NA
ATOM     30  C   UNL     1      47.649   7.006  20.690  0.00  0.00    +0.000 A 
ATOM     31  N   UNL     1      48.082   6.361  19.561  0.00  0.00    +0.000 N 
ATOM     32  C   UNL     1      48.236   6.996  18.352  0.00  0.00    +0.000 A 
ATOM     33  O   UNL     1      48.564   6.377  17.344  0.00  0.00    +0.000 OA
ATOM     34  C   UNL     1      47.959   8.419  18.378  0.00  0.00    +0.000 A 
ATOM     35  H   UNL     1      48.267   5.369  19.570  0.00  0.00    +0.000 HD
ENDBRANCH  22  25
ENDBRANCH  20  21
ENDBRANCH   4  20
TORSDOF 7
ENDMDL
MODEL 7
REMARK VINA RESULT:    -6.751      4.717      7.385
REMARK INTER + INTRA:         -10.721
REMARK INTER:                  -9.656
REMARK INTRA:                  -1.065
REMARK UNBOUND:                -1.207
REMARK  Name = 
REMARK  8 active torsions:
REMARK  status: ('A' for Active; 'I' for Inactive)
REMARK    1  A    between atoms: C_1  and  O_2
REMARK    2  A    between atoms: O_2  and  C_3
REMARK    3  A    between atoms: C_7  and  C_8
REMARK    4  A    between atoms: N_10  and  C_11
REMARK    5  A    between atoms: C_11  and  C_12
REMARK    6  A    between atoms: C_15  and  C_16
REMARK    7  A    between atoms: C_16  and  N_17
REMARK    8  A    between atoms: C_18  and  C_20
REMARK                            x       y       z     vdW  Elec       q    Type
REMARK                         _______ _______ _______ _____ _____    ______ ____
ROOT
ATOM      1  C   UNL     1      49.192   7.144  13.847  0.00  0.00    +0.000 A 
ATOM      2  C   UNL     1      50.282   7.745  14.494  0.00  0.00    +0.000 A 
ATOM      3  C   UNL     1      51.285   8.389  13.758  0.00  0.00    +0.000 A 
ATOM      4  C   UNL     1      51.210   8.464  12.361  0.00  0.00    +0.000 A 
ATOM      5  C   UNL     1      50.125   7.856  11.715  0.00  0.00    +0.000 A 
ATOM      6  C   UNL     1      49.122   7.213  12.449  0.00  0.00    +0.000 A 
ENDROOT
BRANCH   1   7
ATOM      7  C   UNL     1      48.107   6.463  14.643  0.00  0.00    +0.000 C 
BRANCH   7  10
ATOM      8  C   UNL     1      46.580   4.908  13.511  0.00  0.00    +0.000 C 
ATOM      9  O   UNL     1      47.241   3.924  13.816  0.00  0.00    +0.000 OA
ATOM     10  N   UNL     1      46.937   6.201  13.834  0.00  0.00    +0.000 N 
ATOM     11  H   UNL     1      46.256   6.943  13.743  0.00  0.00    +0.000 HD
BRANCH   8  16
ATOM     12  C   UNL     1      43.893   3.486  11.252  0.00  0.00    +0.000 A 
ATOM     13  C   UNL     1      42.831   4.359  11.500  0.00  0.00    +0.000 A 
ATOM     14  C   UNL     1      42.995   5.436  12.376  0.00  0.00    +0.000 A 
ATOM     15  C   UNL     1      44.213   5.637  13.024  0.00  0.00    +0.000 A 
ATOM     16  C   UNL     1      45.276   4.755  12.798  0.00  0.00    +0.000 A 
ATOM     17  C   UNL     1      45.120   3.700  11.889  0.00  0.00    +0.000 A 
BRANCH  12  19
ATOM     18  C   UNL     1      44.682   2.431   9.271  0.00  0.00    +0.000 C 
ATOM     19  O   UNL     1      43.852   2.396  10.427  0.00  0.00    +0.000 OA
ENDBRANCH  12  19
ENDBRANCH   8  16
ENDBRANCH   7  10
ENDBRANCH   1   7
BRANCH   4  20
ATOM     20  C   UNL     1      52.281   9.166  11.562  0.00  0.00    +0.000 C 
BRANCH  20  21
ATOM     21  N   UNL     1      52.443   8.583  10.254  0.00  0.00    +0.000 N 
ATOM     22  C   UNL     1      53.507   8.916   9.451  0.00  0.00    +0.000 C 
ATOM     23  O   UNL     1      54.386   9.689   9.820  0.00  0.00    +0.000 OA
ATOM     24  H   UNL     1      51.632   8.129   9.847  0.00  0.00    +0.000 HD
BRANCH  22  25
ATOM     25  C   UNL     1      53.575   8.242   8.147  0.00  0.00    +0.000 A 
ATOM     26  C   UNL     1      53.550   8.992   6.978  0.00  0.00    +0.000 A 
ATOM     27  S   UNL     1      53.702   8.056   5.560  0.00  0.00    +0.000 S 
ATOM     28  C   UNL     1      53.741   6.609   6.453  0.00  0.00    +0.000 A 
ATOM     29  N   UNL     1      53.834   5.404   5.831  0.00  0.00    +0.000 NA
ATOM     30  C   UNL     1      53.815   4.388   6.628  0.00  0.00    +0.000 A 
ATOM     31  N   UNL     1      53.720   4.469   7.993  0.00  0.00    +0.000 N 
ATOM     32  C   UNL     1      53.668   5.665   8.668  0.00  0.00    +0.000 A 
ATOM     33  O   UNL     1      53.648   5.705   9.893  0.00  0.00    +0.000 OA
ATOM     34  C   UNL     1      53.664   6.839   7.816  0.00  0.00    +0.000 A 
ATOM     35  H   UNL     1      53.726   3.636   8.562  0.00  0.00    +0.000 HD
ENDBRANCH  22  25
ENDBRANCH  20  21
ENDBRANCH   4  20
TORSDOF 7
ENDMDL
MODEL 8
REMARK VINA RESULT:    -6.665      3.534      5.751
REMARK INTER + INTRA:         -10.600
REMARK INTER:                  -9.574
REMARK INTRA:                  -1.026
REMARK UNBOUND:                -1.207
REMARK  Name = 
REMARK  8 active torsions:
REMARK  status: ('A' for Active; 'I' for Inactive)
REMARK    1  A    between atoms: C_1  and  O_2
REMARK    2  A    between atoms: O_2  and  C_3
REMARK    3  A    between atoms: C_7  and  C_8
REMARK    4  A    between atoms: N_10  and  C_11
REMARK    5  A    between atoms: C_11  and  C_12
REMARK    6  A    between atoms: C_15  and  C_16
REMARK    7  A    between atoms: C_16  and  N_17
REMARK    8  A    between atoms: C_18  and  C_20
REMARK                            x       y       z     vdW  Elec       q    Type
REMARK                         _______ _______ _______ _____ _____    ______ ____
ROOT
ATOM      1  C   UNL     1      48.089   8.005  13.451  0.00  0.00    +0.000 A 
ATOM      2  C   UNL     1      47.701   8.990  14.369  0.00  0.00    +0.000 A 
ATOM      3  C   UNL     1      48.108   8.922  15.708  0.00  0.00    +0.000 A 
ATOM      4  C   UNL     1      48.929   7.877  16.153  0.00  0.00    +0.000 A 
ATOM      5  C   UNL     1      49.309   6.887  15.236  0.00  0.00    +0.000 A 
ATOM      6  C   UNL     1      48.904   6.956  13.898  0.00  0.00    +0.000 A 
ENDROOT
BRANCH   1   7
ATOM      7  C   UNL     1      47.660   8.089  12.007  0.00  0.00    +0.000 C 
BRANCH   7  10
ATOM      8  C   UNL     1      45.743   6.644  11.493  0.00  0.00    +0.000 C 
ATOM      9  O   UNL     1      44.926   7.465  11.890  0.00  0.00    +0.000 OA
ATOM     10  N   UNL     1      47.108   6.836  11.542  0.00  0.00    +0.000 N 
ATOM     11  H   UNL     1      47.716   6.226  11.012  0.00  0.00    +0.000 HD
BRANCH   8  16
ATOM     12  C   UNL     1      45.155   3.977   8.868  0.00  0.00    +0.000 A 
ATOM     13  C   UNL     1      44.549   2.972   9.625  0.00  0.00    +0.000 A 
ATOM     14  C   UNL     1      44.296   3.169  10.985  0.00  0.00    +0.000 A 
ATOM     15  C   UNL     1      44.663   4.365  11.602  0.00  0.00    +0.000 A 
ATOM     16  C   UNL     1      45.290   5.370  10.857  0.00  0.00    +0.000 A 
ATOM     17  C   UNL     1      45.507   5.182   9.485  0.00  0.00    +0.000 A 
BRANCH  12  19
ATOM     18  C   UNL     1      46.836   3.727   7.202  0.00  0.00    +0.000 C 
ATOM     19  O   UNL     1      45.463   3.897   7.538  0.00  0.00    +0.000 OA
ENDBRANCH  12  19
ENDBRANCH   8  16
ENDBRANCH   7  10
ENDBRANCH   1   7
BRANCH   4  20
ATOM     20  C   UNL     1      49.381   7.801  17.591  0.00  0.00    +0.000 C 
BRANCH  20  21
ATOM     21  N   UNL     1      50.390   6.791  17.783  0.00  0.00    +0.000 N 
ATOM     22  C   UNL     1      50.185   5.728  18.629  0.00  0.00    +0.000 C 
ATOM     23  O   UNL     1      49.124   5.566  19.227  0.00  0.00    +0.000 OA
ATOM     24  H   UNL     1      51.333   7.019  17.487  0.00  0.00    +0.000 HD
BRANCH  22  25
ATOM     25  C   UNL     1      51.279   4.754  18.729  0.00  0.00    +0.000 A 
ATOM     26  C   UNL     1      52.430   5.076  19.438  0.00  0.00    +0.000 A 
ATOM     27  S   UNL     1      53.571   3.809  19.506  0.00  0.00    +0.000 S 
ATOM     28  C   UNL     1      52.596   2.806  18.537  0.00  0.00    +0.000 A 
ATOM     29  N   UNL     1      53.007   1.559  18.185  0.00  0.00    +0.000 NA
ATOM     30  C   UNL     1      52.185   0.923  17.417  0.00  0.00    +0.000 A 
ATOM     31  N   UNL     1      50.987   1.419  16.976  0.00  0.00    +0.000 N 
ATOM     32  C   UNL     1      50.511   2.656  17.341  0.00  0.00    +0.000 A 
ATOM     33  O   UNL     1      49.405   3.045  16.981  0.00  0.00    +0.000 OA
ATOM     34  C   UNL     1      51.407   3.421  18.187  0.00  0.00    +0.000 A 
ATOM     35  H   UNL     1      50.382   0.865  16.389  0.00  0.00    +0.000 HD
ENDBRANCH  22  25
ENDBRANCH  20  21
ENDBRANCH   4  20
TORSDOF 7
ENDMDL
MODEL 9
REMARK VINA RESULT:    -6.609      2.676      4.696
REMARK INTER + INTRA:         -10.520
REMARK INTER:                  -9.485
REMARK INTRA:                  -1.035
REMARK UNBOUND:                -1.207
REMARK  Name = 
REMARK  8 active torsions:
REMARK  status: ('A' for Active; 'I' for Inactive)
REMARK    1  A    between atoms: C_1  and  O_2
REMARK    2  A    between atoms: O_2  and  C_3
REMARK    3  A    between atoms: C_7  and  C_8
REMARK    4  A    between atoms: N_10  and  C_11
REMARK    5  A    between atoms: C_11  and  C_12
REMARK    6  A    between atoms: C_15  and  C_16
REMARK    7  A    between atoms: C_16  and  N_17
REMARK    8  A    between atoms: C_18  and  C_20
REMARK                            x       y       z     vdW  Elec       q    Type
REMARK                         _______ _______ _______ _____ _____    ______ ____
ROOT
ATOM      1  C   UNL     1      46.632   7.809  12.350  0.00  0.00    +0.000 A 
ATOM      2  C   UNL     1      47.797   7.118  11.987  0.00  0.00    +0.000 A 
ATOM      3  C   UNL     1      48.999   7.328  12.675  0.00  0.00    +0.000 A 
ATOM      4  C   UNL     1      49.058   8.219  13.755  0.00  0.00    +0.000 A 
ATOM      5  C   UNL     1      47.895   8.915  14.113  0.00  0.00    +0.000 A 
ATOM      6  C   UNL     1      46.693   8.705  13.426  0.00  0.00    +0.000 A 
ENDROOT
BRANCH   1   7
ATOM      7  C   UNL     1      45.337   7.570  11.614  0.00  0.00    +0.000 C 
BRANCH   7  10
ATOM      8  C   UNL     1      44.964   5.209  11.051  0.00  0.00    +0.000 C 
ATOM      9  O   UNL     1      44.494   4.948  12.150  0.00  0.00    +0.000 OA
ATOM     10  N   UNL     1      45.443   6.455  10.700  0.00  0.00    +0.000 N 
ATOM     11  H   UNL     1      45.619   6.664   9.726  0.00  0.00    +0.000 HD
BRANCH   8  16
ATOM     12  C   UNL     1      45.711   3.525   7.742  0.00  0.00    +0.000 A 
ATOM     13  C   UNL     1      45.164   2.257   7.946  0.00  0.00    +0.000 A 
ATOM     14  C   UNL     1      44.518   1.954   9.148  0.00  0.00    +0.000 A 
ATOM     15  C   UNL     1      44.430   2.909  10.160  0.00  0.00    +0.000 A 
ATOM     16  C   UNL     1      44.994   4.176   9.973  0.00  0.00    +0.000 A 
ATOM     17  C   UNL     1      45.607   4.488   8.751  0.00  0.00    +0.000 A 
BRANCH  12  19
ATOM     18  C   UNL     1      46.905   2.919   5.775  0.00  0.00    +0.000 C 
ATOM     19  O   UNL     1      46.373   3.936   6.618  0.00  0.00    +0.000 OA
ENDBRANCH  12  19
ENDBRANCH   8  16
ENDBRANCH   7  10
ENDBRANCH   1   7
BRANCH   4  20
ATOM     20  C   UNL     1      50.346   8.443  14.510  0.00  0.00    +0.000 C 
BRANCH  20  21
ATOM     21  N   UNL     1      50.139   8.441  15.936  0.00  0.00    +0.000 N 
ATOM     22  C   UNL     1      50.213   7.279  16.666  0.00  0.00    +0.000 C 
ATOM     23  O   UNL     1      50.497   6.202  16.150  0.00  0.00    +0.000 OA
ATOM     24  H   UNL     1      49.690   9.256  16.338  0.00  0.00    +0.000 HD
BRANCH  22  25
ATOM     25  C   UNL     1      50.003   7.406  18.114  0.00  0.00    +0.000 A 
ATOM     26  C   UNL     1      50.845   8.215  18.868  0.00  0.00    +0.000 A 
ATOM     27  S   UNL     1      50.419   8.297  20.518  0.00  0.00    +0.000 S 
ATOM     28  C   UNL     1      49.134   7.204  20.298  0.00  0.00    +0.000 A 
ATOM     29  N   UNL     1      48.358   6.815  21.345  0.00  0.00    +0.000 NA
ATOM     30  C   UNL     1      47.444   5.955  21.041  0.00  0.00    +0.000 A 
ATOM     31  N   UNL     1      47.231   5.454  19.784  0.00  0.00    +0.000 N 
ATOM     32  C   UNL     1      47.961   5.850  18.688  0.00  0.00    +0.000 A 
ATOM     33  O   UNL     1      47.703   5.431  17.565  0.00  0.00    +0.000 OA
ATOM     34  C   UNL     1      49.016   6.801  18.979  0.00  0.00    +0.000 A 
ATOM     35  H   UNL     1      46.489   4.793  19.608  0.00  0.00    +0.000 HD
ENDBRANCH  22  25
ENDBRANCH  20  21
ENDBRANCH   4  20
TORSDOF 7
ENDMDL
