MODEL 1
REMARK VINA RESULT:    -8.777      0.000      0.000
REMARK INTER + INTRA:         -12.259
REMARK INTER:                 -11.343
REMARK INTRA:                  -0.916
REMARK UNBOUND:                -0.916
REMARK  Name = 
REMARK  5 active torsions:
REMARK  status: ('A' for Active; 'I' for Inactive)
REMARK    1  A    between atoms: C_2  and  C_4
REMARK    2  A    between atoms: N_8  and  C_9
REMARK    3  A    between atoms: C_9  and  C_10
REMARK    4  A    between atoms: C_10  and  C_11
REMARK    5  A    between atoms: C_15  and  C_16
REMARK                            x       y       z     vdW  Elec       q    Type
REMARK                         _______ _______ _______ _____ _____    ______ ____
ROOT
ATOM      1  C   UNL     1      43.390   4.285  10.954  0.00  0.00    +0.000 C 
ENDROOT
BRANCH   1   6
ATOM      2  C   UNL     1      46.608   2.434   7.483  0.00  0.00    +0.000 A 
ATOM      3  C   UNL     1      45.827   1.759   8.414  0.00  0.00    +0.000 A 
ATOM      4  C   UNL     1      44.876   2.470   9.149  0.00  0.00    +0.000 A 
ATOM      5  C   UNL     1      44.739   3.842   8.958  0.00  0.00    +0.000 A 
ATOM      6  N   UNL     1      43.762   4.601   9.582  0.00  0.00    +0.000 N 
ATOM      7  N   UNL     1      45.518   4.512   8.084  0.00  0.00    +0.000 NA
ATOM      8  C   UNL     1      46.436   3.803   7.373  0.00  0.00    +0.000 A 
ATOM      9  H   UNL     1      43.975   5.577   9.386  0.00  0.00    +0.000 HD
BRANCH   2  11
ATOM     10  N   UNL     1      48.745   2.434   6.329  0.00  0.00    +0.000 N 
ATOM     11  C   UNL     1      47.595   1.749   6.622  0.00  0.00    +0.000 C 
ATOM     12  O   UNL     1      47.417   0.606   6.227  0.00  0.00    +0.000 OA
ATOM     13  H   UNL     1      49.461   1.917   5.838  0.00  0.00    +0.000 HD
ATOM     14  H   UNL     1      49.030   3.259   6.839  0.00  0.00    +0.000 HD
ENDBRANCH   2  11
ENDBRANCH   1   6
BRANCH   1  15
ATOM     15  C   UNL     1      43.516   5.526  11.846  0.00  0.00    +0.000 C 
BRANCH  15  16
ATOM     16  C   UNL     1      44.897   5.635  12.446  0.00  0.00    +0.000 A 
ATOM     17  C   UNL     1      45.354   4.663  13.343  0.00  0.00    +0.000 A 
ATOM     18  C   UNL     1      46.636   4.752  13.874  0.00  0.00    +0.000 A 
ATOM     19  C   UNL     1      47.479   5.804  13.505  0.00  0.00    +0.000 A 
ATOM     20  C   UNL     1      47.073   6.784  12.580  0.00  0.00    +0.000 A 
ATOM     21  C   UNL     1      45.763   6.678  12.070  0.00  0.00    +0.000 A 
BRANCH  20  22
ATOM     22  C   UNL     1      47.991   7.867  12.146  0.00  0.00    +0.000 A 
ATOM     23  C   UNL     1      49.304   7.590  11.715  0.00  0.00    +0.000 A 
ATOM     24  C   UNL     1      50.182   8.611  11.327  0.00  0.00    +0.000 A 
ATOM     25  C   UNL     1      49.767   9.939  11.346  0.00  0.00    +0.000 A 
ATOM     26  C   UNL     1      48.475  10.244  11.757  0.00  0.00    +0.000 A 
ATOM     27  C   UNL     1      47.610   9.223  12.155  0.00  0.00    +0.000 A 
ATOM     28  F   UNL     1      46.387   9.589  12.573  0.00  0.00    +0.000 F 
ENDBRANCH  20  22
ENDBRANCH  15  16
ENDBRANCH   1  15
TORSDOF 5
ENDMDL
MODEL 2
REMARK VINA RESULT:    -8.650      1.830      3.579
REMARK INTER + INTRA:         -12.094
REMARK INTER:                 -11.377
REMARK INTRA:                  -0.717
REMARK UNBOUND:                -0.916
REMARK  Name = 
REMARK  5 active torsions:
REMARK  status: ('A' for Active; 'I' for Inactive)
REMARK    1  A    between atoms: C_2  and  C_4
REMARK    2  A    between atoms: N_8  and  C_9
REMARK    3  A    between atoms: C_9  and  C_10
REMARK    4  A    between atoms: C_10  and  C_11
REMARK    5  A    between atoms: C_15  and  C_16
REMARK                            x       y       z     vdW  Elec       q    Type
REMARK                         _______ _______ _______ _____ _____    ______ ____
ROOT
ATOM      1  C   UNL     1      43.536   4.357  11.023  0.00  0.00    +0.000 C 
ENDROOT
BRANCH   1   6
ATOM      2  C   UNL     1      46.614   2.444   7.459  0.00  0.00    +0.000 A 
ATOM      3  C   UNL     1      45.851   1.784   8.415  0.00  0.00    +0.000 A 
ATOM      4  C   UNL     1      44.935   2.513   9.177  0.00  0.00    +0.000 A 
ATOM      5  C   UNL     1      44.816   3.887   8.987  0.00  0.00    +0.000 A 
ATOM      6  N   UNL     1      43.872   4.663   9.639  0.00  0.00    +0.000 N 
ATOM      7  N   UNL     1      45.580   4.541   8.088  0.00  0.00    +0.000 NA
ATOM      8  C   UNL     1      46.462   3.816   7.351  0.00  0.00    +0.000 A 
ATOM      9  H   UNL     1      44.096   5.636   9.435  0.00  0.00    +0.000 HD
BRANCH   2  11
ATOM     10  N   UNL     1      48.729   2.392   6.266  0.00  0.00    +0.000 N 
ATOM     11  C   UNL     1      47.563   1.741   6.570  0.00  0.00    +0.000 C 
ATOM     12  O   UNL     1      47.339   0.610   6.160  0.00  0.00    +0.000 OA
ATOM     13  H   UNL     1      49.419   1.859   5.755  0.00  0.00    +0.000 HD
ATOM     14  H   UNL     1      49.051   3.198   6.784  0.00  0.00    +0.000 HD
ENDBRANCH   2  11
ENDBRANCH   1   6
BRANCH   1  15
ATOM     15  C   UNL     1      43.700   5.600  11.905  0.00  0.00    +0.000 C 
BRANCH  15  16
ATOM     16  C   UNL     1      45.147   5.829  12.270  0.00  0.00    +0.000 A 
ATOM     17  C   UNL     1      45.958   6.635  11.464  0.00  0.00    +0.000 A 
ATOM     18  C   UNL     1      47.282   6.866  11.817  0.00  0.00    +0.000 A 
ATOM     19  C   UNL     1      47.808   6.304  12.984  0.00  0.00    +0.000 A 
ATOM     20  C   UNL     1      47.019   5.516  13.842  0.00  0.00    +0.000 A 
ATOM     21  C   UNL     1      45.684   5.285  13.451  0.00  0.00    +0.000 A 
BRANCH  20  22
ATOM     22  C   UNL     1      47.563   4.969  15.111  0.00  0.00    +0.000 A 
ATOM     23  C   UNL     1      47.333   3.632  15.494  0.00  0.00    +0.000 A 
ATOM     24  C   UNL     1      47.823   3.119  16.702  0.00  0.00    +0.000 A 
ATOM     25  C   UNL     1      48.572   3.924  17.556  0.00  0.00    +0.000 A 
ATOM     26  C   UNL     1      48.824   5.243  17.201  0.00  0.00    +0.000 A 
ATOM     27  C   UNL     1      48.321   5.752  16.003  0.00  0.00    +0.000 A 
ATOM     28  F   UNL     1      48.573   7.045  15.736  0.00  0.00    +0.000 F 
ENDBRANCH  20  22
ENDBRANCH  15  16
ENDBRANCH   1  15
TORSDOF 5
ENDMDL
MODEL 3
REMARK VINA RESULT:    -7.775      2.470      3.206
REMARK INTER + INTRA:         -10.964
REMARK INTER:                 -10.789
REMARK INTRA:                  -0.174
REMARK UNBOUND:                -0.916
REMARK  Name = 
REMARK  5 active torsions:
REMARK  status: ('A' for Active; 'I' for Inactive)
REMARK    1  A    between atoms: C_2  and  C_4
REMARK    2  A    between atoms: N_8  and  C_9
REMARK    3  A    between atoms: C_9  and  C_10
REMARK    4  A    between atoms: C_10  and  C_11
REMARK    5  A    between atoms: C_15  and  C_16
REMARK                            x       y       z     vdW  Elec       q    Type
REMARK                         _______ _______ _______ _____ _____    ______ ____
ROOT
ATOM      1  C   UNL     1      43.700   4.654  10.984  0.00  0.00    +0.000 C 
ENDROOT
BRANCH   1   6
ATOM      2  C   UNL     1      46.651   2.474   7.466  0.00  0.00    +0.000 A 
ATOM      3  C   UNL     1      45.837   1.884   8.427  0.00  0.00    +0.000 A 
ATOM      4  C   UNL     1      44.972   2.688   9.173  0.00  0.00    +0.000 A 
ATOM      5  C   UNL     1      44.953   4.064   8.963  0.00  0.00    +0.000 A 
ATOM      6  N   UNL     1      44.064   4.915   9.598  0.00  0.00    +0.000 N 
ATOM      7  N   UNL     1      45.766   4.649   8.059  0.00  0.00    +0.000 NA
ATOM      8  C   UNL     1      46.598   3.852   7.338  0.00  0.00    +0.000 A 
ATOM      9  H   UNL     1      44.357   5.866   9.381  0.00  0.00    +0.000 HD
BRANCH   2  11
ATOM     10  N   UNL     1      48.714   2.298   6.196  0.00  0.00    +0.000 N 
ATOM     11  C   UNL     1      47.551   1.692   6.592  0.00  0.00    +0.000 C 
ATOM     12  O   UNL     1      47.293   0.540   6.274  0.00  0.00    +0.000 OA
ATOM     13  H   UNL     1      49.374   1.718   5.698  0.00  0.00    +0.000 HD
ATOM     14  H   UNL     1      49.069   3.133   6.642  0.00  0.00    +0.000 HD
ENDBRANCH   2  11
ENDBRANCH   1   6
BRANCH   1  15
ATOM     15  C   UNL     1      44.946   4.658  11.877  0.00  0.00    +0.000 C 
BRANCH  15  16
ATOM     16  C   UNL     1      45.386   6.065  12.202  0.00  0.00    +0.000 A 
ATOM     17  C   UNL     1      46.501   6.284  13.019  0.00  0.00    +0.000 A 
ATOM     18  C   UNL     1      46.919   7.580  13.295  0.00  0.00    +0.000 A 
ATOM     19  C   UNL     1      46.237   8.671  12.749  0.00  0.00    +0.000 A 
ATOM     20  C   UNL     1      45.133   8.497  11.895  0.00  0.00    +0.000 A 
ATOM     21  C   UNL     1      44.720   7.172  11.645  0.00  0.00    +0.000 A 
BRANCH  20  22
ATOM     22  C   UNL     1      44.446   9.656  11.269  0.00  0.00    +0.000 A 
ATOM     23  C   UNL     1      45.061  10.922  11.193  0.00  0.00    +0.000 A 
ATOM     24  C   UNL     1      44.408  12.024  10.626  0.00  0.00    +0.000 A 
ATOM     25  C   UNL     1      43.124  11.888  10.104  0.00  0.00    +0.000 A 
ATOM     26  C   UNL     1      42.495  10.651  10.156  0.00  0.00    +0.000 A 
ATOM     27  C   UNL     1      43.146   9.560  10.735  0.00  0.00    +0.000 A 
ATOM     28  F   UNL     1      42.469   8.401  10.783  0.00  0.00    +0.000 F 
ENDBRANCH  20  22
ENDBRANCH  15  16
ENDBRANCH   1  15
TORSDOF 5
ENDMDL
MODEL 4
REMARK VINA RESULT:    -7.543      4.473      7.843
REMARK INTER + INTRA:         -10.664
REMARK INTER:                 -10.044
REMARK INTRA:                  -0.620
REMARK UNBOUND:                -0.916
REMARK  Name = 
REMARK  5 active torsions:
REMARK  status: ('A' for Active; 'I' for Inactive)
REMARK    1  A    between atoms: C_2  and  C_4
REMARK    2  A    between atoms: N_8  and  C_9
REMARK    3  A    between atoms: C_9  and  C_10
REMARK    4  A    between atoms: C_10  and  C_11
REMARK    5  A    between atoms: C_15  and  C_16
REMARK                            x       y       z     vdW  Elec       q    Type
REMARK                         _______ _______ _______ _____ _____    ______ ____
ROOT
ATOM      1  C   UNL     1      45.508   6.324  12.540  0.00  0.00    +0.000 C 
ENDROOT
BRANCH   1   6
ATOM      2  C   UNL     1      48.262   4.564  16.432  0.00  0.00    +0.000 A 
ATOM      3  C   UNL     1      47.186   3.979  15.774  0.00  0.00    +0.000 A 
ATOM      4  C   UNL     1      46.699   4.571  14.607  0.00  0.00    +0.000 A 
ATOM      5  C   UNL     1      47.276   5.746  14.134  0.00  0.00    +0.000 A 
ATOM      6  N   UNL     1      46.908   6.345  12.940  0.00  0.00    +0.000 N 
ATOM      7  N   UNL     1      48.296   6.341  14.787  0.00  0.00    +0.000 NA
ATOM      8  C   UNL     1      48.762   5.749  15.919  0.00  0.00    +0.000 A 
ATOM      9  H   UNL     1      47.373   7.251  12.907  0.00  0.00    +0.000 HD
BRANCH   2  11
ATOM     10  N   UNL     1      48.027   3.506  18.606  0.00  0.00    +0.000 N 
ATOM     11  C   UNL     1      48.878   3.972  17.638  0.00  0.00    +0.000 C 
ATOM     12  O   UNL     1      50.091   3.860  17.749  0.00  0.00    +0.000 OA
ATOM     13  H   UNL     1      48.453   3.000  19.371  0.00  0.00    +0.000 HD
ATOM     14  H   UNL     1      47.043   3.352  18.435  0.00  0.00    +0.000 HD
ENDBRANCH   2  11
ENDBRANCH   1   6
BRANCH   1  15
ATOM     15  C   UNL     1      45.384   6.307  11.012  0.00  0.00    +0.000 C 
BRANCH  15  16
ATOM     16  C   UNL     1      45.113   4.914  10.497  0.00  0.00    +0.000 A 
ATOM     17  C   UNL     1      44.145   4.112  11.110  0.00  0.00    +0.000 A 
ATOM     18  C   UNL     1      43.879   2.840  10.617  0.00  0.00    +0.000 A 
ATOM     19  C   UNL     1      44.569   2.360   9.500  0.00  0.00    +0.000 A 
ATOM     20  C   UNL     1      45.526   3.145   8.831  0.00  0.00    +0.000 A 
ATOM     21  C   UNL     1      45.786   4.425   9.363  0.00  0.00    +0.000 A 
BRANCH  20  22
ATOM     22  C   UNL     1      46.214   2.655   7.610  0.00  0.00    +0.000 A 
ATOM     23  C   UNL     1      46.485   3.512   6.525  0.00  0.00    +0.000 A 
ATOM     24  C   UNL     1      47.112   3.050   5.360  0.00  0.00    +0.000 A 
ATOM     25  C   UNL     1      47.501   1.717   5.254  0.00  0.00    +0.000 A 
ATOM     26  C   UNL     1      47.257   0.849   6.311  0.00  0.00    +0.000 A 
ATOM     27  C   UNL     1      46.619   1.314   7.463  0.00  0.00    +0.000 A 
ATOM     28  F   UNL     1      46.383   0.416   8.434  0.00  0.00    +0.000 F 
ENDBRANCH  20  22
ENDBRANCH  15  16
ENDBRANCH   1  15
TORSDOF 5
ENDMDL
MODEL 5
REMARK VINA RESULT:    -7.366      4.702      7.945
REMARK INTER + INTRA:         -10.435
REMARK INTER:                  -9.660
REMARK INTRA:                  -0.775
REMARK UNBOUND:                -0.916
REMARK  Name = 
REMARK  5 active torsions:
REMARK  status: ('A' for Active; 'I' for Inactive)
REMARK    1  A    between atoms: C_2  and  C_4
REMARK    2  A    between atoms: N_8  and  C_9
REMARK    3  A    between atoms: C_9  and  C_10
REMARK    4  A    between atoms: C_10  and  C_11
REMARK    5  A    between atoms: C_15  and  C_16
REMARK                            x       y       z     vdW  Elec       q    Type
REMARK                         _______ _______ _______ _____ _____    ______ ____
ROOT
ATOM      1  C   UNL     1      47.275   6.497  13.040  0.00  0.00    +0.000 C 
ENDROOT
BRANCH   1   6
ATOM      2  C   UNL     1      48.743   4.387  17.425  0.00  0.00    +0.000 A 
ATOM      3  C   UNL     1      48.893   5.695  16.979  0.00  0.00    +0.000 A 
ATOM      4  C   UNL     1      48.246   6.093  15.808  0.00  0.00    +0.000 A 
ATOM      5  C   UNL     1      47.482   5.175  15.093  0.00  0.00    +0.000 A 
ATOM      6  N   UNL     1      46.741   5.514  13.973  0.00  0.00    +0.000 N 
ATOM      7  N   UNL     1      47.363   3.894  15.498  0.00  0.00    +0.000 NA
ATOM      8  C   UNL     1      47.995   3.524  16.643  0.00  0.00    +0.000 A 
ATOM      9  H   UNL     1      46.404   4.643  13.566  0.00  0.00    +0.000 HD
BRANCH   2  11
ATOM     10  N   UNL     1      48.544   3.147  19.504  0.00  0.00    +0.000 N 
ATOM     11  C   UNL     1      49.344   3.899  18.684  0.00  0.00    +0.000 C 
ATOM     12  O   UNL     1      50.515   4.115  18.962  0.00  0.00    +0.000 OA
ATOM     13  H   UNL     1      48.995   2.722  20.303  0.00  0.00    +0.000 HD
ATOM     14  H   UNL     1      47.672   2.743  19.190  0.00  0.00    +0.000 HD
ENDBRANCH   2  11
ENDBRANCH   1   6
BRANCH   1  15
ATOM     15  C   UNL     1      46.138   7.226  12.316  0.00  0.00    +0.000 C 
BRANCH  15  16
ATOM     16  C   UNL     1      45.287   6.265  11.519  0.00  0.00    +0.000 A 
ATOM     17  C   UNL     1      43.899   6.244  11.693  0.00  0.00    +0.000 A 
ATOM     18  C   UNL     1      43.116   5.377  10.940  0.00  0.00    +0.000 A 
ATOM     19  C   UNL     1      43.709   4.531   9.997  0.00  0.00    +0.000 A 
ATOM     20  C   UNL     1      45.096   4.545   9.766  0.00  0.00    +0.000 A 
ATOM     21  C   UNL     1      45.868   5.422  10.555  0.00  0.00    +0.000 A 
BRANCH  20  22
ATOM     22  C   UNL     1      45.717   3.688   8.723  0.00  0.00    +0.000 A 
ATOM     23  C   UNL     1      46.387   4.246   7.616  0.00  0.00    +0.000 A 
ATOM     24  C   UNL     1      46.952   3.443   6.617  0.00  0.00    +0.000 A 
ATOM     25  C   UNL     1      46.877   2.055   6.704  0.00  0.00    +0.000 A 
ATOM     26  C   UNL     1      46.231   1.475   7.789  0.00  0.00    +0.000 A 
ATOM     27  C   UNL     1      45.658   2.282   8.773  0.00  0.00    +0.000 A 
ATOM     28  F   UNL     1      45.020   1.658   9.778  0.00  0.00    +0.000 F 
ENDBRANCH  20  22
ENDBRANCH  15  16
ENDBRANCH   1  15
TORSDOF 5
ENDMDL
MODEL 6
REMARK VINA RESULT:    -7.360      1.654      2.449
REMARK INTER + INTRA:         -10.427
REMARK INTER:                  -9.370
REMARK INTRA:                  -1.057
REMARK UNBOUND:                -0.916
REMARK  Name = 
REMARK  5 active torsions:
REMARK  status: ('A' for Active; 'I' for Inactive)
REMARK    1  A    between atoms: C_2  and  C_4
REMARK    2  A    between atoms: N_8  and  C_9
REMARK    3  A    between atoms: C_9  and  C_10
REMARK    4  A    between atoms: C_10  and  C_11
REMARK    5  A    between atoms: C_15  and  C_16
REMARK                            x       y       z     vdW  Elec       q    Type
REMARK                         _______ _______ _______ _____ _____    ______ ____
ROOT
ATOM      1  C   UNL     1      43.408   3.963  10.928  0.00  0.00    +0.000 C 
ENDROOT
BRANCH   1   6
ATOM      2  C   UNL     1      46.574   2.530   7.219  0.00  0.00    +0.000 A 
ATOM      3  C   UNL     1      46.206   3.809   7.624  0.00  0.00    +0.000 A 
ATOM      4  C   UNL     1      45.457   3.964   8.792  0.00  0.00    +0.000 A 
ATOM      5  C   UNL     1      45.069   2.842   9.519  0.00  0.00    +0.000 A 
ATOM      6  N   UNL     1      44.401   2.917  10.730  0.00  0.00    +0.000 N 
ATOM      7  N   UNL     1      45.388   1.596   9.112  0.00  0.00    +0.000 NA
ATOM      8  C   UNL     1      46.122   1.462   7.976  0.00  0.00    +0.000 A 
ATOM      9  H   UNL     1      44.112   1.970  10.969  0.00  0.00    +0.000 HD
BRANCH   2  11
ATOM     10  N   UNL     1      48.733   2.644   6.113  0.00  0.00    +0.000 N 
ATOM     11  C   UNL     1      47.415   2.280   6.030  0.00  0.00    +0.000 C 
ATOM     12  O   UNL     1      46.968   1.731   5.033  0.00  0.00    +0.000 OA
ATOM     13  H   UNL     1      49.325   2.365   5.343  0.00  0.00    +0.000 HD
ATOM     14  H   UNL     1      49.182   2.858   6.993  0.00  0.00    +0.000 HD
ENDBRANCH   2  11
ENDBRANCH   1   6
BRANCH   1  15
ATOM     15  C   UNL     1      43.621   4.662  12.275  0.00  0.00    +0.000 C 
BRANCH  15  16
ATOM     16  C   UNL     1      44.385   5.954  12.111  0.00  0.00    +0.000 A 
ATOM     17  C   UNL     1      43.785   7.053  11.487  0.00  0.00    +0.000 A 
ATOM     18  C   UNL     1      44.481   8.249  11.360  0.00  0.00    +0.000 A 
ATOM     19  C   UNL     1      45.780   8.364  11.865  0.00  0.00    +0.000 A 
ATOM     20  C   UNL     1      46.409   7.296  12.530  0.00  0.00    +0.000 A 
ATOM     21  C   UNL     1      45.685   6.090  12.630  0.00  0.00    +0.000 A 
BRANCH  20  22
ATOM     22  C   UNL     1      47.766   7.440  13.118  0.00  0.00    +0.000 A 
ATOM     23  C   UNL     1      47.968   7.428  14.512  0.00  0.00    +0.000 A 
ATOM     24  C   UNL     1      49.243   7.588  15.072  0.00  0.00    +0.000 A 
ATOM     25  C   UNL     1      50.355   7.750  14.251  0.00  0.00    +0.000 A 
ATOM     26  C   UNL     1      50.189   7.756  12.872  0.00  0.00    +0.000 A 
ATOM     27  C   UNL     1      48.915   7.610  12.321  0.00  0.00    +0.000 A 
ATOM     28  F   UNL     1      48.820   7.658  10.982  0.00  0.00    +0.000 F 
ENDBRANCH  20  22
ENDBRANCH  15  16
ENDBRANCH   1  15
TORSDOF 5
ENDMDL
MODEL 7
REMARK VINA RESULT:    -7.334      4.590      7.694
REMARK INTER + INTRA:         -10.394
REMARK INTER:                  -9.244
REMARK INTRA:                  -1.150
REMARK UNBOUND:                -0.916
REMARK  Name = 
REMARK  5 active torsions:
REMARK  status: ('A' for Active; 'I' for Inactive)
REMARK    1  A    between atoms: C_2  and  C_4
REMARK    2  A    between atoms: N_8  and  C_9
REMARK    3  A    between atoms: C_9  and  C_10
REMARK    4  A    between atoms: C_10  and  C_11
REMARK    5  A    between atoms: C_15  and  C_16
REMARK                            x       y       z     vdW  Elec       q    Type
REMARK                         _______ _______ _______ _____ _____    ______ ____
ROOT
ATOM      1  C   UNL     1      49.284   8.458  13.980  0.00  0.00    +0.000 C 
ENDROOT
BRANCH   1   6
ATOM      2  C   UNL     1      48.203   4.488  16.963  0.00  0.00    +0.000 A 
ATOM      3  C   UNL     1      47.511   4.983  15.864  0.00  0.00    +0.000 A 
ATOM      4  C   UNL     1      48.097   5.981  15.083  0.00  0.00    +0.000 A 
ATOM      5  C   UNL     1      49.349   6.482  15.427  0.00  0.00    +0.000 A 
ATOM      6  N   UNL     1      50.033   7.408  14.656  0.00  0.00    +0.000 N 
ATOM      7  N   UNL     1      50.012   6.035  16.514  0.00  0.00    +0.000 NA
ATOM      8  C   UNL     1      49.429   5.059  17.260  0.00  0.00    +0.000 A 
ATOM      9  H   UNL     1      50.840   7.709  15.200  0.00  0.00    +0.000 HD
BRANCH   2  11
ATOM     10  N   UNL     1      48.381   3.103  18.951  0.00  0.00    +0.000 N 
ATOM     11  C   UNL     1      47.684   3.391  17.807  0.00  0.00    +0.000 C 
ATOM     12  O   UNL     1      46.653   2.798  17.523  0.00  0.00    +0.000 OA
ATOM     13  H   UNL     1      47.956   2.434  19.578  0.00  0.00    +0.000 HD
ATOM     14  H   UNL     1      49.073   3.731  19.336  0.00  0.00    +0.000 HD
ENDBRANCH   2  11
ENDBRANCH   1   6
BRANCH   1  15
ATOM     15  C   UNL     1      49.058   8.095  12.507  0.00  0.00    +0.000 C 
BRANCH  15  16
ATOM     16  C   UNL     1      47.592   7.886  12.210  0.00  0.00    +0.000 A 
ATOM     17  C   UNL     1      46.672   8.911  12.454  0.00  0.00    +0.000 A 
ATOM     18  C   UNL     1      45.327   8.726  12.156  0.00  0.00    +0.000 A 
ATOM     19  C   UNL     1      44.889   7.520  11.600  0.00  0.00    +0.000 A 
ATOM     20  C   UNL     1      45.785   6.476  11.306  0.00  0.00    +0.000 A 
ATOM     21  C   UNL     1      47.141   6.686  11.634  0.00  0.00    +0.000 A 
BRANCH  20  22
ATOM     22  C   UNL     1      45.327   5.219  10.661  0.00  0.00    +0.000 A 
ATOM     23  C   UNL     1      45.500   4.996   9.280  0.00  0.00    +0.000 A 
ATOM     24  C   UNL     1      45.047   3.822   8.662  0.00  0.00    +0.000 A 
ATOM     25  C   UNL     1      44.421   2.830   9.412  0.00  0.00    +0.000 A 
ATOM     26  C   UNL     1      44.244   3.017  10.777  0.00  0.00    +0.000 A 
ATOM     27  C   UNL     1      44.685   4.195  11.384  0.00  0.00    +0.000 A 
ATOM     28  F   UNL     1      44.454   4.326  12.701  0.00  0.00    +0.000 F 
ENDBRANCH  20  22
ENDBRANCH  15  16
ENDBRANCH   1  15
TORSDOF 5
ENDMDL
MODEL 8
REMARK VINA RESULT:    -7.118      5.278      8.002
REMARK INTER + INTRA:         -10.114
REMARK INTER:                  -9.158
REMARK INTRA:                  -0.957
REMARK UNBOUND:                -0.916
REMARK  Name = 
REMARK  5 active torsions:
REMARK  status: ('A' for Active; 'I' for Inactive)
REMARK    1  A    between atoms: C_2  and  C_4
REMARK    2  A    between atoms: N_8  and  C_9
REMARK    3  A    between atoms: C_9  and  C_10
REMARK    4  A    between atoms: C_10  and  C_11
REMARK    5  A    between atoms: C_15  and  C_16
REMARK                            x       y       z     vdW  Elec       q    Type
REMARK                         _______ _______ _______ _____ _____    ______ ____
ROOT
ATOM      1  C   UNL     1      48.823   7.596  15.816  0.00  0.00    +0.000 C 
ENDROOT
BRANCH   1   6
ATOM      2  C   UNL     1      50.822   3.209  17.427  0.00  0.00    +0.000 A 
ATOM      3  C   UNL     1      51.382   4.481  17.407  0.00  0.00    +0.000 A 
ATOM      4  C   UNL     1      50.575   5.575  17.086  0.00  0.00    +0.000 A 
ATOM      5  C   UNL     1      49.234   5.376  16.768  0.00  0.00    +0.000 A 
ATOM      6  N   UNL     1      48.350   6.415  16.525  0.00  0.00    +0.000 N 
ATOM      7  N   UNL     1      48.692   4.141  16.748  0.00  0.00    +0.000 NA
ATOM      8  C   UNL     1      49.490   3.088  17.069  0.00  0.00    +0.000 A 
ATOM      9  H   UNL     1      47.489   5.996  16.179  0.00  0.00    +0.000 HD
BRANCH   2  11
ATOM     10  N   UNL     1      52.664   2.193  18.641  0.00  0.00    +0.000 N 
ATOM     11  C   UNL     1      51.588   2.006  17.813  0.00  0.00    +0.000 C 
ATOM     12  O   UNL     1      51.252   0.888  17.449  0.00  0.00    +0.000 OA
ATOM     13  H   UNL     1      53.110   1.356  18.992  0.00  0.00    +0.000 HD
ATOM     14  H   UNL     1      52.811   3.050  19.155  0.00  0.00    +0.000 HD
ENDBRANCH   2  11
ENDBRANCH   1   6
BRANCH   1  15
ATOM     15  C   UNL     1      48.974   7.301  14.319  0.00  0.00    +0.000 C 
BRANCH  15  16
ATOM     16  C   UNL     1      47.655   7.434  13.596  0.00  0.00    +0.000 A 
ATOM     17  C   UNL     1      46.965   8.651  13.608  0.00  0.00    +0.000 A 
ATOM     18  C   UNL     1      45.764   8.779  12.920  0.00  0.00    +0.000 A 
ATOM     19  C   UNL     1      45.246   7.697  12.203  0.00  0.00    +0.000 A 
ATOM     20  C   UNL     1      45.924   6.465  12.134  0.00  0.00    +0.000 A 
ATOM     21  C   UNL     1      47.131   6.360  12.855  0.00  0.00    +0.000 A 
BRANCH  20  22
ATOM     22  C   UNL     1      45.401   5.336  11.324  0.00  0.00    +0.000 A 
ATOM     23  C   UNL     1      45.492   5.336   9.918  0.00  0.00    +0.000 A 
ATOM     24  C   UNL     1      44.978   4.285   9.147  0.00  0.00    +0.000 A 
ATOM     25  C   UNL     1      44.370   3.195   9.763  0.00  0.00    +0.000 A 
ATOM     26  C   UNL     1      44.273   3.161  11.148  0.00  0.00    +0.000 A 
ATOM     27  C   UNL     1      44.775   4.218  11.909  0.00  0.00    +0.000 A 
ATOM     28  F   UNL     1      44.619   4.139  13.241  0.00  0.00    +0.000 F 
ENDBRANCH  20  22
ENDBRANCH  15  16
ENDBRANCH   1  15
TORSDOF 5
ENDMDL
MODEL 9
REMARK VINA RESULT:    -6.997      4.038      6.419
REMARK INTER + INTRA:          -9.958
REMARK INTER:                  -8.556
REMARK INTRA:                  -1.403
REMARK UNBOUND:                -0.916
REMARK  Name = 
REMARK  5 active torsions:
REMARK  status: ('A' for Active; 'I' for Inactive)
REMARK    1  A    between atoms: C_2  and  C_4
REMARK    2  A    between atoms: N_8  and  C_9
REMARK    3  A    between atoms: C_9  and  C_10
REMARK    4  A    between atoms: C_10  and  C_11
REMARK    5  A    between atoms: C_15  and  C_16
REMARK                            x       y       z     vdW  Elec       q    Type
REMARK                         _______ _______ _______ _____ _____    ______ ____
ROOT
ATOM      1  C   UNL     1      48.082   8.273  13.313  0.00  0.00    +0.000 C 
ENDROOT
BRANCH   1   6
ATOM      2  C   UNL     1      44.705   4.678  12.088  0.00  0.00    +0.000 A 
ATOM      3  C   UNL     1      45.798   4.610  12.945  0.00  0.00    +0.000 A 
ATOM      4  C   UNL     1      46.483   5.783  13.269  0.00  0.00    +0.000 A 
ATOM      5  C   UNL     1      46.080   6.995  12.715  0.00  0.00    +0.000 A 
ATOM      6  N   UNL     1      46.651   8.210  13.055  0.00  0.00    +0.000 N 
ATOM      7  N   UNL     1      45.044   7.064  11.854  0.00  0.00    +0.000 NA
ATOM      8  C   UNL     1      44.385   5.914  11.552  0.00  0.00    +0.000 A 
ATOM      9  H   UNL     1      46.278   8.904  12.408  0.00  0.00    +0.000 HD
BRANCH   2  11
ATOM     10  N   UNL     1      43.894   2.453  12.628  0.00  0.00    +0.000 N 
ATOM     11  C   UNL     1      43.889   3.496  11.739  0.00  0.00    +0.000 C 
ATOM     12  O   UNL     1      43.204   3.467  10.727  0.00  0.00    +0.000 OA
ATOM     13  H   UNL     1      43.245   1.701  12.439  0.00  0.00    +0.000 HD
ATOM     14  H   UNL     1      44.236   2.548  13.574  0.00  0.00    +0.000 HD
ENDBRANCH   2  11
ENDBRANCH   1   6
BRANCH   1  15
ATOM     15  C   UNL     1      48.381   9.247  14.459  0.00  0.00    +0.000 C 
BRANCH  15  16
ATOM     16  C   UNL     1      48.447   8.531  15.787  0.00  0.00    +0.000 A 
ATOM     17  C   UNL     1      48.113   9.204  16.967  0.00  0.00    +0.000 A 
ATOM     18  C   UNL     1      48.149   8.535  18.185  0.00  0.00    +0.000 A 
ATOM     19  C   UNL     1      48.507   7.185  18.236  0.00  0.00    +0.000 A 
ATOM     20  C   UNL     1      48.816   6.460  17.071  0.00  0.00    +0.000 A 
ATOM     21  C   UNL     1      48.787   7.168  15.851  0.00  0.00    +0.000 A 
BRANCH  20  22
ATOM     22  C   UNL     1      49.138   5.011  17.121  0.00  0.00    +0.000 A 
ATOM     23  C   UNL     1      50.405   4.554  17.537  0.00  0.00    +0.000 A 
ATOM     24  C   UNL     1      50.722   3.189  17.563  0.00  0.00    +0.000 A 
ATOM     25  C   UNL     1      49.775   2.240  17.188  0.00  0.00    +0.000 A 
ATOM     26  C   UNL     1      48.514   2.659  16.782  0.00  0.00    +0.000 A 
ATOM     27  C   UNL     1      48.210   4.021  16.745  0.00  0.00    +0.000 A 
ATOM     28  F   UNL     1      46.984   4.361  16.311  0.00  0.00    +0.000 F 
ENDBRANCH  20  22
ENDBRANCH  15  16
ENDBRANCH   1  15
TORSDOF 5
ENDMDL
