MODEL 1
REMARK VINA RESULT:    -7.090      0.000      0.000
REMARK INTER + INTRA:          -9.478
REMARK INTER:                  -8.748
REMARK INTRA:                  -0.730
REMARK UNBOUND:                -0.730
REMARK  Name = 
REMARK  4 active torsions:
REMARK  status: ('A' for Active; 'I' for Inactive)
REMARK    1  A    between atoms: C_2  and  C_4
REMARK    2  A    between atoms: C_8  and  C_9
REMARK    3  A    between atoms: C_10  and  C_11
REMARK    4  A    between atoms: C_15  and  C_16
REMARK                            x       y       z     vdW  Elec       q    Type
REMARK                         _______ _______ _______ _____ _____    ______ ____
ROOT
ATOM      1  C   UNL     1      46.927   5.439  14.020  0.00  0.00    +0.000 C 
ATOM      2  C   UNL     1      45.856   4.641  13.874  0.00  0.00    +0.000 C 
ENDROOT
BRANCH   1   7
ATOM      3  C   UNL     1      48.850   4.401  17.116  0.00  0.00    +0.000 A 
ATOM      4  C   UNL     1      49.535   5.588  17.333  0.00  0.00    +0.000 A 
ATOM      5  N   UNL     1      49.425   6.676  16.534  0.00  0.00    +0.000 NA
ATOM      6  C   UNL     1      48.566   6.576  15.491  0.00  0.00    +0.000 A 
ATOM      7  C   UNL     1      47.800   5.446  15.202  0.00  0.00    +0.000 A 
ATOM      8  C   UNL     1      47.967   4.333  16.034  0.00  0.00    +0.000 A 
BRANCH   3  10
ATOM      9  N   UNL     1      48.320   3.238  19.185  0.00  0.00    +0.000 N 
ATOM     10  C   UNL     1      49.069   3.276  18.042  0.00  0.00    +0.000 C 
ATOM     11  O   UNL     1      49.869   2.387  17.787  0.00  0.00    +0.000 OA
ATOM     12  H   UNL     1      48.409   2.402  19.750  0.00  0.00    +0.000 HD
ATOM     13  H   UNL     1      47.484   3.791  19.305  0.00  0.00    +0.000 HD
ENDBRANCH   3  10
ENDBRANCH   1   7
BRANCH   2  14
ATOM     14  C   UNL     1      45.011   4.571  12.667  0.00  0.00    +0.000 A 
ATOM     15  C   UNL     1      43.795   5.255  12.563  0.00  0.00    +0.000 A 
ATOM     16  C   UNL     1      43.067   5.228  11.375  0.00  0.00    +0.000 A 
ATOM     17  C   UNL     1      43.567   4.545  10.266  0.00  0.00    +0.000 A 
ATOM     18  C   UNL     1      44.810   3.892  10.308  0.00  0.00    +0.000 A 
ATOM     19  C   UNL     1      45.501   3.894  11.536  0.00  0.00    +0.000 A 
BRANCH  18  20
ATOM     20  C   UNL     1      45.413   3.315   9.084  0.00  0.00    +0.000 A 
ATOM     21  C   UNL     1      45.862   4.155   8.046  0.00  0.00    +0.000 A 
ATOM     22  C   UNL     1      46.495   3.647   6.909  0.00  0.00    +0.000 A 
ATOM     23  C   UNL     1      46.702   2.278   6.786  0.00  0.00    +0.000 A 
ATOM     24  C   UNL     1      46.263   1.421   7.792  0.00  0.00    +0.000 A 
ATOM     25  C   UNL     1      45.619   1.934   8.925  0.00  0.00    +0.000 A 
ENDBRANCH  18  20
ENDBRANCH   2  14
TORSDOF 4
ENDMDL
MODEL 2
REMARK VINA RESULT:    -7.052      3.955      9.266
REMARK INTER + INTRA:          -9.432
REMARK INTER:                  -8.677
REMARK INTRA:                  -0.754
REMARK UNBOUND:                -0.730
REMARK  Name = 
REMARK  4 active torsions:
REMARK  status: ('A' for Active; 'I' for Inactive)
REMARK    1  A    between atoms: C_2  and  C_4
REMARK    2  A    between atoms: C_8  and  C_9
REMARK    3  A    between atoms: C_10  and  C_11
REMARK    4  A    between atoms: C_15  and  C_16
REMARK                            x       y       z     vdW  Elec       q    Type
REMARK                         _______ _______ _______ _____ _____    ______ ____
ROOT
ATOM      1  C   UNL     1      46.976   4.923  14.364  0.00  0.00    +0.000 C 
ATOM      2  C   UNL     1      47.044   3.882  15.210  0.00  0.00    +0.000 C 
ENDROOT
BRANCH   1   7
ATOM      3  C   UNL     1      44.836   3.879  11.415  0.00  0.00    +0.000 A 
ATOM      4  C   UNL     1      45.009   5.011  10.632  0.00  0.00    +0.000 A 
ATOM      5  N   UNL     1      45.749   6.081  11.010  0.00  0.00    +0.000 NA
ATOM      6  C   UNL     1      46.366   5.995  12.213  0.00  0.00    +0.000 A 
ATOM      7  C   UNL     1      46.292   4.891  13.063  0.00  0.00    +0.000 A 
ATOM      8  C   UNL     1      45.492   3.820  12.648  0.00  0.00    +0.000 A 
BRANCH   3  10
ATOM      9  N   UNL     1      44.437   2.085   9.822  0.00  0.00    +0.000 N 
ATOM     10  C   UNL     1      43.988   2.787  10.905  0.00  0.00    +0.000 C 
ATOM     11  O   UNL     1      42.933   2.493  11.449  0.00  0.00    +0.000 OA
ATOM     12  H   UNL     1      43.892   1.273   9.558  0.00  0.00    +0.000 HD
ATOM     13  H   UNL     1      45.398   2.119   9.514  0.00  0.00    +0.000 HD
ENDBRANCH   3  10
ENDBRANCH   1   7
BRANCH   2  14
ATOM     14  C   UNL     1      47.664   3.919  16.547  0.00  0.00    +0.000 A 
ATOM     15  C   UNL     1      48.689   3.042  16.923  0.00  0.00    +0.000 A 
ATOM     16  C   UNL     1      49.303   3.163  18.167  0.00  0.00    +0.000 A 
ATOM     17  C   UNL     1      48.924   4.187  19.036  0.00  0.00    +0.000 A 
ATOM     18  C   UNL     1      47.941   5.124  18.678  0.00  0.00    +0.000 A 
ATOM     19  C   UNL     1      47.302   4.948  17.434  0.00  0.00    +0.000 A 
BRANCH  18  20
ATOM     20  C   UNL     1      47.662   6.305  19.529  0.00  0.00    +0.000 A 
ATOM     21  C   UNL     1      47.516   6.160  20.923  0.00  0.00    +0.000 A 
ATOM     22  C   UNL     1      47.320   7.261  21.760  0.00  0.00    +0.000 A 
ATOM     23  C   UNL     1      47.272   8.541  21.220  0.00  0.00    +0.000 A 
ATOM     24  C   UNL     1      47.404   8.716  19.845  0.00  0.00    +0.000 A 
ATOM     25  C   UNL     1      47.590   7.608  19.008  0.00  0.00    +0.000 A 
ENDBRANCH  18  20
ENDBRANCH   2  14
TORSDOF 4
ENDMDL
MODEL 3
REMARK VINA RESULT:    -6.910      3.777      8.539
REMARK INTER + INTRA:          -9.256
REMARK INTER:                  -8.550
REMARK INTRA:                  -0.706
REMARK UNBOUND:                -0.730
REMARK  Name = 
REMARK  4 active torsions:
REMARK  status: ('A' for Active; 'I' for Inactive)
REMARK    1  A    between atoms: C_2  and  C_4
REMARK    2  A    between atoms: C_8  and  C_9
REMARK    3  A    between atoms: C_10  and  C_11
REMARK    4  A    between atoms: C_15  and  C_16
REMARK                            x       y       z     vdW  Elec       q    Type
REMARK                         _______ _______ _______ _____ _____    ______ ____
ROOT
ATOM      1  C   UNL     1      47.111   5.078  14.204  0.00  0.00    +0.000 C 
ATOM      2  C   UNL     1      46.942   4.256  15.253  0.00  0.00    +0.000 C 
ENDROOT
BRANCH   1   7
ATOM      3  C   UNL     1      44.762   3.985  11.438  0.00  0.00    +0.000 A 
ATOM      4  C   UNL     1      44.716   5.178  10.732  0.00  0.00    +0.000 A 
ATOM      5  N   UNL     1      45.376   6.301  11.108  0.00  0.00    +0.000 NA
ATOM      6  C   UNL     1      46.137   6.209  12.225  0.00  0.00    +0.000 A 
ATOM      7  C   UNL     1      46.285   5.051  12.989  0.00  0.00    +0.000 A 
ATOM      8  C   UNL     1      45.562   3.923  12.583  0.00  0.00    +0.000 A 
BRANCH   3  10
ATOM      9  N   UNL     1      44.477   2.148   9.870  0.00  0.00    +0.000 N 
ATOM     10  C   UNL     1      43.982   2.837  10.942  0.00  0.00    +0.000 C 
ATOM     11  O   UNL     1      42.944   2.488  11.487  0.00  0.00    +0.000 OA
ATOM     12  H   UNL     1      43.983   1.301   9.617  0.00  0.00    +0.000 HD
ATOM     13  H   UNL     1      45.435   2.235   9.565  0.00  0.00    +0.000 HD
ENDBRANCH   3  10
ENDBRANCH   1   7
BRANCH   2  14
ATOM     14  C   UNL     1      47.716   4.317  16.507  0.00  0.00    +0.000 A 
ATOM     15  C   UNL     1      47.170   4.798  17.703  0.00  0.00    +0.000 A 
ATOM     16  C   UNL     1      47.908   4.763  18.883  0.00  0.00    +0.000 A 
ATOM     17  C   UNL     1      49.189   4.212  18.889  0.00  0.00    +0.000 A 
ATOM     18  C   UNL     1      49.756   3.665  17.725  0.00  0.00    +0.000 A 
ATOM     19  C   UNL     1      49.006   3.758  16.535  0.00  0.00    +0.000 A 
BRANCH  18  20
ATOM     20  C   UNL     1      51.042   2.931  17.771  0.00  0.00    +0.000 A 
ATOM     21  C   UNL     1      52.200   3.553  18.279  0.00  0.00    +0.000 A 
ATOM     22  C   UNL     1      53.411   2.867  18.398  0.00  0.00    +0.000 A 
ATOM     23  C   UNL     1      53.491   1.533  18.018  0.00  0.00    +0.000 A 
ATOM     24  C   UNL     1      52.366   0.893  17.505  0.00  0.00    +0.000 A 
ATOM     25  C   UNL     1      51.157   1.587  17.377  0.00  0.00    +0.000 A 
ENDBRANCH  18  20
ENDBRANCH   2  14
TORSDOF 4
ENDMDL
MODEL 4
REMARK VINA RESULT:    -6.428      4.106      4.277
REMARK INTER + INTRA:          -8.661
REMARK INTER:                  -7.954
REMARK INTRA:                  -0.707
REMARK UNBOUND:                -0.730
REMARK  Name = 
REMARK  4 active torsions:
REMARK  status: ('A' for Active; 'I' for Inactive)
REMARK    1  A    between atoms: C_2  and  C_4
REMARK    2  A    between atoms: C_8  and  C_9
REMARK    3  A    between atoms: C_10  and  C_11
REMARK    4  A    between atoms: C_15  and  C_16
REMARK                            x       y       z     vdW  Elec       q    Type
REMARK                         _______ _______ _______ _____ _____    ______ ____
ROOT
ATOM      1  C   UNL     1      47.576   7.245  11.926  0.00  0.00    +0.000 C 
ATOM      2  C   UNL     1      46.237   7.276  12.040  0.00  0.00    +0.000 C 
ENDROOT
BRANCH   1   7
ATOM      3  C   UNL     1      50.679   9.093  13.074  0.00  0.00    +0.000 A 
ATOM      4  C   UNL     1      50.056  10.102  13.795  0.00  0.00    +0.000 A 
ATOM      5  N   UNL     1      48.711  10.223  13.909  0.00  0.00    +0.000 NA
ATOM      6  C   UNL     1      47.964   9.273  13.297  0.00  0.00    +0.000 A 
ATOM      7  C   UNL     1      48.486   8.197  12.579  0.00  0.00    +0.000 A 
ATOM      8  C   UNL     1      49.878   8.125  12.460  0.00  0.00    +0.000 A 
BRANCH   3  10
ATOM      9  N   UNL     1      52.800   7.989  13.515  0.00  0.00    +0.000 N 
ATOM     10  C   UNL     1      52.151   9.078  13.003  0.00  0.00    +0.000 C 
ATOM     11  O   UNL     1      52.773   9.989  12.477  0.00  0.00    +0.000 OA
ATOM     12  H   UNL     1      53.800   7.951  13.357  0.00  0.00    +0.000 HD
ATOM     13  H   UNL     1      52.329   7.119  13.713  0.00  0.00    +0.000 HD
ENDBRANCH   3  10
ENDBRANCH   1   7
BRANCH   2  14
ATOM     14  C   UNL     1      45.315   6.289  11.449  0.00  0.00    +0.000 A 
ATOM     15  C   UNL     1      43.928   6.364  11.617  0.00  0.00    +0.000 A 
ATOM     16  C   UNL     1      43.087   5.458  10.976  0.00  0.00    +0.000 A 
ATOM     17  C   UNL     1      43.623   4.487  10.129  0.00  0.00    +0.000 A 
ATOM     18  C   UNL     1      45.005   4.410   9.886  0.00  0.00    +0.000 A 
ATOM     19  C   UNL     1      45.836   5.308  10.586  0.00  0.00    +0.000 A 
BRANCH  18  20
ATOM     20  C   UNL     1      45.552   3.492   8.860  0.00  0.00    +0.000 A 
ATOM     21  C   UNL     1      46.165   4.005   7.699  0.00  0.00    +0.000 A 
ATOM     22  C   UNL     1      46.750   3.168   6.746  0.00  0.00    +0.000 A 
ATOM     23  C   UNL     1      46.741   1.791   6.935  0.00  0.00    +0.000 A 
ATOM     24  C   UNL     1      46.136   1.254   8.067  0.00  0.00    +0.000 A 
ATOM     25  C   UNL     1      45.541   2.096   9.016  0.00  0.00    +0.000 A 
ENDBRANCH  18  20
ENDBRANCH   2  14
TORSDOF 4
ENDMDL
MODEL 5
REMARK VINA RESULT:    -6.366      3.797      4.020
REMARK INTER + INTRA:          -8.585
REMARK INTER:                  -7.843
REMARK INTRA:                  -0.742
REMARK UNBOUND:                -0.730
REMARK  Name = 
REMARK  4 active torsions:
REMARK  status: ('A' for Active; 'I' for Inactive)
REMARK    1  A    between atoms: C_2  and  C_4
REMARK    2  A    between atoms: C_8  and  C_9
REMARK    3  A    between atoms: C_10  and  C_11
REMARK    4  A    between atoms: C_15  and  C_16
REMARK                            x       y       z     vdW  Elec       q    Type
REMARK                         _______ _______ _______ _____ _____    ______ ____
ROOT
ATOM      1  C   UNL     1      47.633   7.216  12.193  0.00  0.00    +0.000 C 
ATOM      2  C   UNL     1      46.304   7.387  12.105  0.00  0.00    +0.000 C 
ENDROOT
BRANCH   1   7
ATOM      3  C   UNL     1      49.143   9.762  14.560  0.00  0.00    +0.000 A 
ATOM      4  C   UNL     1      50.404   9.844  13.988  0.00  0.00    +0.000 A 
ATOM      5  N   UNL     1      50.790   9.117  12.912  0.00  0.00    +0.000 NA
ATOM      6  C   UNL     1      49.857   8.298  12.370  0.00  0.00    +0.000 A 
ATOM      7  C   UNL     1      48.550   8.166  12.840  0.00  0.00    +0.000 A 
ATOM      8  C   UNL     1      48.202   8.911  13.972  0.00  0.00    +0.000 A 
BRANCH   3  10
ATOM      9  N   UNL     1      48.072  10.034  16.727  0.00  0.00    +0.000 N 
ATOM     10  C   UNL     1      48.846  10.587  15.745  0.00  0.00    +0.000 C 
ATOM     11  O   UNL     1      49.302  11.715  15.866  0.00  0.00    +0.000 OA
ATOM     12  H   UNL     1      47.973  10.577  17.576  0.00  0.00    +0.000 HD
ATOM     13  H   UNL     1      47.901   9.041  16.789  0.00  0.00    +0.000 HD
ENDBRANCH   3  10
ENDBRANCH   1   7
BRANCH   2  14
ATOM     14  C   UNL     1      45.363   6.413  11.522  0.00  0.00    +0.000 A 
ATOM     15  C   UNL     1      43.979   6.502  11.709  0.00  0.00    +0.000 A 
ATOM     16  C   UNL     1      43.119   5.608  11.075  0.00  0.00    +0.000 A 
ATOM     17  C   UNL     1      43.633   4.636  10.216  0.00  0.00    +0.000 A 
ATOM     18  C   UNL     1      45.010   4.545   9.955  0.00  0.00    +0.000 A 
ATOM     19  C   UNL     1      45.861   5.430  10.648  0.00  0.00    +0.000 A 
BRANCH  18  20
ATOM     20  C   UNL     1      45.534   3.626   8.917  0.00  0.00    +0.000 A 
ATOM     21  C   UNL     1      46.130   4.137   7.747  0.00  0.00    +0.000 A 
ATOM     22  C   UNL     1      46.692   3.299   6.781  0.00  0.00    +0.000 A 
ATOM     23  C   UNL     1      46.678   1.922   6.967  0.00  0.00    +0.000 A 
ATOM     24  C   UNL     1      46.090   1.386   8.109  0.00  0.00    +0.000 A 
ATOM     25  C   UNL     1      45.517   2.229   9.070  0.00  0.00    +0.000 A 
ENDBRANCH  18  20
ENDBRANCH   2  14
TORSDOF 4
ENDMDL
MODEL 6
REMARK VINA RESULT:    -6.332      5.421      7.803
REMARK INTER + INTRA:          -8.543
REMARK INTER:                  -7.845
REMARK INTRA:                  -0.698
REMARK UNBOUND:                -0.730
REMARK  Name = 
REMARK  4 active torsions:
REMARK  status: ('A' for Active; 'I' for Inactive)
REMARK    1  A    between atoms: C_2  and  C_4
REMARK    2  A    between atoms: C_8  and  C_9
REMARK    3  A    between atoms: C_10  and  C_11
REMARK    4  A    between atoms: C_15  and  C_16
REMARK                            x       y       z     vdW  Elec       q    Type
REMARK                         _______ _______ _______ _____ _____    ______ ____
ROOT
ATOM      1  C   UNL     1      44.655   8.043  11.432  0.00  0.00    +0.000 C 
ATOM      2  C   UNL     1      44.591   9.384  11.425  0.00  0.00    +0.000 C 
ENDROOT
BRANCH   1   7
ATOM      3  C   UNL     1      46.500   5.192  13.117  0.00  0.00    +0.000 A 
ATOM      4  C   UNL     1      47.510   5.933  13.714  0.00  0.00    +0.000 A 
ATOM      5  N   UNL     1      47.635   7.276  13.584  0.00  0.00    +0.000 NA
ATOM      6  C   UNL     1      46.685   7.903  12.849  0.00  0.00    +0.000 A 
ATOM      7  C   UNL     1      45.606   7.263  12.238  0.00  0.00    +0.000 A 
ATOM      8  C   UNL     1      45.532   5.872  12.370  0.00  0.00    +0.000 A 
BRANCH   3  10
ATOM      9  N   UNL     1      45.552   3.009  12.617  0.00  0.00    +0.000 N 
ATOM     10  C   UNL     1      46.481   3.732  13.312  0.00  0.00    +0.000 C 
ATOM     11  O   UNL     1      47.288   3.176  14.045  0.00  0.00    +0.000 OA
ATOM     12  H   UNL     1      45.630   2.001  12.683  0.00  0.00    +0.000 HD
ATOM     13  H   UNL     1      45.056   3.385  11.823  0.00  0.00    +0.000 HD
ENDBRANCH   3  10
ENDBRANCH   1   7
BRANCH   2  14
ATOM     14  C   UNL     1      43.599  10.179  10.678  0.00  0.00    +0.000 A 
ATOM     15  C   UNL     1      43.835  10.646   9.380  0.00  0.00    +0.000 A 
ATOM     16  C   UNL     1      42.840  11.324   8.679  0.00  0.00    +0.000 A 
ATOM     17  C   UNL     1      41.584  11.511   9.256  0.00  0.00    +0.000 A 
ATOM     18  C   UNL     1      41.284  11.010  10.534  0.00  0.00    +0.000 A 
ATOM     19  C   UNL     1      42.324  10.372  11.240  0.00  0.00    +0.000 A 
BRANCH  18  20
ATOM     20  C   UNL     1      39.904  11.061  11.073  0.00  0.00    +0.000 A 
ATOM     21  C   UNL     1      38.825  10.565  10.315  0.00  0.00    +0.000 A 
ATOM     22  C   UNL     1      37.522  10.538  10.820  0.00  0.00    +0.000 A 
ATOM     23  C   UNL     1      37.269  11.002  12.105  0.00  0.00    +0.000 A 
ATOM     24  C   UNL     1      38.314  11.506  12.876  0.00  0.00    +0.000 A 
ATOM     25  C   UNL     1      39.616  11.542  12.361  0.00  0.00    +0.000 A 
ENDBRANCH  18  20
ENDBRANCH   2  14
TORSDOF 4
ENDMDL
MODEL 7
REMARK VINA RESULT:    -6.262      4.169      5.303
REMARK INTER + INTRA:          -8.457
REMARK INTER:                  -7.745
REMARK INTRA:                  -0.712
REMARK UNBOUND:                -0.730
REMARK  Name = 
REMARK  4 active torsions:
REMARK  status: ('A' for Active; 'I' for Inactive)
REMARK    1  A    between atoms: C_2  and  C_4
REMARK    2  A    between atoms: C_8  and  C_9
REMARK    3  A    between atoms: C_10  and  C_11
REMARK    4  A    between atoms: C_15  and  C_16
REMARK                            x       y       z     vdW  Elec       q    Type
REMARK                         _______ _______ _______ _____ _____    ______ ____
ROOT
ATOM      1  C   UNL     1      47.141   7.621  12.319  0.00  0.00    +0.000 C 
ATOM      2  C   UNL     1      45.911   7.658  11.780  0.00  0.00    +0.000 C 
ENDROOT
BRANCH   1   7
ATOM      3  C   UNL     1      48.924  10.965  12.429  0.00  0.00    +0.000 A 
ATOM      4  C   UNL     1      49.195  11.002  13.789  0.00  0.00    +0.000 A 
ATOM      5  N   UNL     1      48.820  10.031  14.657  0.00  0.00    +0.000 NA
ATOM      6  C   UNL     1      48.173   8.965  14.129  0.00  0.00    +0.000 A 
ATOM      7  C   UNL     1      47.882   8.807  12.773  0.00  0.00    +0.000 A 
ATOM      8  C   UNL     1      48.259   9.846  11.915  0.00  0.00    +0.000 A 
BRANCH   3  10
ATOM      9  N   UNL     1      48.398  12.904  11.058  0.00  0.00    +0.000 N 
ATOM     10  C   UNL     1      49.362  12.092  11.587  0.00  0.00    +0.000 C 
ATOM     11  O   UNL     1      50.548  12.317  11.390  0.00  0.00    +0.000 OA
ATOM     12  H   UNL     1      48.727  13.732  10.576  0.00  0.00    +0.000 HD
ATOM     13  H   UNL     1      47.449  12.913  11.401  0.00  0.00    +0.000 HD
ENDBRANCH   3  10
ENDBRANCH   1   7
BRANCH   2  14
ATOM     14  C   UNL     1      45.127   6.474  11.384  0.00  0.00    +0.000 A 
ATOM     15  C   UNL     1      43.788   6.302  11.756  0.00  0.00    +0.000 A 
ATOM     16  C   UNL     1      43.060   5.209  11.293  0.00  0.00    +0.000 A 
ATOM     17  C   UNL     1      43.651   4.293  10.423  0.00  0.00    +0.000 A 
ATOM     18  C   UNL     1      44.974   4.456   9.979  0.00  0.00    +0.000 A 
ATOM     19  C   UNL     1      45.703   5.543  10.501  0.00  0.00    +0.000 A 
BRANCH  18  20
ATOM     20  C   UNL     1      45.542   3.580   8.927  0.00  0.00    +0.000 A 
ATOM     21  C   UNL     1      46.168   4.139   7.795  0.00  0.00    +0.000 A 
ATOM     22  C   UNL     1      46.772   3.342   6.819  0.00  0.00    +0.000 A 
ATOM     23  C   UNL     1      46.770   1.959   6.958  0.00  0.00    +0.000 A 
ATOM     24  C   UNL     1      46.153   1.376   8.061  0.00  0.00    +0.000 A 
ATOM     25  C   UNL     1      45.539   2.179   9.032  0.00  0.00    +0.000 A 
ENDBRANCH  18  20
ENDBRANCH   2  14
TORSDOF 4
ENDMDL
MODEL 8
REMARK VINA RESULT:    -6.248      3.742      8.884
REMARK INTER + INTRA:          -8.439
REMARK INTER:                  -7.675
REMARK INTRA:                  -0.765
REMARK UNBOUND:                -0.730
REMARK  Name = 
REMARK  4 active torsions:
REMARK  status: ('A' for Active; 'I' for Inactive)
REMARK    1  A    between atoms: C_2  and  C_4
REMARK    2  A    between atoms: C_8  and  C_9
REMARK    3  A    between atoms: C_10  and  C_11
REMARK    4  A    between atoms: C_15  and  C_16
REMARK                            x       y       z     vdW  Elec       q    Type
REMARK                         _______ _______ _______ _____ _____    ______ ____
ROOT
ATOM      1  C   UNL     1      46.995   5.044  14.178  0.00  0.00    +0.000 C 
ATOM      2  C   UNL     1      46.996   4.075  15.109  0.00  0.00    +0.000 C 
ENDROOT
BRANCH   1   7
ATOM      3  C   UNL     1      44.761   3.897  11.339  0.00  0.00    +0.000 A 
ATOM      4  C   UNL     1      44.835   5.037  10.553  0.00  0.00    +0.000 A 
ATOM      5  N   UNL     1      45.539   6.143  10.897  0.00  0.00    +0.000 NA
ATOM      6  C   UNL     1      46.221   6.086  12.066  0.00  0.00    +0.000 A 
ATOM      7  C   UNL     1      46.247   4.978  12.914  0.00  0.00    +0.000 A 
ATOM      8  C   UNL     1      45.483   3.869  12.537  0.00  0.00    +0.000 A 
BRANCH   3  10
ATOM      9  N   UNL     1      44.398   2.056   9.791  0.00  0.00    +0.000 N 
ATOM     10  C   UNL     1      43.945   2.763  10.869  0.00  0.00    +0.000 C 
ATOM     11  O   UNL     1      42.912   2.442  11.441  0.00  0.00    +0.000 OA
ATOM     12  H   UNL     1      43.879   1.219   9.555  0.00  0.00    +0.000 HD
ATOM     13  H   UNL     1      45.350   2.119   9.462  0.00  0.00    +0.000 HD
ENDBRANCH   3  10
ENDBRANCH   1   7
BRANCH   2  14
ATOM     14  C   UNL     1      47.682   4.154  16.411  0.00  0.00    +0.000 A 
ATOM     15  C   UNL     1      47.790   3.055  17.270  0.00  0.00    +0.000 A 
ATOM     16  C   UNL     1      48.517   3.151  18.455  0.00  0.00    +0.000 A 
ATOM     17  C   UNL     1      49.175   4.338  18.776  0.00  0.00    +0.000 A 
ATOM     18  C   UNL     1      49.142   5.449  17.916  0.00  0.00    +0.000 A 
ATOM     19  C   UNL     1      48.359   5.340  16.749  0.00  0.00    +0.000 A 
BRANCH  18  20
ATOM     20  C   UNL     1      49.978   6.644  18.176  0.00  0.00    +0.000 A 
ATOM     21  C   UNL     1      50.758   7.206  17.146  0.00  0.00    +0.000 A 
ATOM     22  C   UNL     1      51.504   8.371  17.341  0.00  0.00    +0.000 A 
ATOM     23  C   UNL     1      51.482   9.009  18.575  0.00  0.00    +0.000 A 
ATOM     24  C   UNL     1      50.727   8.474  19.615  0.00  0.00    +0.000 A 
ATOM     25  C   UNL     1      49.988   7.299  19.419  0.00  0.00    +0.000 A 
ENDBRANCH  18  20
ENDBRANCH   2  14
TORSDOF 4
ENDMDL
MODEL 9
REMARK VINA RESULT:    -6.157      5.445      7.856
REMARK INTER + INTRA:          -8.326
REMARK INTER:                  -7.591
REMARK INTRA:                  -0.735
REMARK UNBOUND:                -0.730
REMARK  Name = 
REMARK  4 active torsions:
REMARK  status: ('A' for Active; 'I' for Inactive)
REMARK    1  A    between atoms: C_2  and  C_4
REMARK    2  A    between atoms: C_8  and  C_9
REMARK    3  A    between atoms: C_10  and  C_11
REMARK    4  A    between atoms: C_15  and  C_16
REMARK                            x       y       z     vdW  Elec       q    Type
REMARK                         _______ _______ _______ _____ _____    ______ ____
ROOT
ATOM      1  C   UNL     1      46.377   6.027  12.615  0.00  0.00    +0.000 C 
ATOM      2  C   UNL     1      46.930   6.916  11.773  0.00  0.00    +0.000 C 
ENDROOT
BRANCH   1   7
ATOM      3  C   UNL     1      44.445   3.434  10.638  0.00  0.00    +0.000 A 
ATOM      4  C   UNL     1      43.576   3.026  11.639  0.00  0.00    +0.000 A 
ATOM      5  N   UNL     1      43.597   3.521  12.900  0.00  0.00    +0.000 NA
ATOM      6  C   UNL     1      44.510   4.489  13.155  0.00  0.00    +0.000 A 
ATOM      7  C   UNL     1      45.405   5.000  12.215  0.00  0.00    +0.000 A 
ATOM      8  C   UNL     1      45.371   4.440  10.932  0.00  0.00    +0.000 A 
BRANCH   3  10
ATOM      9  N   UNL     1      44.289   3.628   8.219  0.00  0.00    +0.000 N 
ATOM     10  C   UNL     1      44.341   2.806   9.309  0.00  0.00    +0.000 C 
ATOM     11  O   UNL     1      44.334   1.590   9.178  0.00  0.00    +0.000 OA
ATOM     12  H   UNL     1      44.328   3.174   7.314  0.00  0.00    +0.000 HD
ATOM     13  H   UNL     1      44.552   4.602   8.260  0.00  0.00    +0.000 HD
ENDBRANCH   3  10
ENDBRANCH   1   7
BRANCH   2  14
ATOM     14  C   UNL     1      47.958   7.905  12.144  0.00  0.00    +0.000 A 
ATOM     15  C   UNL     1      47.862   8.690  13.299  0.00  0.00    +0.000 A 
ATOM     16  C   UNL     1      48.895   9.554  13.656  0.00  0.00    +0.000 A 
ATOM     17  C   UNL     1      50.052   9.618  12.879  0.00  0.00    +0.000 A 
ATOM     18  C   UNL     1      50.215   8.808  11.743  0.00  0.00    +0.000 A 
ATOM     19  C   UNL     1      49.135   7.979  11.378  0.00  0.00    +0.000 A 
BRANCH  18  20
ATOM     20  C   UNL     1      51.508   8.754  11.020  0.00  0.00    +0.000 A 
ATOM     21  C   UNL     1      51.939   7.555  10.418  0.00  0.00    +0.000 A 
ATOM     22  C   UNL     1      53.119   7.488   9.674  0.00  0.00    +0.000 A 
ATOM     23  C   UNL     1      53.897   8.628   9.507  0.00  0.00    +0.000 A 
ATOM     24  C   UNL     1      53.502   9.825  10.096  0.00  0.00    +0.000 A 
ATOM     25  C   UNL     1      52.324   9.886  10.851  0.00  0.00    +0.000 A 
ENDBRANCH  18  20
ENDBRANCH   2  14
TORSDOF 4
ENDMDL
