MODEL 1
REMARK VINA RESULT:    -8.184      0.000      0.000
REMARK INTER + INTRA:         -12.563
REMARK INTER:                 -11.293
REMARK INTRA:                  -1.269
REMARK UNBOUND:                -1.269
REMARK  Name = 
REMARK  7 active torsions:
REMARK  status: ('A' for Active; 'I' for Inactive)
REMARK    1  A    between atoms: C_2  and  C_20
REMARK    2  A    between atoms: N_3  and  C_4
REMARK    3  A    between atoms: C_4  and  C_5
REMARK    4  A    between atoms: C_8  and  C_9
REMARK    5  A    between atoms: C_9  and  C_10
REMARK    6  A    between atoms: C_10  and  O_11
REMARK    7  A    between atoms: C_10  and  C_12
REMARK                            x       y       z     vdW  Elec       q    Type
REMARK                         _______ _______ _______ _____ _____    ______ ____
ROOT
ATOM      1  C   UNL     1      46.440   7.561  12.902  0.00  0.00    +0.000 C 
ENDROOT
BRANCH   1   2
ATOM      2  C   UNL     1      45.898   6.534  11.947  0.00  0.00    +0.000 A 
ATOM      3  C   UNL     1      46.334   6.513  10.618  0.00  0.00    +0.000 A 
ATOM      4  C   UNL     1      45.863   5.544   9.729  0.00  0.00    +0.000 A 
ATOM      5  C   UNL     1      44.940   4.579  10.142  0.00  0.00    +0.000 A 
ATOM      6  C   UNL     1      44.470   4.632  11.464  0.00  0.00    +0.000 A 
ATOM      7  C   UNL     1      44.938   5.604  12.355  0.00  0.00    +0.000 A 
BRANCH   5   8
ATOM      8  C   UNL     1      44.434   3.464   9.244  0.00  0.00    +0.000 C 
BRANCH   8   9
ATOM      9  C   UNL     1      45.339   2.223   9.064  0.00  0.00    +0.000 C 
BRANCH   9  10
ATOM     10  C   UNL     1      46.167   2.167   7.801  0.00  0.00    +0.000 A 
ATOM     11  C   UNL     1      46.132   3.252   6.912  0.00  0.00    +0.000 A 
ATOM     12  C   UNL     1      46.903   3.239   5.754  0.00  0.00    +0.000 A 
ATOM     13  C   UNL     1      47.689   2.130   5.509  0.00  0.00    +0.000 A 
ATOM     14  N   UNL     1      47.747   1.059   6.327  0.00  0.00    +0.000 NA
ATOM     15  C   UNL     1      46.988   1.101   7.448  0.00  0.00    +0.000 A 
ENDBRANCH   9  10
BRANCH   9  16
ATOM     16  O   UNL     1      44.546   1.028   9.078  0.00  0.00    +0.000 OA
ATOM     17  H   UNL     1      44.908   0.448   9.770  0.00  0.00    +0.000 HD
ENDBRANCH   9  16
ENDBRANCH   8   9
ENDBRANCH   5   8
ENDBRANCH   1   2
BRANCH   1  20
ATOM     18  O   UNL     1      49.085   6.851  13.270  0.00  0.00    +0.000 OA
ATOM     19  C   UNL     1      48.308   6.690  14.206  0.00  0.00    +0.000 C 
ATOM     20  N   UNL     1      46.965   6.945  14.091  0.00  0.00    +0.000 N 
ATOM     21  H   UNL     1      46.396   7.011  14.929  0.00  0.00    +0.000 HD
BRANCH  19  22
ATOM     22  C   UNL     1      48.766   6.175  15.500  0.00  0.00    +0.000 A 
ATOM     23  C   UNL     1      49.797   6.816  16.171  0.00  0.00    +0.000 A 
ATOM     24  S   UNL     1      50.203   6.082  17.656  0.00  0.00    +0.000 S 
ATOM     25  C   UNL     1      48.985   4.909  17.471  0.00  0.00    +0.000 A 
ATOM     26  N   UNL     1      48.765   3.971  18.432  0.00  0.00    +0.000 NA
ATOM     27  C   UNL     1      47.786   3.168  18.180  0.00  0.00    +0.000 A 
ATOM     28  N   UNL     1      47.015   3.208  17.048  0.00  0.00    +0.000 N 
ATOM     29  C   UNL     1      47.224   4.113  16.034  0.00  0.00    +0.000 A 
ATOM     30  O   UNL     1      46.558   4.080  15.007  0.00  0.00    +0.000 OA
ATOM     31  C   UNL     1      48.297   5.057  16.281  0.00  0.00    +0.000 A 
ATOM     32  H   UNL     1      46.274   2.539  16.901  0.00  0.00    +0.000 HD
ENDBRANCH  19  22
ENDBRANCH   1  20
TORSDOF 7
ENDMDL
MODEL 2
REMARK VINA RESULT:    -8.002      3.997      5.804
REMARK INTER + INTRA:         -12.312
REMARK INTER:                 -11.323
REMARK INTRA:                  -0.989
REMARK UNBOUND:                -1.269
REMARK  Name = 
REMARK  7 active torsions:
REMARK  status: ('A' for Active; 'I' for Inactive)
REMARK    1  A    between atoms: C_2  and  C_20
REMARK    2  A    between atoms: N_3  and  C_4
REMARK    3  A    between atoms: C_4  and  C_5
REMARK    4  A    between atoms: C_8  and  C_9
REMARK    5  A    between atoms: C_9  and  C_10
REMARK    6  A    between atoms: C_10  and  O_11
REMARK    7  A    between atoms: C_10  and  C_12
REMARK                            x       y       z     vdW  Elec       q    Type
REMARK                         _______ _______ _______ _____ _____    ______ ____
ROOT
ATOM      1  C   UNL     1      43.767   4.661  10.481  0.00  0.00    +0.000 C 
ENDROOT
BRANCH   1   2
ATOM      2  C   UNL     1      44.595   3.830   9.539  0.00  0.00    +0.000 A 
ATOM      3  C   UNL     1      45.408   4.452   8.586  0.00  0.00    +0.000 A 
ATOM      4  C   UNL     1      46.207   3.694   7.727  0.00  0.00    +0.000 A 
ATOM      5  C   UNL     1      46.208   2.297   7.794  0.00  0.00    +0.000 A 
ATOM      6  C   UNL     1      45.356   1.676   8.722  0.00  0.00    +0.000 A 
ATOM      7  C   UNL     1      44.554   2.434   9.581  0.00  0.00    +0.000 A 
BRANCH   5   8
ATOM      8  C   UNL     1      47.096   1.416   6.932  0.00  0.00    +0.000 C 
BRANCH   8   9
ATOM      9  C   UNL     1      47.247   1.794   5.440  0.00  0.00    +0.000 C 
BRANCH   9  10
ATOM     10  C   UNL     1      46.804   0.759   4.432  0.00  0.00    +0.000 A 
ATOM     11  C   UNL     1      46.087   1.171   3.299  0.00  0.00    +0.000 A 
ATOM     12  C   UNL     1      45.688   0.244   2.341  0.00  0.00    +0.000 A 
ATOM     13  C   UNL     1      46.013  -1.083   2.547  0.00  0.00    +0.000 A 
ATOM     14  N   UNL     1      46.690  -1.529   3.625  0.00  0.00    +0.000 NA
ATOM     15  C   UNL     1      47.067  -0.603   4.538  0.00  0.00    +0.000 A 
ENDBRANCH   9  10
BRANCH   9  16
ATOM     16  O   UNL     1      48.619   2.085   5.141  0.00  0.00    +0.000 OA
ATOM     17  H   UNL     1      48.715   2.070   4.173  0.00  0.00    +0.000 HD
ENDBRANCH   9  16
ENDBRANCH   8   9
ENDBRANCH   5   8
ENDBRANCH   1   2
BRANCH   1  20
ATOM     18  O   UNL     1      44.184   5.706  13.004  0.00  0.00    +0.000 OA
ATOM     19  C   UNL     1      44.617   6.331  12.041  0.00  0.00    +0.000 C 
ATOM     20  N   UNL     1      44.393   5.928  10.749  0.00  0.00    +0.000 N 
ATOM     21  H   UNL     1      44.938   6.336   9.997  0.00  0.00    +0.000 HD
BRANCH  19  22
ATOM     22  C   UNL     1      45.369   7.578  12.214  0.00  0.00    +0.000 A 
ATOM     23  C   UNL     1      46.595   7.558  12.864  0.00  0.00    +0.000 A 
ATOM     24  S   UNL     1      47.329   9.093  12.978  0.00  0.00    +0.000 S 
ATOM     25  C   UNL     1      46.053   9.827  12.127  0.00  0.00    +0.000 A 
ATOM     26  N   UNL     1      46.076  11.158  11.842  0.00  0.00    +0.000 NA
ATOM     27  C   UNL     1      45.064  11.574  11.157  0.00  0.00    +0.000 A 
ATOM     28  N   UNL     1      44.024  10.785  10.742  0.00  0.00    +0.000 N 
ATOM     29  C   UNL     1      43.940   9.445  11.038  0.00  0.00    +0.000 A 
ATOM     30  O   UNL     1      42.964   8.782  10.706  0.00  0.00    +0.000 OA
ATOM     31  C   UNL     1      45.068   8.921  11.783  0.00  0.00    +0.000 A 
ATOM     32  H   UNL     1      43.251  11.176  10.224  0.00  0.00    +0.000 HD
ENDBRANCH  19  22
ENDBRANCH   1  20
TORSDOF 7
ENDMDL
MODEL 3
REMARK VINA RESULT:    -7.976      2.547      3.628
REMARK INTER + INTRA:         -12.276
REMARK INTER:                 -11.673
REMARK INTRA:                  -0.604
REMARK UNBOUND:                -1.269
REMARK  Name = 
REMARK  7 active torsions:
REMARK  status: ('A' for Active; 'I' for Inactive)
REMARK    1  A    between atoms: C_2  and  C_20
REMARK    2  A    between atoms: N_3  and  C_4
REMARK    3  A    between atoms: C_4  and  C_5
REMARK    4  A    between atoms: C_8  and  C_9
REMARK    5  A    between atoms: C_9  and  C_10
REMARK    6  A    between atoms: C_10  and  O_11
REMARK    7  A    between atoms: C_10  and  C_12
REMARK                            x       y       z     vdW  Elec       q    Type
REMARK                         _______ _______ _______ _____ _____    ______ ____
ROOT
ATOM      1  C   UNL     1      44.356   4.944  10.525  0.00  0.00    +0.000 C 
ENDROOT
BRANCH   1   2
ATOM      2  C   UNL     1      44.982   3.988   9.548  0.00  0.00    +0.000 A 
ATOM      3  C   UNL     1      45.654   4.476   8.422  0.00  0.00    +0.000 A 
ATOM      4  C   UNL     1      46.268   3.600   7.524  0.00  0.00    +0.000 A 
ATOM      5  C   UNL     1      46.219   2.217   7.723  0.00  0.00    +0.000 A 
ATOM      6  C   UNL     1      45.504   1.730   8.829  0.00  0.00    +0.000 A 
ATOM      7  C   UNL     1      44.887   2.605   9.728  0.00  0.00    +0.000 A 
BRANCH   5   8
ATOM      8  C   UNL     1      46.915   1.215   6.819  0.00  0.00    +0.000 C 
BRANCH   8   9
ATOM      9  C   UNL     1      47.171   1.630   5.352  0.00  0.00    +0.000 C 
BRANCH   9  10
ATOM     10  C   UNL     1      46.722   0.659   4.285  0.00  0.00    +0.000 A 
ATOM     11  C   UNL     1      45.986   1.138   3.190  0.00  0.00    +0.000 A 
ATOM     12  C   UNL     1      45.581   0.271   2.180  0.00  0.00    +0.000 A 
ATOM     13  C   UNL     1      45.919  -1.063   2.295  0.00  0.00    +0.000 A 
ATOM     14  N   UNL     1      46.615  -1.573   3.333  0.00  0.00    +0.000 NA
ATOM     15  C   UNL     1      46.997  -0.704   4.299  0.00  0.00    +0.000 A 
ENDBRANCH   9  10
BRANCH   9  16
ATOM     16  O   UNL     1      48.572   1.844   5.137  0.00  0.00    +0.000 OA
ATOM     17  H   UNL     1      48.978   0.974   4.978  0.00  0.00    +0.000 HD
ENDBRANCH   9  16
ENDBRANCH   8   9
ENDBRANCH   5   8
ENDBRANCH   1   2
BRANCH   1  20
ATOM     18  O   UNL     1      46.623   6.520  10.638  0.00  0.00    +0.000 OA
ATOM     19  C   UNL     1      46.249   5.971  11.670  0.00  0.00    +0.000 C 
ATOM     20  N   UNL     1      45.179   5.112  11.693  0.00  0.00    +0.000 N 
ATOM     21  H   UNL     1      44.768   4.852  12.583  0.00  0.00    +0.000 HD
BRANCH  19  22
ATOM     22  C   UNL     1      46.953   6.170  12.940  0.00  0.00    +0.000 A 
ATOM     23  C   UNL     1      47.435   7.428  13.271  0.00  0.00    +0.000 A 
ATOM     24  S   UNL     1      48.228   7.479  14.779  0.00  0.00    +0.000 S 
ATOM     25  C   UNL     1      47.917   5.830  15.059  0.00  0.00    +0.000 A 
ATOM     26  N   UNL     1      48.307   5.231  16.217  0.00  0.00    +0.000 NA
ATOM     27  C   UNL     1      47.972   3.988  16.314  0.00  0.00    +0.000 A 
ATOM     28  N   UNL     1      47.294   3.285  15.353  0.00  0.00    +0.000 N 
ATOM     29  C   UNL     1      46.912   3.838  14.153  0.00  0.00    +0.000 A 
ATOM     30  O   UNL     1      46.364   3.164  13.290  0.00  0.00    +0.000 OA
ATOM     31  C   UNL     1      47.242   5.242  14.006  0.00  0.00    +0.000 A 
ATOM     32  H   UNL     1      47.077   2.307  15.481  0.00  0.00    +0.000 HD
ENDBRANCH  19  22
ENDBRANCH   1  20
TORSDOF 7
ENDMDL
MODEL 4
REMARK VINA RESULT:    -7.599      2.511      4.027
REMARK INTER + INTRA:         -11.756
REMARK INTER:                 -10.661
REMARK INTRA:                  -1.095
REMARK UNBOUND:                -1.269
REMARK  Name = 
REMARK  7 active torsions:
REMARK  status: ('A' for Active; 'I' for Inactive)
REMARK    1  A    between atoms: C_2  and  C_20
REMARK    2  A    between atoms: N_3  and  C_4
REMARK    3  A    between atoms: C_4  and  C_5
REMARK    4  A    between atoms: C_8  and  C_9
REMARK    5  A    between atoms: C_9  and  C_10
REMARK    6  A    between atoms: C_10  and  O_11
REMARK    7  A    between atoms: C_10  and  C_12
REMARK                            x       y       z     vdW  Elec       q    Type
REMARK                         _______ _______ _______ _____ _____    ______ ____
ROOT
ATOM      1  C   UNL     1      47.010   5.019  14.867  0.00  0.00    +0.000 C 
ENDROOT
BRANCH   1   2
ATOM      2  C   UNL     1      46.193   4.742  13.635  0.00  0.00    +0.000 A 
ATOM      3  C   UNL     1      45.440   5.765  13.048  0.00  0.00    +0.000 A 
ATOM      4  C   UNL     1      44.703   5.530  11.886  0.00  0.00    +0.000 A 
ATOM      5  C   UNL     1      44.693   4.267  11.285  0.00  0.00    +0.000 A 
ATOM      6  C   UNL     1      45.414   3.231  11.903  0.00  0.00    +0.000 A 
ATOM      7  C   UNL     1      46.151   3.465  13.069  0.00  0.00    +0.000 A 
BRANCH   5   8
ATOM      8  C   UNL     1      43.963   3.959   9.990  0.00  0.00    +0.000 C 
BRANCH   8   9
ATOM      9  C   UNL     1      44.713   4.226   8.664  0.00  0.00    +0.000 C 
BRANCH   9  10
ATOM     10  C   UNL     1      45.613   3.122   8.162  0.00  0.00    +0.000 A 
ATOM     11  C   UNL     1      46.624   3.430   7.239  0.00  0.00    +0.000 A 
ATOM     12  C   UNL     1      47.484   2.439   6.777  0.00  0.00    +0.000 A 
ATOM     13  C   UNL     1      47.306   1.153   7.250  0.00  0.00    +0.000 A 
ATOM     14  N   UNL     1      46.343   0.806   8.129  0.00  0.00    +0.000 NA
ATOM     15  C   UNL     1      45.523   1.793   8.561  0.00  0.00    +0.000 A 
ENDBRANCH   9  10
BRANCH   9  16
ATOM     16  O   UNL     1      45.538   5.392   8.791  0.00  0.00    +0.000 OA
ATOM     17  H   UNL     1      46.248   5.178   9.421  0.00  0.00    +0.000 HD
ENDBRANCH   9  16
ENDBRANCH   8   9
ENDBRANCH   5   8
ENDBRANCH   1   2
BRANCH   1  20
ATOM     18  O   UNL     1      49.338   5.598  16.240  0.00  0.00    +0.000 OA
ATOM     19  C   UNL     1      48.939   6.410  15.411  0.00  0.00    +0.000 C 
ATOM     20  N   UNL     1      47.756   6.243  14.736  0.00  0.00    +0.000 N 
ATOM     21  H   UNL     1      47.566   6.808  13.915  0.00  0.00    +0.000 HD
BRANCH  19  22
ATOM     22  C   UNL     1      49.688   7.636  15.120  0.00  0.00    +0.000 A 
ATOM     23  C   UNL     1      50.187   8.403  16.163  0.00  0.00    +0.000 A 
ATOM     24  S   UNL     1      51.029   9.792  15.645  0.00  0.00    +0.000 S 
ATOM     25  C   UNL     1      50.791   9.392  14.008  0.00  0.00    +0.000 A 
ATOM     26  N   UNL     1      51.306  10.168  13.017  0.00  0.00    +0.000 NA
ATOM     27  C   UNL     1      51.084   9.727  11.824  0.00  0.00    +0.000 A 
ATOM     28  N   UNL     1      50.382   8.587  11.531  0.00  0.00    +0.000 N 
ATOM     29  C   UNL     1      49.813   7.792  12.498  0.00  0.00    +0.000 A 
ATOM     30  O   UNL     1      49.137   6.815  12.199  0.00  0.00    +0.000 OA
ATOM     31  C   UNL     1      50.057   8.231  13.859  0.00  0.00    +0.000 A 
ATOM     32  H   UNL     1      50.227   8.304  10.575  0.00  0.00    +0.000 HD
ENDBRANCH  19  22
ENDBRANCH   1  20
TORSDOF 7
ENDMDL
MODEL 5
REMARK VINA RESULT:    -7.544      2.229      2.788
REMARK INTER + INTRA:         -11.680
REMARK INTER:                 -11.156
REMARK INTRA:                  -0.524
REMARK UNBOUND:                -1.269
REMARK  Name = 
REMARK  7 active torsions:
REMARK  status: ('A' for Active; 'I' for Inactive)
REMARK    1  A    between atoms: C_2  and  C_20
REMARK    2  A    between atoms: N_3  and  C_4
REMARK    3  A    between atoms: C_4  and  C_5
REMARK    4  A    between atoms: C_8  and  C_9
REMARK    5  A    between atoms: C_9  and  C_10
REMARK    6  A    between atoms: C_10  and  O_11
REMARK    7  A    between atoms: C_10  and  C_12
REMARK                            x       y       z     vdW  Elec       q    Type
REMARK                         _______ _______ _______ _____ _____    ______ ____
ROOT
ATOM      1  C   UNL     1      48.285   6.564  13.990  0.00  0.00    +0.000 C 
ENDROOT
BRANCH   1   2
ATOM      2  C   UNL     1      47.207   5.740  13.343  0.00  0.00    +0.000 A 
ATOM      3  C   UNL     1      46.408   6.296  12.338  0.00  0.00    +0.000 A 
ATOM      4  C   UNL     1      45.425   5.532  11.705  0.00  0.00    +0.000 A 
ATOM      5  C   UNL     1      45.209   4.198  12.066  0.00  0.00    +0.000 A 
ATOM      6  C   UNL     1      45.983   3.658  13.107  0.00  0.00    +0.000 A 
ATOM      7  C   UNL     1      46.966   4.423  13.743  0.00  0.00    +0.000 A 
BRANCH   5   8
ATOM      8  C   UNL     1      44.199   3.295  11.379  0.00  0.00    +0.000 C 
BRANCH   8   9
ATOM      9  C   UNL     1      43.918   3.547   9.880  0.00  0.00    +0.000 C 
BRANCH   9  10
ATOM     10  C   UNL     1      45.041   3.234   8.918  0.00  0.00    +0.000 A 
ATOM     11  C   UNL     1      45.494   1.911   8.804  0.00  0.00    +0.000 A 
ATOM     12  C   UNL     1      46.510   1.589   7.909  0.00  0.00    +0.000 A 
ATOM     13  C   UNL     1      47.054   2.607   7.151  0.00  0.00    +0.000 A 
ATOM     14  N   UNL     1      46.659   3.895   7.233  0.00  0.00    +0.000 NA
ATOM     15  C   UNL     1      45.668   4.177   8.111  0.00  0.00    +0.000 A 
ENDBRANCH   9  10
BRANCH   9  16
ATOM     16  O   UNL     1      43.578   4.924   9.667  0.00  0.00    +0.000 OA
ATOM     17  H   UNL     1      43.555   5.356  10.539  0.00  0.00    +0.000 HD
ENDBRANCH   9  16
ENDBRANCH   8   9
ENDBRANCH   5   8
ENDBRANCH   1   2
BRANCH   1  20
ATOM     18  O   UNL     1      50.202   6.126  15.932  0.00  0.00    +0.000 OA
ATOM     19  C   UNL     1      49.098   6.525  16.289  0.00  0.00    +0.000 C 
ATOM     20  N   UNL     1      48.063   6.699  15.405  0.00  0.00    +0.000 N 
ATOM     21  H   UNL     1      47.246   7.229  15.691  0.00  0.00    +0.000 HD
BRANCH  19  22
ATOM     22  C   UNL     1      48.805   6.803  17.699  0.00  0.00    +0.000 A 
ATOM     23  C   UNL     1      48.530   8.102  18.102  0.00  0.00    +0.000 A 
ATOM     24  S   UNL     1      48.215   8.244  19.772  0.00  0.00    +0.000 S 
ATOM     25  C   UNL     1      48.394   6.568  20.004  0.00  0.00    +0.000 A 
ATOM     26  N   UNL     1      48.213   6.008  21.230  0.00  0.00    +0.000 NA
ATOM     27  C   UNL     1      48.342   4.723  21.254  0.00  0.00    +0.000 A 
ATOM     28  N   UNL     1      48.648   3.949  20.166  0.00  0.00    +0.000 N 
ATOM     29  C   UNL     1      48.876   4.474  18.917  0.00  0.00    +0.000 A 
ATOM     30  O   UNL     1      49.211   3.759  17.979  0.00  0.00    +0.000 OA
ATOM     31  C   UNL     1      48.717   5.913  18.830  0.00  0.00    +0.000 A 
ATOM     32  H   UNL     1      48.753   2.949  20.255  0.00  0.00    +0.000 HD
ENDBRANCH  19  22
ENDBRANCH   1  20
TORSDOF 7
ENDMDL
MODEL 6
REMARK VINA RESULT:    -7.505      2.549      4.323
REMARK INTER + INTRA:         -11.627
REMARK INTER:                 -11.282
REMARK INTRA:                  -0.345
REMARK UNBOUND:                -1.269
REMARK  Name = 
REMARK  7 active torsions:
REMARK  status: ('A' for Active; 'I' for Inactive)
REMARK    1  A    between atoms: C_2  and  C_20
REMARK    2  A    between atoms: N_3  and  C_4
REMARK    3  A    between atoms: C_4  and  C_5
REMARK    4  A    between atoms: C_8  and  C_9
REMARK    5  A    between atoms: C_9  and  C_10
REMARK    6  A    between atoms: C_10  and  O_11
REMARK    7  A    between atoms: C_10  and  C_12
REMARK                            x       y       z     vdW  Elec       q    Type
REMARK                         _______ _______ _______ _____ _____    ______ ____
ROOT
ATOM      1  C   UNL     1      44.344   4.943  10.563  0.00  0.00    +0.000 C 
ENDROOT
BRANCH   1   2
ATOM      2  C   UNL     1      45.005   4.026   9.570  0.00  0.00    +0.000 A 
ATOM      3  C   UNL     1      45.739   4.559   8.506  0.00  0.00    +0.000 A 
ATOM      4  C   UNL     1      46.385   3.719   7.595  0.00  0.00    +0.000 A 
ATOM      5  C   UNL     1      46.306   2.328   7.721  0.00  0.00    +0.000 A 
ATOM      6  C   UNL     1      45.530   1.798   8.765  0.00  0.00    +0.000 A 
ATOM      7  C   UNL     1      44.880   2.638   9.676  0.00  0.00    +0.000 A 
BRANCH   5   8
ATOM      8  C   UNL     1      47.032   1.360   6.803  0.00  0.00    +0.000 C 
BRANCH   8   9
ATOM      9  C   UNL     1      47.175   1.756   5.315  0.00  0.00    +0.000 C 
BRANCH   9  10
ATOM     10  C   UNL     1      46.727   0.734   4.296  0.00  0.00    +0.000 A 
ATOM     11  C   UNL     1      45.977   1.156   3.188  0.00  0.00    +0.000 A 
ATOM     12  C   UNL     1      45.572   0.241   2.222  0.00  0.00    +0.000 A 
ATOM     13  C   UNL     1      45.925  -1.083   2.393  0.00  0.00    +0.000 A 
ATOM     14  N   UNL     1      46.634  -1.539   3.446  0.00  0.00    +0.000 NA
ATOM     15  C   UNL     1      47.016  -0.625   4.369  0.00  0.00    +0.000 A 
ENDBRANCH   9  10
BRANCH   9  16
ATOM     16  O   UNL     1      48.546   2.051   5.014  0.00  0.00    +0.000 OA
ATOM     17  H   UNL     1      48.904   2.561   5.760  0.00  0.00    +0.000 HD
ENDBRANCH   9  16
ENDBRANCH   8   9
ENDBRANCH   5   8
ENDBRANCH   1   2
BRANCH   1  20
ATOM     18  O   UNL     1      44.913   3.567  12.891  0.00  0.00    +0.000 OA
ATOM     19  C   UNL     1      45.540   4.596  12.660  0.00  0.00    +0.000 C 
ATOM     20  N   UNL     1      45.274   5.383  11.568  0.00  0.00    +0.000 N 
ATOM     21  H   UNL     1      45.943   6.095  11.292  0.00  0.00    +0.000 HD
BRANCH  19  22
ATOM     22  C   UNL     1      46.591   5.070  13.566  0.00  0.00    +0.000 A 
ATOM     23  C   UNL     1      46.720   4.506  14.827  0.00  0.00    +0.000 A 
ATOM     24  S   UNL     1      47.990   5.176  15.746  0.00  0.00    +0.000 S 
ATOM     25  C   UNL     1      48.436   6.214  14.473  0.00  0.00    +0.000 A 
ATOM     26  N   UNL     1      49.501   7.052  14.594  0.00  0.00    +0.000 NA
ATOM     27  C   UNL     1      49.750   7.754  13.540  0.00  0.00    +0.000 A 
ATOM     28  N   UNL     1      49.023   7.705  12.379  0.00  0.00    +0.000 N 
ATOM     29  C   UNL     1      47.918   6.901  12.225  0.00  0.00    +0.000 A 
ATOM     30  O   UNL     1      47.253   6.929  11.196  0.00  0.00    +0.000 OA
ATOM     31  C   UNL     1      47.612   6.071  13.373  0.00  0.00    +0.000 A 
ATOM     32  H   UNL     1      49.259   8.294  11.594  0.00  0.00    +0.000 HD
ENDBRANCH  19  22
ENDBRANCH   1  20
TORSDOF 7
ENDMDL
MODEL 7
REMARK VINA RESULT:    -7.295      2.904      4.066
REMARK INTER + INTRA:         -11.337
REMARK INTER:                 -10.565
REMARK INTRA:                  -0.772
REMARK UNBOUND:                -1.269
REMARK  Name = 
REMARK  7 active torsions:
REMARK  status: ('A' for Active; 'I' for Inactive)
REMARK    1  A    between atoms: C_2  and  C_20
REMARK    2  A    between atoms: N_3  and  C_4
REMARK    3  A    between atoms: C_4  and  C_5
REMARK    4  A    between atoms: C_8  and  C_9
REMARK    5  A    between atoms: C_9  and  C_10
REMARK    6  A    between atoms: C_10  and  O_11
REMARK    7  A    between atoms: C_10  and  C_12
REMARK                            x       y       z     vdW  Elec       q    Type
REMARK                         _______ _______ _______ _____ _____    ______ ____
ROOT
ATOM      1  C   UNL     1      47.233   5.279  14.808  0.00  0.00    +0.000 C 
ENDROOT
BRANCH   1   2
ATOM      2  C   UNL     1      46.401   4.937  13.603  0.00  0.00    +0.000 A 
ATOM      3  C   UNL     1      45.743   5.948  12.895  0.00  0.00    +0.000 A 
ATOM      4  C   UNL     1      44.994   5.648  11.755  0.00  0.00    +0.000 A 
ATOM      5  C   UNL     1      44.878   4.332  11.298  0.00  0.00    +0.000 A 
ATOM      6  C   UNL     1      45.504   3.314  12.037  0.00  0.00    +0.000 A 
ATOM      7  C   UNL     1      46.251   3.613  13.181  0.00  0.00    +0.000 A 
BRANCH   5   8
ATOM      8  C   UNL     1      44.131   3.945  10.034  0.00  0.00    +0.000 C 
BRANCH   8   9
ATOM      9  C   UNL     1      44.819   4.230   8.679  0.00  0.00    +0.000 C 
BRANCH   9  10
ATOM     10  C   UNL     1      45.685   3.128   8.114  0.00  0.00    +0.000 A 
ATOM     11  C   UNL     1      46.577   3.425   7.073  0.00  0.00    +0.000 A 
ATOM     12  C   UNL     1      47.404   2.436   6.549  0.00  0.00    +0.000 A 
ATOM     13  C   UNL     1      47.312   1.165   7.080  0.00  0.00    +0.000 A 
ATOM     14  N   UNL     1      46.463   0.828   8.073  0.00  0.00    +0.000 NA
ATOM     15  C   UNL     1      45.672   1.812   8.564  0.00  0.00    +0.000 A 
ENDBRANCH   9  10
BRANCH   9  16
ATOM     16  O   UNL     1      45.661   5.386   8.788  0.00  0.00    +0.000 OA
ATOM     17  H   UNL     1      45.099   6.169   8.652  0.00  0.00    +0.000 HD
ENDBRANCH   9  16
ENDBRANCH   8   9
ENDBRANCH   5   8
ENDBRANCH   1   2
BRANCH   1  20
ATOM     18  O   UNL     1      49.700   5.991  15.828  0.00  0.00    +0.000 OA
ATOM     19  C   UNL     1      49.088   6.822  15.165  0.00  0.00    +0.000 C 
ATOM     20  N   UNL     1      47.826   6.584  14.681  0.00  0.00    +0.000 N 
ATOM     21  H   UNL     1      47.442   7.192  13.966  0.00  0.00    +0.000 HD
BRANCH  19  22
ATOM     22  C   UNL     1      49.656   8.144  14.881  0.00  0.00    +0.000 A 
ATOM     23  C   UNL     1      50.623   8.281  13.896  0.00  0.00    +0.000 A 
ATOM     24  S   UNL     1      51.174   9.883  13.701  0.00  0.00    +0.000 S 
ATOM     25  C   UNL     1      50.107  10.453  14.898  0.00  0.00    +0.000 A 
ATOM     26  N   UNL     1      50.044  11.777  15.205  0.00  0.00    +0.000 NA
ATOM     27  C   UNL     1      49.165  12.074  16.102  0.00  0.00    +0.000 A 
ATOM     28  N   UNL     1      48.353  11.167  16.731  0.00  0.00    +0.000 N 
ATOM     29  C   UNL     1      48.408   9.816  16.480  0.00  0.00    +0.000 A 
ATOM     30  O   UNL     1      47.712   9.026  17.106  0.00  0.00    +0.000 OA
ATOM     31  C   UNL     1      49.362   9.433  15.457  0.00  0.00    +0.000 A 
ATOM     32  H   UNL     1      47.697  11.462  17.439  0.00  0.00    +0.000 HD
ENDBRANCH  19  22
ENDBRANCH   1  20
TORSDOF 7
ENDMDL
MODEL 8
REMARK VINA RESULT:    -7.229      2.689      3.302
REMARK INTER + INTRA:         -11.245
REMARK INTER:                 -10.174
REMARK INTRA:                  -1.071
REMARK UNBOUND:                -1.269
REMARK  Name = 
REMARK  7 active torsions:
REMARK  status: ('A' for Active; 'I' for Inactive)
REMARK    1  A    between atoms: C_2  and  C_20
REMARK    2  A    between atoms: N_3  and  C_4
REMARK    3  A    between atoms: C_4  and  C_5
REMARK    4  A    between atoms: C_8  and  C_9
REMARK    5  A    between atoms: C_9  and  C_10
REMARK    6  A    between atoms: C_10  and  O_11
REMARK    7  A    between atoms: C_10  and  C_12
REMARK                            x       y       z     vdW  Elec       q    Type
REMARK                         _______ _______ _______ _____ _____    ______ ____
ROOT
ATOM      1  C   UNL     1      48.444   6.834  14.210  0.00  0.00    +0.000 C 
ENDROOT
BRANCH   1   2
ATOM      2  C   UNL     1      47.401   6.188  13.339  0.00  0.00    +0.000 A 
ATOM      3  C   UNL     1      47.073   6.754  12.102  0.00  0.00    +0.000 A 
ATOM      4  C   UNL     1      46.131   6.147  11.269  0.00  0.00    +0.000 A 
ATOM      5  C   UNL     1      45.488   4.966  11.653  0.00  0.00    +0.000 A 
ATOM      6  C   UNL     1      45.787   4.427  12.915  0.00  0.00    +0.000 A 
ATOM      7  C   UNL     1      46.729   5.035  13.752  0.00  0.00    +0.000 A 
BRANCH   5   8
ATOM      8  C   UNL     1      44.500   4.224  10.770  0.00  0.00    +0.000 C 
BRANCH   8   9
ATOM      9  C   UNL     1      44.932   2.850  10.210  0.00  0.00    +0.000 C 
BRANCH   9  10
ATOM     10  C   UNL     1      45.617   2.853   8.863  0.00  0.00    +0.000 A 
ATOM     11  C   UNL     1      46.138   1.651   8.358  0.00  0.00    +0.000 A 
ATOM     12  C   UNL     1      46.753   1.619   7.110  0.00  0.00    +0.000 A 
ATOM     13  C   UNL     1      46.837   2.799   6.397  0.00  0.00    +0.000 A 
ATOM     14  N   UNL     1      46.361   3.980   6.845  0.00  0.00    +0.000 NA
ATOM     15  C   UNL     1      45.767   3.979   8.061  0.00  0.00    +0.000 A 
ENDBRANCH   9  10
BRANCH   9  16
ATOM     16  O   UNL     1      43.792   1.990  10.079  0.00  0.00    +0.000 OA
ATOM     17  H   UNL     1      43.502   2.032   9.151  0.00  0.00    +0.000 HD
ENDBRANCH   9  16
ENDBRANCH   8   9
ENDBRANCH   5   8
ENDBRANCH   1   2
BRANCH   1  20
ATOM     18  O   UNL     1      50.074   5.789  16.182  0.00  0.00    +0.000 OA
ATOM     19  C   UNL     1      48.997   6.271  16.518  0.00  0.00    +0.000 C 
ATOM     20  N   UNL     1      48.091   6.744  15.602  0.00  0.00    +0.000 N 
ATOM     21  H   UNL     1      47.320   7.325  15.916  0.00  0.00    +0.000 HD
BRANCH  19  22
ATOM     22  C   UNL     1      48.593   6.332  17.926  0.00  0.00    +0.000 A 
ATOM     23  C   UNL     1      48.697   5.201  18.723  0.00  0.00    +0.000 A 
ATOM     24  S   UNL     1      48.182   5.450  20.329  0.00  0.00    +0.000 S 
ATOM     25  C   UNL     1      47.843   7.089  20.024  0.00  0.00    +0.000 A 
ATOM     26  N   UNL     1      47.392   7.906  21.014  0.00  0.00    +0.000 NA
ATOM     27  C   UNL     1      47.213   9.132  20.653  0.00  0.00    +0.000 A 
ATOM     28  N   UNL     1      47.431   9.614  19.389  0.00  0.00    +0.000 N 
ATOM     29  C   UNL     1      47.849   8.818  18.349  0.00  0.00    +0.000 A 
ATOM     30  O   UNL     1      47.973   9.268  17.216  0.00  0.00    +0.000 OA
ATOM     31  C   UNL     1      48.092   7.435  18.710  0.00  0.00    +0.000 A 
ATOM     32  H   UNL     1      47.254  10.582  19.165  0.00  0.00    +0.000 HD
ENDBRANCH  19  22
ENDBRANCH   1  20
TORSDOF 7
ENDMDL
MODEL 9
REMARK VINA RESULT:    -7.059      2.514      3.688
REMARK INTER + INTRA:         -11.011
REMARK INTER:                  -9.859
REMARK INTRA:                  -1.152
REMARK UNBOUND:                -1.269
REMARK  Name = 
REMARK  7 active torsions:
REMARK  status: ('A' for Active; 'I' for Inactive)
REMARK    1  A    between atoms: C_2  and  C_20
REMARK    2  A    between atoms: N_3  and  C_4
REMARK    3  A    between atoms: C_4  and  C_5
REMARK    4  A    between atoms: C_8  and  C_9
REMARK    5  A    between atoms: C_9  and  C_10
REMARK    6  A    between atoms: C_10  and  O_11
REMARK    7  A    between atoms: C_10  and  C_12
REMARK                            x       y       z     vdW  Elec       q    Type
REMARK                         _______ _______ _______ _____ _____    ______ ____
ROOT
ATOM      1  C   UNL     1      47.300   4.087  15.512  0.00  0.00    +0.000 C 
ENDROOT
BRANCH   1   2
ATOM      2  C   UNL     1      46.754   4.408  14.148  0.00  0.00    +0.000 A 
ATOM      3  C   UNL     1      46.992   5.662  13.575  0.00  0.00    +0.000 A 
ATOM      4  C   UNL     1      46.519   5.961  12.295  0.00  0.00    +0.000 A 
ATOM      5  C   UNL     1      45.791   5.020  11.560  0.00  0.00    +0.000 A 
ATOM      6  C   UNL     1      45.515   3.779  12.158  0.00  0.00    +0.000 A 
ATOM      7  C   UNL     1      45.986   3.479  13.441  0.00  0.00    +0.000 A 
BRANCH   5   8
ATOM      8  C   UNL     1      45.300   5.260  10.144  0.00  0.00    +0.000 C 
BRANCH   8   9
ATOM      9  C   UNL     1      44.603   4.085   9.419  0.00  0.00    +0.000 C 
BRANCH   9  10
ATOM     10  C   UNL     1      45.489   3.166   8.612  0.00  0.00    +0.000 A 
ATOM     11  C   UNL     1      46.300   3.709   7.603  0.00  0.00    +0.000 A 
ATOM     12  C   UNL     1      47.144   2.890   6.861  0.00  0.00    +0.000 A 
ATOM     13  C   UNL     1      47.152   1.538   7.143  0.00  0.00    +0.000 A 
ATOM     14  N   UNL     1      46.384   0.968   8.095  0.00  0.00    +0.000 NA
ATOM     15  C   UNL     1      45.574   1.791   8.802  0.00  0.00    +0.000 A 
ENDBRANCH   9  10
BRANCH   9  16
ATOM     16  O   UNL     1      43.610   4.585   8.513  0.00  0.00    +0.000 OA
ATOM     17  H   UNL     1      43.008   5.151   9.025  0.00  0.00    +0.000 HD
ENDBRANCH   9  16
ENDBRANCH   8   9
ENDBRANCH   5   8
ENDBRANCH   1   2
BRANCH   1  20
ATOM     18  O   UNL     1      48.480   4.180  18.009  0.00  0.00    +0.000 OA
ATOM     19  C   UNL     1      48.066   5.229  17.526  0.00  0.00    +0.000 C 
ATOM     20  N   UNL     1      47.401   5.268  16.326  0.00  0.00    +0.000 N 
ATOM     21  H   UNL     1      47.269   6.159  15.858  0.00  0.00    +0.000 HD
BRANCH  19  22
ATOM     22  C   UNL     1      48.224   6.508  18.227  0.00  0.00    +0.000 A 
ATOM     23  C   UNL     1      47.758   6.643  19.526  0.00  0.00    +0.000 A 
ATOM     24  S   UNL     1      48.021   8.193  20.186  0.00  0.00    +0.000 S 
ATOM     25  C   UNL     1      48.804   8.722  18.771  0.00  0.00    +0.000 A 
ATOM     26  N   UNL     1      49.321   9.978  18.685  0.00  0.00    +0.000 NA
ATOM     27  C   UNL     1      49.922  10.232  17.570  0.00  0.00    +0.000 A 
ATOM     28  N   UNL     1      50.041   9.350  16.528  0.00  0.00    +0.000 N 
ATOM     29  C   UNL     1      49.503   8.085  16.556  0.00  0.00    +0.000 A 
ATOM     30  O   UNL     1      49.573   7.344  15.583  0.00  0.00    +0.000 OA
ATOM     31  C   UNL     1      48.840   7.740  17.799  0.00  0.00    +0.000 A 
ATOM     32  H   UNL     1      50.508   9.616  15.674  0.00  0.00    +0.000 HD
ENDBRANCH  19  22
ENDBRANCH   1  20
TORSDOF 7
ENDMDL
