MODEL 1
REMARK VINA RESULT:    -7.597      0.000      0.000
REMARK INTER + INTRA:         -11.911
REMARK INTER:                 -10.705
REMARK INTRA:                  -1.206
REMARK UNBOUND:                -1.206
REMARK  Name = 
REMARK  8 active torsions:
REMARK  status: ('A' for Active; 'I' for Inactive)
REMARK    1  A    between atoms: C_1  and  O_2
REMARK    2  A    between atoms: O_2  and  C_3
REMARK    3  A    between atoms: C_7  and  C_8
REMARK    4  A    between atoms: N_10  and  C_11
REMARK    5  A    between atoms: C_11  and  C_12
REMARK    6  A    between atoms: C_15  and  C_16
REMARK    7  A    between atoms: C_16  and  N_17
REMARK    8  A    between atoms: C_18  and  C_20
REMARK                            x       y       z     vdW  Elec       q    Type
REMARK                         _______ _______ _______ _____ _____    ______ ____
ROOT
ATOM      1  C   UNL     1      44.669   4.677  11.292  0.00  0.00    +0.000 A 
ATOM      2  C   UNL     1      45.038   5.883  11.906  0.00  0.00    +0.000 A 
ATOM      3  C   UNL     1      45.784   5.883  13.093  0.00  0.00    +0.000 A 
ATOM      4  C   UNL     1      46.192   4.677  13.678  0.00  0.00    +0.000 A 
ATOM      5  C   UNL     1      45.793   3.474  13.081  0.00  0.00    +0.000 A 
ATOM      6  C   UNL     1      45.050   3.473  11.897  0.00  0.00    +0.000 A 
ENDROOT
BRANCH   1   7
ATOM      7  C   UNL     1      43.913   4.672   9.987  0.00  0.00    +0.000 C 
BRANCH   7  10
ATOM      8  C   UNL     1      45.633   4.129   8.324  0.00  0.00    +0.000 C 
ATOM      9  O   UNL     1      46.144   5.239   8.406  0.00  0.00    +0.000 OA
ATOM     10  N   UNL     1      44.509   3.759   9.036  0.00  0.00    +0.000 N 
ATOM     11  H   UNL     1      44.257   2.782   9.098  0.00  0.00    +0.000 HD
BRANCH   8  16
ATOM     12  C   UNL     1      46.938   0.759   7.213  0.00  0.00    +0.000 A 
ATOM     13  C   UNL     1      47.344   1.032   5.906  0.00  0.00    +0.000 A 
ATOM     14  C   UNL     1      47.222   2.324   5.386  0.00  0.00    +0.000 A 
ATOM     15  C   UNL     1      46.676   3.347   6.163  0.00  0.00    +0.000 A 
ATOM     16  C   UNL     1      46.248   3.077   7.468  0.00  0.00    +0.000 A 
ATOM     17  C   UNL     1      46.407   1.789   7.996  0.00  0.00    +0.000 A 
BRANCH  12  19
ATOM     18  C   UNL     1      46.640  -1.595   7.053  0.00  0.00    +0.000 C 
ATOM     19  O   UNL     1      47.005  -0.461   7.831  0.00  0.00    +0.000 OA
ENDBRANCH  12  19
ENDBRANCH   8  16
ENDBRANCH   7  10
ENDBRANCH   1   7
BRANCH   4  20
ATOM     20  C   UNL     1      47.028   4.655  14.936  0.00  0.00    +0.000 C 
BRANCH  20  21
ATOM     21  N   UNL     1      47.719   5.902  15.135  0.00  0.00    +0.000 N 
ATOM     22  C   UNL     1      48.788   6.004  15.987  0.00  0.00    +0.000 C 
ATOM     23  O   UNL     1      49.242   5.036  16.593  0.00  0.00    +0.000 OA
ATOM     24  H   UNL     1      47.213   6.744  14.881  0.00  0.00    +0.000 HD
BRANCH  22  25
ATOM     25  C   UNL     1      49.412   7.332  16.088  0.00  0.00    +0.000 A 
ATOM     26  C   UNL     1      49.580   7.933  17.327  0.00  0.00    +0.000 A 
ATOM     27  S   UNL     1      50.391   9.433  17.254  0.00  0.00    +0.000 S 
ATOM     28  C   UNL     1      50.487   9.362  15.558  0.00  0.00    +0.000 A 
ATOM     29  N   UNL     1      51.060  10.369  14.845  0.00  0.00    +0.000 NA
ATOM     30  C   UNL     1      51.038  10.195  13.564  0.00  0.00    +0.000 A 
ATOM     31  N   UNL     1      50.502   9.103  12.934  0.00  0.00    +0.000 N 
ATOM     32  C   UNL     1      49.937   8.050  13.614  0.00  0.00    +0.000 A 
ATOM     33  O   UNL     1      49.501   7.073  13.020  0.00  0.00    +0.000 OA
ATOM     34  C   UNL     1      49.927   8.202  15.055  0.00  0.00    +0.000 A 
ATOM     35  H   UNL     1      50.524   9.022  11.928  0.00  0.00    +0.000 HD
ENDBRANCH  22  25
ENDBRANCH  20  21
ENDBRANCH   4  20
TORSDOF 7
ENDMDL
MODEL 2
REMARK VINA RESULT:    -7.498      2.449      3.499
REMARK INTER + INTRA:         -11.771
REMARK INTER:                 -10.748
REMARK INTRA:                  -1.023
REMARK UNBOUND:                -1.206
REMARK  Name = 
REMARK  8 active torsions:
REMARK  status: ('A' for Active; 'I' for Inactive)
REMARK    1  A    between atoms: C_1  and  O_2
REMARK    2  A    between atoms: O_2  and  C_3
REMARK    3  A    between atoms: C_7  and  C_8
REMARK    4  A    between atoms: N_10  and  C_11
REMARK    5  A    between atoms: C_11  and  C_12
REMARK    6  A    between atoms: C_15  and  C_16
REMARK    7  A    between atoms: C_16  and  N_17
REMARK    8  A    between atoms: C_18  and  C_20
REMARK                            x       y       z     vdW  Elec       q    Type
REMARK                         _______ _______ _______ _____ _____    ______ ____
ROOT
ATOM      1  C   UNL     1      45.219   4.777  11.796  0.00  0.00    +0.000 A 
ATOM      2  C   UNL     1      45.601   6.105  11.552  0.00  0.00    +0.000 A 
ATOM      3  C   UNL     1      46.581   6.724  12.341  0.00  0.00    +0.000 A 
ATOM      4  C   UNL     1      47.213   6.021  13.375  0.00  0.00    +0.000 A 
ATOM      5  C   UNL     1      46.806   4.706  13.637  0.00  0.00    +0.000 A 
ATOM      6  C   UNL     1      45.829   4.087  12.851  0.00  0.00    +0.000 A 
ENDROOT
BRANCH   1   7
ATOM      7  C   UNL     1      44.205   4.089  10.918  0.00  0.00    +0.000 C 
BRANCH   7  10
ATOM      8  C   UNL     1      45.294   3.817   8.737  0.00  0.00    +0.000 C 
ATOM      9  O   UNL     1      45.129   4.994   8.443  0.00  0.00    +0.000 OA
ATOM     10  N   UNL     1      44.846   3.262   9.919  0.00  0.00    +0.000 N 
ATOM     11  H   UNL     1      45.190   2.356  10.207  0.00  0.00    +0.000 HD
BRANCH   8  16
ATOM     12  C   UNL     1      46.903   0.680   7.368  0.00  0.00    +0.000 A 
ATOM     13  C   UNL     1      47.424   1.138   6.158  0.00  0.00    +0.000 A 
ATOM     14  C   UNL     1      47.282   2.480   5.791  0.00  0.00    +0.000 A 
ATOM     15  C   UNL     1      46.600   3.368   6.624  0.00  0.00    +0.000 A 
ATOM     16  C   UNL     1      46.056   2.913   7.830  0.00  0.00    +0.000 A 
ATOM     17  C   UNL     1      46.234   1.576   8.209  0.00  0.00    +0.000 A 
BRANCH  12  19
ATOM     18  C   UNL     1      46.621  -1.639   6.923  0.00  0.00    +0.000 C 
ATOM     19  O   UNL     1      46.977  -0.605   7.834  0.00  0.00    +0.000 OA
ENDBRANCH  12  19
ENDBRANCH   8  16
ENDBRANCH   7  10
ENDBRANCH   1   7
BRANCH   4  20
ATOM     20  C   UNL     1      48.298   6.657  14.211  0.00  0.00    +0.000 C 
BRANCH  20  21
ATOM     21  N   UNL     1      48.121   6.376  15.611  0.00  0.00    +0.000 N 
ATOM     22  C   UNL     1      49.188   6.118  16.433  0.00  0.00    +0.000 C 
ATOM     23  O   UNL     1      50.350   6.154  16.035  0.00  0.00    +0.000 OA
ATOM     24  H   UNL     1      47.197   6.070  15.897  0.00  0.00    +0.000 HD
BRANCH  22  25
ATOM     25  C   UNL     1      48.869   5.860  17.845  0.00  0.00    +0.000 A 
ATOM     26  C   UNL     1      49.083   4.603  18.391  0.00  0.00    +0.000 A 
ATOM     27  S   UNL     1      48.730   4.513  20.059  0.00  0.00    +0.000 S 
ATOM     28  C   UNL     1      48.218   6.135  20.094  0.00  0.00    +0.000 A 
ATOM     29  N   UNL     1      47.757   6.700  21.243  0.00  0.00    +0.000 NA
ATOM     30  C   UNL     1      47.377   7.929  21.117  0.00  0.00    +0.000 A 
ATOM     31  N   UNL     1      47.421   8.644  19.949  0.00  0.00    +0.000 N 
ATOM     32  C   UNL     1      47.902   8.122  18.772  0.00  0.00    +0.000 A 
ATOM     33  O   UNL     1      47.961   8.801  17.755  0.00  0.00    +0.000 OA
ATOM     34  C   UNL     1      48.333   6.742  18.858  0.00  0.00    +0.000 A 
ATOM     35  H   UNL     1      47.115   9.604  19.918  0.00  0.00    +0.000 HD
ENDBRANCH  22  25
ENDBRANCH  20  21
ENDBRANCH   4  20
TORSDOF 7
ENDMDL
MODEL 3
REMARK VINA RESULT:    -7.426      2.083      3.661
REMARK INTER + INTRA:         -11.671
REMARK INTER:                 -10.527
REMARK INTRA:                  -1.143
REMARK UNBOUND:                -1.206
REMARK  Name = 
REMARK  8 active torsions:
REMARK  status: ('A' for Active; 'I' for Inactive)
REMARK    1  A    between atoms: C_1  and  O_2
REMARK    2  A    between atoms: O_2  and  C_3
REMARK    3  A    between atoms: C_7  and  C_8
REMARK    4  A    between atoms: N_10  and  C_11
REMARK    5  A    between atoms: C_11  and  C_12
REMARK    6  A    between atoms: C_15  and  C_16
REMARK    7  A    between atoms: C_16  and  N_17
REMARK    8  A    between atoms: C_18  and  C_20
REMARK                            x       y       z     vdW  Elec       q    Type
REMARK                         _______ _______ _______ _____ _____    ______ ____
ROOT
ATOM      1  C   UNL     1      45.287   6.588  11.233  0.00  0.00    +0.000 A 
ATOM      2  C   UNL     1      46.598   6.184  11.526  0.00  0.00    +0.000 A 
ATOM      3  C   UNL     1      47.373   6.890  12.457  0.00  0.00    +0.000 A 
ATOM      4  C   UNL     1      46.845   8.000  13.129  0.00  0.00    +0.000 A 
ATOM      5  C   UNL     1      45.547   8.421  12.809  0.00  0.00    +0.000 A 
ATOM      6  C   UNL     1      44.773   7.717  11.881  0.00  0.00    +0.000 A 
ENDROOT
BRANCH   1   7
ATOM      7  C   UNL     1      44.431   5.801  10.273  0.00  0.00    +0.000 C 
BRANCH   7  10
ATOM      8  C   UNL     1      44.905   3.641   9.212  0.00  0.00    +0.000 C 
ATOM      9  O   UNL     1      43.973   3.090   9.785  0.00  0.00    +0.000 OA
ATOM     10  N   UNL     1      45.237   4.966   9.409  0.00  0.00    +0.000 N 
ATOM     11  H   UNL     1      45.867   5.424   8.764  0.00  0.00    +0.000 HD
BRANCH   8  16
ATOM     12  C   UNL     1      46.745   0.805   7.518  0.00  0.00    +0.000 A 
ATOM     13  C   UNL     1      47.185   1.418   6.344  0.00  0.00    +0.000 A 
ATOM     14  C   UNL     1      46.911   2.769   6.109  0.00  0.00    +0.000 A 
ATOM     15  C   UNL     1      46.178   3.511   7.037  0.00  0.00    +0.000 A 
ATOM     16  C   UNL     1      45.716   2.899   8.207  0.00  0.00    +0.000 A 
ATOM     17  C   UNL     1      46.025   1.554   8.454  0.00  0.00    +0.000 A 
BRANCH  12  19
ATOM     18  C   UNL     1      46.592  -1.483   6.889  0.00  0.00    +0.000 C 
ATOM     19  O   UNL     1      46.949  -0.505   7.859  0.00  0.00    +0.000 OA
ENDBRANCH  12  19
ENDBRANCH   8  16
ENDBRANCH   7  10
ENDBRANCH   1   7
BRANCH   4  20
ATOM     20  C   UNL     1      47.649   8.751  14.163  0.00  0.00    +0.000 C 
BRANCH  20  21
ATOM     21  N   UNL     1      47.962   7.921  15.297  0.00  0.00    +0.000 N 
ATOM     22  C   UNL     1      49.205   7.365  15.459  0.00  0.00    +0.000 C 
ATOM     23  O   UNL     1      50.129   7.577  14.677  0.00  0.00    +0.000 OA
ATOM     24  H   UNL     1      47.175   7.512  15.788  0.00  0.00    +0.000 HD
BRANCH  22  25
ATOM     25  C   UNL     1      49.396   6.549  16.667  0.00  0.00    +0.000 A 
ATOM     26  C   UNL     1      50.243   6.983  17.677  0.00  0.00    +0.000 A 
ATOM     27  S   UNL     1      50.278   5.946  19.032  0.00  0.00    +0.000 S 
ATOM     28  C   UNL     1      49.213   4.848  18.289  0.00  0.00    +0.000 A 
ATOM     29  N   UNL     1      48.837   3.701  18.917  0.00  0.00    +0.000 NA
ATOM     30  C   UNL     1      48.047   2.948  18.224  0.00  0.00    +0.000 A 
ATOM     31  N   UNL     1      47.594   3.242  16.964  0.00  0.00    +0.000 N 
ATOM     32  C   UNL     1      47.926   4.401  16.303  0.00  0.00    +0.000 A 
ATOM     33  O   UNL     1      47.473   4.649  15.193  0.00  0.00    +0.000 OA
ATOM     34  C   UNL     1      48.820   5.275  17.034  0.00  0.00    +0.000 A 
ATOM     35  H   UNL     1      46.971   2.616  16.478  0.00  0.00    +0.000 HD
ENDBRANCH  22  25
ENDBRANCH  20  21
ENDBRANCH   4  20
TORSDOF 7
ENDMDL
MODEL 4
REMARK VINA RESULT:    -7.172      5.163      7.923
REMARK INTER + INTRA:         -11.313
REMARK INTER:                 -10.194
REMARK INTRA:                  -1.119
REMARK UNBOUND:                -1.206
REMARK  Name = 
REMARK  8 active torsions:
REMARK  status: ('A' for Active; 'I' for Inactive)
REMARK    1  A    between atoms: C_1  and  O_2
REMARK    2  A    between atoms: O_2  and  C_3
REMARK    3  A    between atoms: C_7  and  C_8
REMARK    4  A    between atoms: N_10  and  C_11
REMARK    5  A    between atoms: C_11  and  C_12
REMARK    6  A    between atoms: C_15  and  C_16
REMARK    7  A    between atoms: C_16  and  N_17
REMARK    8  A    between atoms: C_18  and  C_20
REMARK                            x       y       z     vdW  Elec       q    Type
REMARK                         _______ _______ _______ _____ _____    ______ ____
ROOT
ATOM      1  C   UNL     1      44.824   9.099  11.803  0.00  0.00    +0.000 A 
ATOM      2  C   UNL     1      44.230   7.952  11.255  0.00  0.00    +0.000 A 
ATOM      3  C   UNL     1      44.620   6.674  11.677  0.00  0.00    +0.000 A 
ATOM      4  C   UNL     1      45.594   6.517  12.672  0.00  0.00    +0.000 A 
ATOM      5  C   UNL     1      46.209   7.663  13.193  0.00  0.00    +0.000 A 
ATOM      6  C   UNL     1      45.821   8.940  12.772  0.00  0.00    +0.000 A 
ENDROOT
BRANCH   1   7
ATOM      7  C   UNL     1      44.371  10.478  11.391  0.00  0.00    +0.000 C 
BRANCH   7  10
ATOM      8  C   UNL     1      41.978  10.798  10.965  0.00  0.00    +0.000 C 
ATOM      9  O   UNL     1      42.117  10.670   9.755  0.00  0.00    +0.000 OA
ATOM     10  N   UNL     1      43.030  10.754  11.857  0.00  0.00    +0.000 N 
ATOM     11  H   UNL     1      42.843  10.650  12.845  0.00  0.00    +0.000 HD
BRANCH   8  16
ATOM     12  C   UNL     1      38.273  10.316  11.550  0.00  0.00    +0.000 A 
ATOM     13  C   UNL     1      38.048  11.163  12.637  0.00  0.00    +0.000 A 
ATOM     14  C   UNL     1      39.096  11.920  13.169  0.00  0.00    +0.000 A 
ATOM     15  C   UNL     1      40.380  11.821  12.630  0.00  0.00    +0.000 A 
ATOM     16  C   UNL     1      40.619  10.960  11.554  0.00  0.00    +0.000 A 
ATOM     17  C   UNL     1      39.556  10.231  11.002  0.00  0.00    +0.000 A 
BRANCH  12  19
ATOM     18  C   UNL     1      36.123   9.305  11.663  0.00  0.00    +0.000 C 
ATOM     19  O   UNL     1      37.332   9.527  10.945  0.00  0.00    +0.000 OA
ENDBRANCH  12  19
ENDBRANCH   8  16
ENDBRANCH   7  10
ENDBRANCH   1   7
BRANCH   4  20
ATOM     20  C   UNL     1      46.000   5.150  13.168  0.00  0.00    +0.000 C 
BRANCH  20  21
ATOM     21  N   UNL     1      46.623   5.220  14.464  0.00  0.00    +0.000 N 
ATOM     22  C   UNL     1      47.266   4.140  15.012  0.00  0.00    +0.000 C 
ATOM     23  O   UNL     1      47.386   3.072  14.415  0.00  0.00    +0.000 OA
ATOM     24  H   UNL     1      46.308   5.965  15.076  0.00  0.00    +0.000 HD
BRANCH  22  25
ATOM     25  C   UNL     1      47.870   4.350  16.336  0.00  0.00    +0.000 A 
ATOM     26  C   UNL     1      47.531   3.523  17.397  0.00  0.00    +0.000 A 
ATOM     27  S   UNL     1      48.389   3.868  18.832  0.00  0.00    +0.000 S 
ATOM     28  C   UNL     1      49.196   5.175  18.102  0.00  0.00    +0.000 A 
ATOM     29  N   UNL     1      50.081   5.934  18.804  0.00  0.00    +0.000 NA
ATOM     30  C   UNL     1      50.598   6.909  18.131  0.00  0.00    +0.000 A 
ATOM     31  N   UNL     1      50.313   7.190  16.820  0.00  0.00    +0.000 N 
ATOM     32  C   UNL     1      49.446   6.437  16.066  0.00  0.00    +0.000 A 
ATOM     33  O   UNL     1      49.243   6.695  14.886  0.00  0.00    +0.000 OA
ATOM     34  C   UNL     1      48.831   5.335  16.778  0.00  0.00    +0.000 A 
ATOM     35  H   UNL     1      50.757   7.964  16.348  0.00  0.00    +0.000 HD
ENDBRANCH  22  25
ENDBRANCH  20  21
ENDBRANCH   4  20
TORSDOF 7
ENDMDL
MODEL 5
REMARK VINA RESULT:    -7.043      5.256      7.776
REMARK INTER + INTRA:         -11.130
REMARK INTER:                 -10.251
REMARK INTRA:                  -0.879
REMARK UNBOUND:                -1.206
REMARK  Name = 
REMARK  8 active torsions:
REMARK  status: ('A' for Active; 'I' for Inactive)
REMARK    1  A    between atoms: C_1  and  O_2
REMARK    2  A    between atoms: O_2  and  C_3
REMARK    3  A    between atoms: C_7  and  C_8
REMARK    4  A    between atoms: N_10  and  C_11
REMARK    5  A    between atoms: C_11  and  C_12
REMARK    6  A    between atoms: C_15  and  C_16
REMARK    7  A    between atoms: C_16  and  N_17
REMARK    8  A    between atoms: C_18  and  C_20
REMARK                            x       y       z     vdW  Elec       q    Type
REMARK                         _______ _______ _______ _____ _____    ______ ____
ROOT
ATOM      1  C   UNL     1      45.206   8.283  11.964  0.00  0.00    +0.000 A 
ATOM      2  C   UNL     1      44.290   7.220  11.959  0.00  0.00    +0.000 A 
ATOM      3  C   UNL     1      44.587   6.018  12.615  0.00  0.00    +0.000 A 
ATOM      4  C   UNL     1      45.795   5.861  13.307  0.00  0.00    +0.000 A 
ATOM      5  C   UNL     1      46.722   6.912  13.281  0.00  0.00    +0.000 A 
ATOM      6  C   UNL     1      46.427   8.113  12.627  0.00  0.00    +0.000 A 
ENDROOT
BRANCH   1   7
ATOM      7  C   UNL     1      44.871   9.598  11.305  0.00  0.00    +0.000 C 
BRANCH   7  10
ATOM      8  C   UNL     1      42.789  10.894  11.296  0.00  0.00    +0.000 C 
ATOM      9  O   UNL     1      43.328  11.873  11.797  0.00  0.00    +0.000 OA
ATOM     10  N   UNL     1      43.452   9.710  11.044  0.00  0.00    +0.000 N 
ATOM     11  H   UNL     1      43.027   9.018  10.443  0.00  0.00    +0.000 HD
BRANCH   8  16
ATOM     12  C   UNL     1      39.087  10.136  11.147  0.00  0.00    +0.000 A 
ATOM     13  C   UNL     1      38.654  11.043  10.179  0.00  0.00    +0.000 A 
ATOM     14  C   UNL     1      39.569  11.889   9.546  0.00  0.00    +0.000 A 
ATOM     15  C   UNL     1      40.921  11.847   9.891  0.00  0.00    +0.000 A 
ATOM     16  C   UNL     1      41.361  10.955  10.874  0.00  0.00    +0.000 A 
ATOM     17  C   UNL     1      40.445  10.084  11.479  0.00  0.00    +0.000 A 
BRANCH  12  19
ATOM     18  C   UNL     1      36.897   9.298  11.544  0.00  0.00    +0.000 C 
ATOM     19  O   UNL     1      38.290   9.260  11.835  0.00  0.00    +0.000 OA
ENDBRANCH  12  19
ENDBRANCH   8  16
ENDBRANCH   7  10
ENDBRANCH   1   7
BRANCH   4  20
ATOM     20  C   UNL     1      46.117   4.588  14.052  0.00  0.00    +0.000 C 
BRANCH  20  21
ATOM     21  N   UNL     1      47.294   4.733  14.867  0.00  0.00    +0.000 N 
ATOM     22  C   UNL     1      47.342   4.260  16.152  0.00  0.00    +0.000 C 
ATOM     23  O   UNL     1      46.406   3.650  16.665  0.00  0.00    +0.000 OA
ATOM     24  H   UNL     1      47.953   5.452  14.585  0.00  0.00    +0.000 HD
BRANCH  22  25
ATOM     25  C   UNL     1      48.609   4.462  16.870  0.00  0.00    +0.000 A 
ATOM     26  C   UNL     1      48.893   5.688  17.454  0.00  0.00    +0.000 A 
ATOM     27  S   UNL     1      50.371   5.711  18.309  0.00  0.00    +0.000 S 
ATOM     28  C   UNL     1      50.713   4.103  17.873  0.00  0.00    +0.000 A 
ATOM     29  N   UNL     1      51.865   3.499  18.270  0.00  0.00    +0.000 NA
ATOM     30  C   UNL     1      52.005   2.287  17.843  0.00  0.00    +0.000 A 
ATOM     31  N   UNL     1      51.095   1.624  17.062  0.00  0.00    +0.000 N 
ATOM     32  C   UNL     1      49.907   2.186  16.660  0.00  0.00    +0.000 A 
ATOM     33  O   UNL     1      49.100   1.551  15.993  0.00  0.00    +0.000 OA
ATOM     34  C   UNL     1      49.706   3.550  17.104  0.00  0.00    +0.000 A 
ATOM     35  H   UNL     1      51.260   0.673  16.768  0.00  0.00    +0.000 HD
ENDBRANCH  22  25
ENDBRANCH  20  21
ENDBRANCH   4  20
TORSDOF 7
ENDMDL
MODEL 6
REMARK VINA RESULT:    -6.719      3.504      5.478
REMARK INTER + INTRA:         -10.675
REMARK INTER:                  -9.560
REMARK INTRA:                  -1.115
REMARK UNBOUND:                -1.206
REMARK  Name = 
REMARK  8 active torsions:
REMARK  status: ('A' for Active; 'I' for Inactive)
REMARK    1  A    between atoms: C_1  and  O_2
REMARK    2  A    between atoms: O_2  and  C_3
REMARK    3  A    between atoms: C_7  and  C_8
REMARK    4  A    between atoms: N_10  and  C_11
REMARK    5  A    between atoms: C_11  and  C_12
REMARK    6  A    between atoms: C_15  and  C_16
REMARK    7  A    between atoms: C_16  and  N_17
REMARK    8  A    between atoms: C_18  and  C_20
REMARK                            x       y       z     vdW  Elec       q    Type
REMARK                         _______ _______ _______ _____ _____    ______ ____
ROOT
ATOM      1  C   UNL     1      47.855   7.843  13.450  0.00  0.00    +0.000 A 
ATOM      2  C   UNL     1      48.025   8.967  14.271  0.00  0.00    +0.000 A 
ATOM      3  C   UNL     1      48.449   8.825  15.600  0.00  0.00    +0.000 A 
ATOM      4  C   UNL     1      48.730   7.558  16.127  0.00  0.00    +0.000 A 
ATOM      5  C   UNL     1      48.526   6.434  15.315  0.00  0.00    +0.000 A 
ATOM      6  C   UNL     1      48.104   6.575  13.989  0.00  0.00    +0.000 A 
ENDROOT
BRANCH   1   7
ATOM      7  C   UNL     1      47.451   7.993  12.005  0.00  0.00    +0.000 C 
BRANCH   7  10
ATOM      8  C   UNL     1      45.674   6.506  11.203  0.00  0.00    +0.000 C 
ATOM      9  O   UNL     1      44.793   7.307  11.493  0.00  0.00    +0.000 OA
ATOM     10  N   UNL     1      47.013   6.733  11.445  0.00  0.00    +0.000 N 
ATOM     11  H   UNL     1      47.707   6.148  11.000  0.00  0.00    +0.000 HD
BRANCH   8  16
ATOM     12  C   UNL     1      45.426   3.900   8.474  0.00  0.00    +0.000 A 
ATOM     13  C   UNL     1      44.785   2.855   9.141  0.00  0.00    +0.000 A 
ATOM     14  C   UNL     1      44.401   3.003  10.477  0.00  0.00    +0.000 A 
ATOM     15  C   UNL     1      44.674   4.188  11.161  0.00  0.00    +0.000 A 
ATOM     16  C   UNL     1      45.335   5.233  10.506  0.00  0.00    +0.000 A 
ATOM     17  C   UNL     1      45.684   5.093   9.156  0.00  0.00    +0.000 A 
BRANCH  12  19
ATOM     18  C   UNL     1      46.690   2.791   6.792  0.00  0.00    +0.000 C 
ATOM     19  O   UNL     1      45.850   3.875   7.172  0.00  0.00    +0.000 OA
ENDBRANCH  12  19
ENDBRANCH   8  16
ENDBRANCH   7  10
ENDBRANCH   1   7
BRANCH   4  20
ATOM     20  C   UNL     1      49.224   7.386  17.544  0.00  0.00    +0.000 C 
BRANCH  20  21
ATOM     21  N   UNL     1      50.239   6.369  17.632  0.00  0.00    +0.000 N 
ATOM     22  C   UNL     1      50.618   5.834  18.836  0.00  0.00    +0.000 C 
ATOM     23  O   UNL     1      50.089   6.158  19.897  0.00  0.00    +0.000 OA
ATOM     24  H   UNL     1      50.869   6.290  16.840  0.00  0.00    +0.000 HD
BRANCH  22  25
ATOM     25  C   UNL     1      51.656   4.794  18.784  0.00  0.00    +0.000 A 
ATOM     26  C   UNL     1      52.893   5.010  19.375  0.00  0.00    +0.000 A 
ATOM     27  S   UNL     1      53.939   3.665  19.282  0.00  0.00    +0.000 S 
ATOM     28  C   UNL     1      52.799   2.769  18.392  0.00  0.00    +0.000 A 
ATOM     29  N   UNL     1      53.077   1.508  17.964  0.00  0.00    +0.000 NA
ATOM     30  C   UNL     1      52.131   0.958  17.276  0.00  0.00    +0.000 A 
ATOM     31  N   UNL     1      50.931   1.552  16.984  0.00  0.00    +0.000 N 
ATOM     32  C   UNL     1      50.597   2.814  17.417  0.00  0.00    +0.000 A 
ATOM     33  O   UNL     1      49.501   3.299  17.169  0.00  0.00    +0.000 OA
ATOM     34  C   UNL     1      51.630   3.478  18.186  0.00  0.00    +0.000 A 
ATOM     35  H   UNL     1      50.229   1.066  16.448  0.00  0.00    +0.000 HD
ENDBRANCH  22  25
ENDBRANCH  20  21
ENDBRANCH   4  20
TORSDOF 7
ENDMDL
MODEL 7
REMARK VINA RESULT:    -6.642      3.529      5.330
REMARK INTER + INTRA:         -10.566
REMARK INTER:                  -9.390
REMARK INTRA:                  -1.176
REMARK UNBOUND:                -1.206
REMARK  Name = 
REMARK  8 active torsions:
REMARK  status: ('A' for Active; 'I' for Inactive)
REMARK    1  A    between atoms: C_1  and  O_2
REMARK    2  A    between atoms: O_2  and  C_3
REMARK    3  A    between atoms: C_7  and  C_8
REMARK    4  A    between atoms: N_10  and  C_11
REMARK    5  A    between atoms: C_11  and  C_12
REMARK    6  A    between atoms: C_15  and  C_16
REMARK    7  A    between atoms: C_16  and  N_17
REMARK    8  A    between atoms: C_18  and  C_20
REMARK                            x       y       z     vdW  Elec       q    Type
REMARK                         _______ _______ _______ _____ _____    ______ ____
ROOT
ATOM      1  C   UNL     1      45.619   7.546  12.608  0.00  0.00    +0.000 A 
ATOM      2  C   UNL     1      45.117   8.825  12.327  0.00  0.00    +0.000 A 
ATOM      3  C   UNL     1      45.987   9.900  12.096  0.00  0.00    +0.000 A 
ATOM      4  C   UNL     1      47.375   9.713  12.121  0.00  0.00    +0.000 A 
ATOM      5  C   UNL     1      47.873   8.441  12.435  0.00  0.00    +0.000 A 
ATOM      6  C   UNL     1      47.007   7.368  12.665  0.00  0.00    +0.000 A 
ENDROOT
BRANCH   1   7
ATOM      7  C   UNL     1      44.690   6.375  12.804  0.00  0.00    +0.000 C 
BRANCH   7  10
ATOM      8  C   UNL     1      44.118   5.009  10.848  0.00  0.00    +0.000 C 
ATOM      9  O   UNL     1      43.044   5.577  10.693  0.00  0.00    +0.000 OA
ATOM     10  N   UNL     1      44.988   5.303  11.878  0.00  0.00    +0.000 N 
ATOM     11  H   UNL     1      45.940   4.965  11.839  0.00  0.00    +0.000 HD
BRANCH   8  16
ATOM     12  C   UNL     1      45.779   3.459   7.826  0.00  0.00    +0.000 A 
ATOM     13  C   UNL     1      45.511   2.104   8.022  0.00  0.00    +0.000 A 
ATOM     14  C   UNL     1      44.761   1.687   9.126  0.00  0.00    +0.000 A 
ATOM     15  C   UNL     1      44.291   2.620  10.051  0.00  0.00    +0.000 A 
ATOM     16  C   UNL     1      44.572   3.979   9.873  0.00  0.00    +0.000 A 
ATOM     17  C   UNL     1      45.293   4.394   8.745  0.00  0.00    +0.000 A 
BRANCH  12  19
ATOM     18  C   UNL     1      46.856   3.098   5.736  0.00  0.00    +0.000 C 
ATOM     19  O   UNL     1      46.500   3.987   6.789  0.00  0.00    +0.000 OA
ENDBRANCH  12  19
ENDBRANCH   8  16
ENDBRANCH   7  10
ENDBRANCH   1   7
BRANCH   4  20
ATOM     20  C   UNL     1      48.328  10.849  11.837  0.00  0.00    +0.000 C 
BRANCH  20  21
ATOM     21  N   UNL     1      49.411  10.433  10.986  0.00  0.00    +0.000 N 
ATOM     22  C   UNL     1      50.702  10.834  11.217  0.00  0.00    +0.000 C 
ATOM     23  O   UNL     1      51.013  11.531  12.179  0.00  0.00    +0.000 OA
ATOM     24  H   UNL     1      49.158  10.106  10.059  0.00  0.00    +0.000 HD
BRANCH  22  25
ATOM     25  C   UNL     1      51.715  10.326  10.279  0.00  0.00    +0.000 A 
ATOM     26  C   UNL     1      52.372  11.196   9.421  0.00  0.00    +0.000 A 
ATOM     27  S   UNL     1      53.566  10.439   8.464  0.00  0.00    +0.000 S 
ATOM     28  C   UNL     1      53.201   8.912   9.118  0.00  0.00    +0.000 A 
ATOM     29  N   UNL     1      53.861   7.796   8.704  0.00  0.00    +0.000 NA
ATOM     30  C   UNL     1      53.462   6.702   9.265  0.00  0.00    +0.000 A 
ATOM     31  N   UNL     1      52.469   6.624  10.206  0.00  0.00    +0.000 N 
ATOM     32  C   UNL     1      51.794   7.728  10.672  0.00  0.00    +0.000 A 
ATOM     33  O   UNL     1      50.937   7.626  11.541  0.00  0.00    +0.000 OA
ATOM     34  C   UNL     1      52.197   8.980  10.066  0.00  0.00    +0.000 A 
ATOM     35  H   UNL     1      52.208   5.739  10.612  0.00  0.00    +0.000 HD
ENDBRANCH  22  25
ENDBRANCH  20  21
ENDBRANCH   4  20
TORSDOF 7
ENDMDL
MODEL 8
REMARK VINA RESULT:    -6.551      4.940      7.361
REMARK INTER + INTRA:         -10.438
REMARK INTER:                  -9.319
REMARK INTRA:                  -1.119
REMARK UNBOUND:                -1.206
REMARK  Name = 
REMARK  8 active torsions:
REMARK  status: ('A' for Active; 'I' for Inactive)
REMARK    1  A    between atoms: C_1  and  O_2
REMARK    2  A    between atoms: O_2  and  C_3
REMARK    3  A    between atoms: C_7  and  C_8
REMARK    4  A    between atoms: N_10  and  C_11
REMARK    5  A    between atoms: C_11  and  C_12
REMARK    6  A    between atoms: C_15  and  C_16
REMARK    7  A    between atoms: C_16  and  N_17
REMARK    8  A    between atoms: C_18  and  C_20
REMARK                            x       y       z     vdW  Elec       q    Type
REMARK                         _______ _______ _______ _____ _____    ______ ____
ROOT
ATOM      1  C   UNL     1      48.964   7.284  13.345  0.00  0.00    +0.000 A 
ATOM      2  C   UNL     1      49.996   7.842  14.113  0.00  0.00    +0.000 A 
ATOM      3  C   UNL     1      51.133   8.385  13.498  0.00  0.00    +0.000 A 
ATOM      4  C   UNL     1      51.250   8.400  12.102  0.00  0.00    +0.000 A 
ATOM      5  C   UNL     1      50.233   7.810  11.338  0.00  0.00    +0.000 A 
ATOM      6  C   UNL     1      49.098   7.269  11.951  0.00  0.00    +0.000 A 
ENDROOT
BRANCH   1   7
ATOM      7  C   UNL     1      47.716   6.747  13.998  0.00  0.00    +0.000 C 
BRANCH   7  10
ATOM      8  C   UNL     1      45.812   6.100  12.594  0.00  0.00    +0.000 C 
ATOM      9  O   UNL     1      45.208   7.138  12.834  0.00  0.00    +0.000 OA
ATOM     10  N   UNL     1      47.040   5.795  13.144  0.00  0.00    +0.000 N 
ATOM     11  H   UNL     1      47.588   5.039  12.754  0.00  0.00    +0.000 HD
BRANCH   8  16
ATOM     12  C   UNL     1      45.090   4.341   9.325  0.00  0.00    +0.000 A 
ATOM     13  C   UNL     1      44.302   3.271   9.751  0.00  0.00    +0.000 A 
ATOM     14  C   UNL     1      43.974   3.131  11.103  0.00  0.00    +0.000 A 
ATOM     15  C   UNL     1      44.449   4.049  12.041  0.00  0.00    +0.000 A 
ATOM     16  C   UNL     1      45.257   5.113  11.626  0.00  0.00    +0.000 A 
ATOM     17  C   UNL     1      45.552   5.269  10.264  0.00  0.00    +0.000 A 
BRANCH  12  19
ATOM     18  C   UNL     1      46.170   3.535   7.365  0.00  0.00    +0.000 C 
ATOM     19  O   UNL     1      45.478   4.583   8.034  0.00  0.00    +0.000 OA
ENDBRANCH  12  19
ENDBRANCH   8  16
ENDBRANCH   7  10
ENDBRANCH   1   7
BRANCH   4  20
ATOM     20  C   UNL     1      52.448   9.014  11.418  0.00  0.00    +0.000 C 
BRANCH  20  21
ATOM     21  N   UNL     1      52.634   8.481  10.094  0.00  0.00    +0.000 N 
ATOM     22  C   UNL     1      53.783   8.710   9.382  0.00  0.00    +0.000 C 
ATOM     23  O   UNL     1      54.730   9.343   9.844  0.00  0.00    +0.000 OA
ATOM     24  H   UNL     1      51.794   8.209   9.595  0.00  0.00    +0.000 HD
BRANCH  22  25
ATOM     25  C   UNL     1      53.849   8.097   8.047  0.00  0.00    +0.000 A 
ATOM     26  C   UNL     1      53.940   8.895   6.915  0.00  0.00    +0.000 A 
ATOM     27  S   UNL     1      54.087   8.007   5.464  0.00  0.00    +0.000 S 
ATOM     28  C   UNL     1      53.969   6.527   6.292  0.00  0.00    +0.000 A 
ATOM     29  N   UNL     1      54.003   5.343   5.622  0.00  0.00    +0.000 NA
ATOM     30  C   UNL     1      53.876   4.300   6.375  0.00  0.00    +0.000 A 
ATOM     31  N   UNL     1      53.724   4.334   7.736  0.00  0.00    +0.000 N 
ATOM     32  C   UNL     1      53.710   5.504   8.458  0.00  0.00    +0.000 A 
ATOM     33  O   UNL     1      53.610   5.496   9.678  0.00  0.00    +0.000 OA
ATOM     34  C   UNL     1      53.840   6.705   7.657  0.00  0.00    +0.000 A 
ATOM     35  H   UNL     1      53.637   3.482   8.270  0.00  0.00    +0.000 HD
ENDBRANCH  22  25
ENDBRANCH  20  21
ENDBRANCH   4  20
TORSDOF 7
ENDMDL
MODEL 9
REMARK VINA RESULT:    -6.542      4.778      7.973
REMARK INTER + INTRA:         -10.425
REMARK INTER:                  -9.450
REMARK INTRA:                  -0.975
REMARK UNBOUND:                -1.206
REMARK  Name = 
REMARK  8 active torsions:
REMARK  status: ('A' for Active; 'I' for Inactive)
REMARK    1  A    between atoms: C_1  and  O_2
REMARK    2  A    between atoms: O_2  and  C_3
REMARK    3  A    between atoms: C_7  and  C_8
REMARK    4  A    between atoms: N_10  and  C_11
REMARK    5  A    between atoms: C_11  and  C_12
REMARK    6  A    between atoms: C_15  and  C_16
REMARK    7  A    between atoms: C_16  and  N_17
REMARK    8  A    between atoms: C_18  and  C_20
REMARK                            x       y       z     vdW  Elec       q    Type
REMARK                         _______ _______ _______ _____ _____    ______ ____
ROOT
ATOM      1  C   UNL     1      50.295   8.994  11.392  0.00  0.00    +0.000 A 
ATOM      2  C   UNL     1      49.545  10.042  11.945  0.00  0.00    +0.000 A 
ATOM      3  C   UNL     1      48.286   9.800  12.511  0.00  0.00    +0.000 A 
ATOM      4  C   UNL     1      47.761   8.502  12.555  0.00  0.00    +0.000 A 
ATOM      5  C   UNL     1      48.497   7.462  11.972  0.00  0.00    +0.000 A 
ATOM      6  C   UNL     1      49.754   7.702  11.407  0.00  0.00    +0.000 A 
ENDROOT
BRANCH   1   7
ATOM      7  C   UNL     1      51.672   9.239  10.830  0.00  0.00    +0.000 C 
BRANCH   7  10
ATOM      8  C   UNL     1      52.838   8.057   9.024  0.00  0.00    +0.000 C 
ATOM      9  O   UNL     1      52.881   9.058   8.319  0.00  0.00    +0.000 OA
ATOM     10  N   UNL     1      52.235   8.031  10.265  0.00  0.00    +0.000 N 
ATOM     11  H   UNL     1      52.411   7.256  10.890  0.00  0.00    +0.000 HD
BRANCH   8  16
ATOM     12  C   UNL     1      54.000   5.242   6.783  0.00  0.00    +0.000 A 
ATOM     13  C   UNL     1      54.761   4.475   7.667  0.00  0.00    +0.000 A 
ATOM     14  C   UNL     1      54.877   4.854   9.008  0.00  0.00    +0.000 A 
ATOM     15  C   UNL     1      54.249   6.012   9.469  0.00  0.00    +0.000 A 
ATOM     16  C   UNL     1      53.501   6.798   8.585  0.00  0.00    +0.000 A 
ATOM     17  C   UNL     1      53.358   6.393   7.251  0.00  0.00    +0.000 A 
BRANCH  12  19
ATOM     18  C   UNL     1      54.734   5.569   4.544  0.00  0.00    +0.000 C 
ATOM     19  O   UNL     1      53.813   4.975   5.453  0.00  0.00    +0.000 OA
ENDBRANCH  12  19
ENDBRANCH   8  16
ENDBRANCH   7  10
ENDBRANCH   1   7
BRANCH   4  20
ATOM     20  C   UNL     1      46.424   8.214  13.195  0.00  0.00    +0.000 C 
BRANCH  20  21
ATOM     21  N   UNL     1      45.951   6.895  12.866  0.00  0.00    +0.000 N 
ATOM     22  C   UNL     1      45.019   6.691  11.881  0.00  0.00    +0.000 C 
ATOM     23  O   UNL     1      44.568   7.608  11.200  0.00  0.00    +0.000 OA
ATOM     24  H   UNL     1      46.084   6.179  13.572  0.00  0.00    +0.000 HD
BRANCH  22  25
ATOM     25  C   UNL     1      44.633   5.293  11.636  0.00  0.00    +0.000 A 
ATOM     26  C   UNL     1      43.933   4.582  12.601  0.00  0.00    +0.000 A 
ATOM     27  S   UNL     1      43.504   3.005  12.109  0.00  0.00    +0.000 S 
ATOM     28  C   UNL     1      44.295   3.195  10.615  0.00  0.00    +0.000 A 
ATOM     29  N   UNL     1      44.327   2.184   9.705  0.00  0.00    +0.000 NA
ATOM     30  C   UNL     1      44.985   2.459   8.627  0.00  0.00    +0.000 A 
ATOM     31  N   UNL     1      45.607   3.654   8.375  0.00  0.00    +0.000 N 
ATOM     32  C   UNL     1      45.579   4.711   9.254  0.00  0.00    +0.000 A 
ATOM     33  O   UNL     1      46.114   5.777   8.980  0.00  0.00    +0.000 OA
ATOM     34  C   UNL     1      44.860   4.450  10.484  0.00  0.00    +0.000 A 
ATOM     35  H   UNL     1      46.100   3.809   7.508  0.00  0.00    +0.000 HD
ENDBRANCH  22  25
ENDBRANCH  20  21
ENDBRANCH   4  20
TORSDOF 7
ENDMDL
