MODEL 1
REMARK VINA RESULT:    -7.755      0.000      0.000
REMARK INTER + INTRA:         -11.481
REMARK INTER:                 -10.702
REMARK INTRA:                  -0.779
REMARK UNBOUND:                -0.779
REMARK  Name = 
REMARK  8 active torsions:
REMARK  status: ('A' for Active; 'I' for Inactive)
REMARK    1  A    between atoms: C_1  and  C_2
REMARK    2  A    between atoms: C_4  and  C_5
REMARK    3  A    between atoms: C_5  and  N_6
REMARK    4  A    between atoms: C_8  and  C_9
REMARK    5  A    between atoms: C_9  and  C_10
REMARK    6  A    between atoms: C_10  and  N_11
REMARK    7  A    between atoms: N_11  and  C_12
REMARK    8  A    between atoms: C_15  and  C_16
REMARK                            x       y       z     vdW  Elec       q    Type
REMARK                         _______ _______ _______ _____ _____    ______ ____
ROOT
ATOM      1  C   UNL     1      43.582   5.202  10.319  0.00  0.00    +0.000 C 
ENDROOT
BRANCH   1   2
ATOM      2  N   UNL     1      43.874   3.758  10.330  0.00  0.00    +0.000 N 
ATOM      3  H   UNL     1      43.027   3.192  10.309  0.00  0.00    +0.000 HD
BRANCH   2   4
ATOM      4  C   UNL     1      44.810   3.300   9.381  0.00  0.00    +0.000 A 
ATOM      5  C   UNL     1      45.108   1.941   9.216  0.00  0.00    +0.000 A 
ATOM      6  C   UNL     1      46.012   1.504   8.244  0.00  0.00    +0.000 A 
ATOM      7  C   UNL     1      46.609   2.414   7.374  0.00  0.00    +0.000 A 
ATOM      8  C   UNL     1      46.288   3.772   7.484  0.00  0.00    +0.000 A 
ATOM      9  C   UNL     1      45.382   4.199   8.471  0.00  0.00    +0.000 A 
BRANCH   7  10
ATOM     10  C   UNL     1      47.567   1.878   6.371  0.00  0.00    +0.000 C 
ATOM     11  N   UNL     1      48.793   2.469   6.279  0.00  0.00    +0.000 N 
ATOM     12  O   UNL     1      47.257   0.958   5.620  0.00  0.00    +0.000 OA
ATOM     13  H   UNL     1      49.022   3.342   6.732  0.00  0.00    +0.000 HD
ATOM     14  H   UNL     1      49.376   2.161   5.512  0.00  0.00    +0.000 HD
ENDBRANCH   7  10
ENDBRANCH   2   4
ENDBRANCH   1   2
BRANCH   1  15
ATOM     15  C   UNL     1      43.622   5.798  11.730  0.00  0.00    +0.000 C 
BRANCH  15  21
ATOM     16  C   UNL     1      48.355   7.534  11.499  0.00  0.00    +0.000 C 
ATOM     17  C   UNL     1      47.319   6.689  12.183  0.00  0.00    +0.000 A 
ATOM     18  C   UNL     1      47.640   5.946  13.326  0.00  0.00    +0.000 A 
ATOM     19  C   UNL     1      46.673   5.150  13.960  0.00  0.00    +0.000 A 
ATOM     20  C   UNL     1      45.372   5.108  13.429  0.00  0.00    +0.000 A 
ATOM     21  C   UNL     1      45.031   5.841  12.283  0.00  0.00    +0.000 A 
ATOM     22  C   UNL     1      46.012   6.636  11.673  0.00  0.00    +0.000 A 
BRANCH  19  23
ATOM     23  C   UNL     1      47.035   4.318  15.165  0.00  0.00    +0.000 C 
BRANCH  23  24
ATOM     24  N   UNL     1      47.657   3.053  14.789  0.00  0.00    +0.000 NA
ATOM     25  H   UNL     1      47.276   2.756  13.892  0.00  0.00    +0.000 HD
ATOM     26  H   UNL     1      47.391   2.338  15.464  0.00  0.00    +0.000 HD
ENDBRANCH  23  24
ENDBRANCH  19  23
ENDBRANCH  15  21
ENDBRANCH   1  15
TORSDOF 7
ENDMDL
MODEL 2
REMARK VINA RESULT:    -7.198      1.864      2.965
REMARK INTER + INTRA:         -10.712
REMARK INTER:                 -10.078
REMARK INTRA:                  -0.635
REMARK UNBOUND:                -0.779
REMARK  Name = 
REMARK  8 active torsions:
REMARK  status: ('A' for Active; 'I' for Inactive)
REMARK    1  A    between atoms: C_1  and  C_2
REMARK    2  A    between atoms: C_4  and  C_5
REMARK    3  A    between atoms: C_5  and  N_6
REMARK    4  A    between atoms: C_8  and  C_9
REMARK    5  A    between atoms: C_9  and  C_10
REMARK    6  A    between atoms: C_10  and  N_11
REMARK    7  A    between atoms: N_11  and  C_12
REMARK    8  A    between atoms: C_15  and  C_16
REMARK                            x       y       z     vdW  Elec       q    Type
REMARK                         _______ _______ _______ _____ _____    ______ ____
ROOT
ATOM      1  C   UNL     1      43.871   5.122  10.735  0.00  0.00    +0.000 C 
ENDROOT
BRANCH   1   2
ATOM      2  N   UNL     1      43.693   3.751  10.228  0.00  0.00    +0.000 N 
ATOM      3  H   UNL     1      42.740   3.574   9.914  0.00  0.00    +0.000 HD
BRANCH   2   4
ATOM      4  C   UNL     1      44.629   3.309   9.270  0.00  0.00    +0.000 A 
ATOM      5  C   UNL     1      45.304   4.193   8.418  0.00  0.00    +0.000 A 
ATOM      6  C   UNL     1      46.256   3.738   7.501  0.00  0.00    +0.000 A 
ATOM      7  C   UNL     1      46.597   2.389   7.446  0.00  0.00    +0.000 A 
ATOM      8  C   UNL     1      45.975   1.493   8.323  0.00  0.00    +0.000 A 
ATOM      9  C   UNL     1      45.014   1.962   9.236  0.00  0.00    +0.000 A 
BRANCH   7  10
ATOM     10  C   UNL     1      47.611   1.977   6.439  0.00  0.00    +0.000 C 
ATOM     11  N   UNL     1      48.741   2.733   6.324  0.00  0.00    +0.000 N 
ATOM     12  O   UNL     1      47.426   1.011   5.705  0.00  0.00    +0.000 OA
ATOM     13  H   UNL     1      48.850   3.635   6.762  0.00  0.00    +0.000 HD
ATOM     14  H   UNL     1      49.354   2.498   5.555  0.00  0.00    +0.000 HD
ENDBRANCH   7  10
ENDBRANCH   2   4
ENDBRANCH   1   2
BRANCH   1  15
ATOM     15  C   UNL     1      44.712   5.147  12.016  0.00  0.00    +0.000 C 
BRANCH  15  21
ATOM     16  C   UNL     1      49.309   7.170  12.509  0.00  0.00    +0.000 C 
ATOM     17  C   UNL     1      47.831   7.349  12.305  0.00  0.00    +0.000 A 
ATOM     18  C   UNL     1      47.275   8.628  12.170  0.00  0.00    +0.000 A 
ATOM     19  C   UNL     1      45.894   8.794  11.988  0.00  0.00    +0.000 A 
ATOM     20  C   UNL     1      45.071   7.655  11.944  0.00  0.00    +0.000 A 
ATOM     21  C   UNL     1      45.607   6.366  12.080  0.00  0.00    +0.000 A 
ATOM     22  C   UNL     1      46.992   6.225  12.253  0.00  0.00    +0.000 A 
BRANCH  19  23
ATOM     23  C   UNL     1      45.294  10.175  11.887  0.00  0.00    +0.000 C 
BRANCH  23  24
ATOM     24  N   UNL     1      43.909  10.204  12.344  0.00  0.00    +0.000 NA
ATOM     25  H   UNL     1      43.826  10.890  13.093  0.00  0.00    +0.000 HD
ATOM     26  H   UNL     1      43.675   9.302  12.755  0.00  0.00    +0.000 HD
ENDBRANCH  23  24
ENDBRANCH  19  23
ENDBRANCH  15  21
ENDBRANCH   1  15
TORSDOF 7
ENDMDL
MODEL 3
REMARK VINA RESULT:    -6.997      1.649      2.454
REMARK INTER + INTRA:         -10.434
REMARK INTER:                  -9.731
REMARK INTRA:                  -0.704
REMARK UNBOUND:                -0.779
REMARK  Name = 
REMARK  8 active torsions:
REMARK  status: ('A' for Active; 'I' for Inactive)
REMARK    1  A    between atoms: C_1  and  C_2
REMARK    2  A    between atoms: C_4  and  C_5
REMARK    3  A    between atoms: C_5  and  N_6
REMARK    4  A    between atoms: C_8  and  C_9
REMARK    5  A    between atoms: C_9  and  C_10
REMARK    6  A    between atoms: C_10  and  N_11
REMARK    7  A    between atoms: N_11  and  C_12
REMARK    8  A    between atoms: C_15  and  C_16
REMARK                            x       y       z     vdW  Elec       q    Type
REMARK                         _______ _______ _______ _____ _____    ______ ____
ROOT
ATOM      1  C   UNL     1      43.670   5.165  11.152  0.00  0.00    +0.000 C 
ENDROOT
BRANCH   1   2
ATOM      2  N   UNL     1      43.555   3.820  10.564  0.00  0.00    +0.000 N 
ATOM      3  H   UNL     1      42.607   3.614  10.251  0.00  0.00    +0.000 HD
BRANCH   2   4
ATOM      4  C   UNL     1      44.497   3.486   9.570  0.00  0.00    +0.000 A 
ATOM      5  C   UNL     1      45.197   4.459   8.843  0.00  0.00    +0.000 A 
ATOM      6  C   UNL     1      46.155   4.107   7.888  0.00  0.00    +0.000 A 
ATOM      7  C   UNL     1      46.477   2.769   7.668  0.00  0.00    +0.000 A 
ATOM      8  C   UNL     1      45.829   1.781   8.417  0.00  0.00    +0.000 A 
ATOM      9  C   UNL     1      44.862   2.148   9.371  0.00  0.00    +0.000 A 
BRANCH   7  10
ATOM     10  C   UNL     1      47.498   2.471   6.630  0.00  0.00    +0.000 C 
ATOM     11  N   UNL     1      47.394   3.108   5.428  0.00  0.00    +0.000 N 
ATOM     12  O   UNL     1      48.388   1.649   6.827  0.00  0.00    +0.000 OA
ATOM     13  H   UNL     1      46.581   3.638   5.151  0.00  0.00    +0.000 HD
ATOM     14  H   UNL     1      48.031   2.798   4.706  0.00  0.00    +0.000 HD
ENDBRANCH   7  10
ENDBRANCH   2   4
ENDBRANCH   1   2
BRANCH   1  15
ATOM     15  C   UNL     1      44.681   5.193  12.304  0.00  0.00    +0.000 C 
BRANCH  15  21
ATOM     16  C   UNL     1      45.186  10.201  11.931  0.00  0.00    +0.000 C 
ATOM     17  C   UNL     1      45.814   8.844  12.080  0.00  0.00    +0.000 A 
ATOM     18  C   UNL     1      47.204   8.704  12.171  0.00  0.00    +0.000 A 
ATOM     19  C   UNL     1      47.791   7.436  12.302  0.00  0.00    +0.000 A 
ATOM     20  C   UNL     1      46.960   6.303  12.340  0.00  0.00    +0.000 A 
ATOM     21  C   UNL     1      45.565   6.421  12.247  0.00  0.00    +0.000 A 
ATOM     22  C   UNL     1      45.003   7.700  12.125  0.00  0.00    +0.000 A 
BRANCH  19  23
ATOM     23  C   UNL     1      49.291   7.287  12.357  0.00  0.00    +0.000 C 
BRANCH  23  24
ATOM     24  N   UNL     1      49.754   6.894  13.683  0.00  0.00    +0.000 NA
ATOM     25  H   UNL     1      49.527   5.911  13.831  0.00  0.00    +0.000 HD
ATOM     26  H   UNL     1      49.233   7.417  14.385  0.00  0.00    +0.000 HD
ENDBRANCH  23  24
ENDBRANCH  19  23
ENDBRANCH  15  21
ENDBRANCH   1  15
TORSDOF 7
ENDMDL
MODEL 4
REMARK VINA RESULT:    -6.161      3.328      5.555
REMARK INTER + INTRA:          -9.282
REMARK INTER:                  -8.618
REMARK INTRA:                  -0.663
REMARK UNBOUND:                -0.779
REMARK  Name = 
REMARK  8 active torsions:
REMARK  status: ('A' for Active; 'I' for Inactive)
REMARK    1  A    between atoms: C_1  and  C_2
REMARK    2  A    between atoms: C_4  and  C_5
REMARK    3  A    between atoms: C_5  and  N_6
REMARK    4  A    between atoms: C_8  and  C_9
REMARK    5  A    between atoms: C_9  and  C_10
REMARK    6  A    between atoms: C_10  and  N_11
REMARK    7  A    between atoms: N_11  and  C_12
REMARK    8  A    between atoms: C_15  and  C_16
REMARK                            x       y       z     vdW  Elec       q    Type
REMARK                         _______ _______ _______ _____ _____    ______ ____
ROOT
ATOM      1  C   UNL     1      48.519   7.019  14.073  0.00  0.00    +0.000 C 
ENDROOT
BRANCH   1   2
ATOM      2  N   UNL     1      47.096   7.230  13.756  0.00  0.00    +0.000 N 
ATOM      3  H   UNL     1      46.927   8.132  13.313  0.00  0.00    +0.000 HD
BRANCH   2   4
ATOM      4  C   UNL     1      46.449   6.194  13.053  0.00  0.00    +0.000 A 
ATOM      5  C   UNL     1      46.009   5.021  13.680  0.00  0.00    +0.000 A 
ATOM      6  C   UNL     1      45.337   4.022  12.971  0.00  0.00    +0.000 A 
ATOM      7  C   UNL     1      45.040   4.191  11.621  0.00  0.00    +0.000 A 
ATOM      8  C   UNL     1      45.422   5.376  10.983  0.00  0.00    +0.000 A 
ATOM      9  C   UNL     1      46.105   6.371  11.706  0.00  0.00    +0.000 A 
BRANCH   7  10
ATOM     10  C   UNL     1      44.330   3.082  10.930  0.00  0.00    +0.000 C 
ATOM     11  N   UNL     1      45.002   2.400   9.957  0.00  0.00    +0.000 N 
ATOM     12  O   UNL     1      43.163   2.808  11.194  0.00  0.00    +0.000 OA
ATOM     13  H   UNL     1      45.883   2.709   9.574  0.00  0.00    +0.000 HD
ATOM     14  H   UNL     1      44.457   1.733   9.428  0.00  0.00    +0.000 HD
ENDBRANCH   7  10
ENDBRANCH   2   4
ENDBRANCH   1   2
BRANCH   1  15
ATOM     15  C   UNL     1      48.826   7.348  15.538  0.00  0.00    +0.000 C 
BRANCH  15  21
ATOM     16  C   UNL     1      52.601   4.882  17.805  0.00  0.00    +0.000 C 
ATOM     17  C   UNL     1      51.155   4.947  17.402  0.00  0.00    +0.000 A 
ATOM     18  C   UNL     1      50.274   3.905  17.718  0.00  0.00    +0.000 A 
ATOM     19  C   UNL     1      48.927   3.962  17.334  0.00  0.00    +0.000 A 
ATOM     20  C   UNL     1      48.469   5.085  16.622  0.00  0.00    +0.000 A 
ATOM     21  C   UNL     1      49.335   6.138  16.292  0.00  0.00    +0.000 A 
ATOM     22  C   UNL     1      50.676   6.061  16.695  0.00  0.00    +0.000 A 
BRANCH  19  23
ATOM     23  C   UNL     1      47.992   2.818  17.640  0.00  0.00    +0.000 C 
BRANCH  23  24
ATOM     24  N   UNL     1      46.594   3.191  17.461  0.00  0.00    +0.000 NA
ATOM     25  H   UNL     1      46.427   4.074  17.943  0.00  0.00    +0.000 HD
ATOM     26  H   UNL     1      46.004   2.500  17.920  0.00  0.00    +0.000 HD
ENDBRANCH  23  24
ENDBRANCH  19  23
ENDBRANCH  15  21
ENDBRANCH   1  15
TORSDOF 7
ENDMDL
MODEL 5
REMARK VINA RESULT:    -6.112      3.599      6.923
REMARK INTER + INTRA:          -9.214
REMARK INTER:                  -8.577
REMARK INTRA:                  -0.637
REMARK UNBOUND:                -0.779
REMARK  Name = 
REMARK  8 active torsions:
REMARK  status: ('A' for Active; 'I' for Inactive)
REMARK    1  A    between atoms: C_1  and  C_2
REMARK    2  A    between atoms: C_4  and  C_5
REMARK    3  A    between atoms: C_5  and  N_6
REMARK    4  A    between atoms: C_8  and  C_9
REMARK    5  A    between atoms: C_9  and  C_10
REMARK    6  A    between atoms: C_10  and  N_11
REMARK    7  A    between atoms: N_11  and  C_12
REMARK    8  A    between atoms: C_15  and  C_16
REMARK                            x       y       z     vdW  Elec       q    Type
REMARK                         _______ _______ _______ _____ _____    ______ ____
ROOT
ATOM      1  C   UNL     1      46.109   7.323  12.559  0.00  0.00    +0.000 C 
ENDROOT
BRANCH   1   2
ATOM      2  N   UNL     1      47.444   7.180  13.164  0.00  0.00    +0.000 N 
ATOM      3  H   UNL     1      47.841   8.076  13.443  0.00  0.00    +0.000 HD
BRANCH   2   4
ATOM      4  C   UNL     1      47.566   6.230  14.199  0.00  0.00    +0.000 A 
ATOM      5  C   UNL     1      46.950   4.973  14.140  0.00  0.00    +0.000 A 
ATOM      6  C   UNL     1      47.113   4.031  15.160  0.00  0.00    +0.000 A 
ATOM      7  C   UNL     1      47.942   4.303  16.247  0.00  0.00    +0.000 A 
ATOM      8  C   UNL     1      48.610   5.531  16.303  0.00  0.00    +0.000 A 
ATOM      9  C   UNL     1      48.431   6.473  15.274  0.00  0.00    +0.000 A 
BRANCH   7  10
ATOM     10  C   UNL     1      48.061   3.258  17.297  0.00  0.00    +0.000 C 
ATOM     11  N   UNL     1      46.911   2.721  17.799  0.00  0.00    +0.000 N 
ATOM     12  O   UNL     1      49.155   2.911  17.732  0.00  0.00    +0.000 OA
ATOM     13  H   UNL     1      45.996   3.106  17.617  0.00  0.00    +0.000 HD
ATOM     14  H   UNL     1      47.020   2.102  18.590  0.00  0.00    +0.000 HD
ENDBRANCH   7  10
ENDBRANCH   2   4
ENDBRANCH   1   2
BRANCH   1  15
ATOM     15  C   UNL     1      46.149   7.108  11.043  0.00  0.00    +0.000 C 
BRANCH  15  21
ATOM     16  C   UNL     1      45.507   3.490   7.584  0.00  0.00    +0.000 C 
ATOM     17  C   UNL     1      45.301   3.993   8.984  0.00  0.00    +0.000 A 
ATOM     18  C   UNL     1      44.614   3.221   9.929  0.00  0.00    +0.000 A 
ATOM     19  C   UNL     1      44.414   3.695  11.235  0.00  0.00    +0.000 A 
ATOM     20  C   UNL     1      44.915   4.961  11.583  0.00  0.00    +0.000 A 
ATOM     21  C   UNL     1      45.603   5.752  10.651  0.00  0.00    +0.000 A 
ATOM     22  C   UNL     1      45.797   5.253   9.354  0.00  0.00    +0.000 A 
BRANCH  19  23
ATOM     23  C   UNL     1      43.635   2.878  12.237  0.00  0.00    +0.000 C 
BRANCH  23  24
ATOM     24  N   UNL     1      42.891   1.797  11.600  0.00  0.00    +0.000 NA
ATOM     25  H   UNL     1      43.209   1.705  10.636  0.00  0.00    +0.000 HD
ATOM     26  H   UNL     1      41.907   2.055  11.553  0.00  0.00    +0.000 HD
ENDBRANCH  23  24
ENDBRANCH  19  23
ENDBRANCH  15  21
ENDBRANCH   1  15
TORSDOF 7
ENDMDL
MODEL 6
REMARK VINA RESULT:    -6.035      3.220      5.557
REMARK INTER + INTRA:          -9.107
REMARK INTER:                  -8.585
REMARK INTRA:                  -0.522
REMARK UNBOUND:                -0.779
REMARK  Name = 
REMARK  8 active torsions:
REMARK  status: ('A' for Active; 'I' for Inactive)
REMARK    1  A    between atoms: C_1  and  C_2
REMARK    2  A    between atoms: C_4  and  C_5
REMARK    3  A    between atoms: C_5  and  N_6
REMARK    4  A    between atoms: C_8  and  C_9
REMARK    5  A    between atoms: C_9  and  C_10
REMARK    6  A    between atoms: C_10  and  N_11
REMARK    7  A    between atoms: N_11  and  C_12
REMARK    8  A    between atoms: C_15  and  C_16
REMARK                            x       y       z     vdW  Elec       q    Type
REMARK                         _______ _______ _______ _____ _____    ______ ____
ROOT
ATOM      1  C   UNL     1      48.632   6.778  14.046  0.00  0.00    +0.000 C 
ENDROOT
BRANCH   1   2
ATOM      2  N   UNL     1      47.195   7.074  13.909  0.00  0.00    +0.000 N 
ATOM      3  H   UNL     1      47.017   8.066  13.756  0.00  0.00    +0.000 HD
BRANCH   2   4
ATOM      4  C   UNL     1      46.477   6.284  12.989  0.00  0.00    +0.000 A 
ATOM      5  C   UNL     1      45.682   5.202  13.388  0.00  0.00    +0.000 A 
ATOM      6  C   UNL     1      44.948   4.454  12.463  0.00  0.00    +0.000 A 
ATOM      7  C   UNL     1      44.949   4.801  11.114  0.00  0.00    +0.000 A 
ATOM      8  C   UNL     1      45.693   5.910  10.697  0.00  0.00    +0.000 A 
ATOM      9  C   UNL     1      46.433   6.650  11.637  0.00  0.00    +0.000 A 
BRANCH   7  10
ATOM     10  C   UNL     1      44.152   3.955  10.187  0.00  0.00    +0.000 C 
ATOM     11  N   UNL     1      44.047   4.354   8.887  0.00  0.00    +0.000 N 
ATOM     12  O   UNL     1      43.571   2.949  10.581  0.00  0.00    +0.000 OA
ATOM     13  H   UNL     1      44.340   5.264   8.562  0.00  0.00    +0.000 HD
ATOM     14  H   UNL     1      43.406   3.825   8.311  0.00  0.00    +0.000 HD
ENDBRANCH   7  10
ENDBRANCH   2   4
ENDBRANCH   1   2
BRANCH   1  15
ATOM     15  C   UNL     1      49.226   7.432  15.298  0.00  0.00    +0.000 C 
BRANCH  15  21
ATOM     16  C   UNL     1      47.753   7.726  20.116  0.00  0.00    +0.000 C 
ATOM     17  C   UNL     1      48.025   6.895  18.894  0.00  0.00    +0.000 A 
ATOM     18  C   UNL     1      47.841   5.507  18.915  0.00  0.00    +0.000 A 
ATOM     19  C   UNL     1      48.104   4.731  17.777  0.00  0.00    +0.000 A 
ATOM     20  C   UNL     1      48.557   5.368  16.608  0.00  0.00    +0.000 A 
ATOM     21  C   UNL     1      48.751   6.756  16.567  0.00  0.00    +0.000 A 
ATOM     22  C   UNL     1      48.474   7.512  17.716  0.00  0.00    +0.000 A 
BRANCH  19  23
ATOM     23  C   UNL     1      47.946   3.231  17.818  0.00  0.00    +0.000 C 
BRANCH  23  24
ATOM     24  N   UNL     1      46.551   2.824  17.687  0.00  0.00    +0.000 NA
ATOM     25  H   UNL     1      46.270   2.931  16.713  0.00  0.00    +0.000 HD
ATOM     26  H   UNL     1      45.967   3.462  18.225  0.00  0.00    +0.000 HD
ENDBRANCH  23  24
ENDBRANCH  19  23
ENDBRANCH  15  21
ENDBRANCH   1  15
TORSDOF 7
ENDMDL
MODEL 7
REMARK VINA RESULT:    -5.792      4.410      7.961
REMARK INTER + INTRA:          -8.772
REMARK INTER:                  -8.342
REMARK INTRA:                  -0.430
REMARK UNBOUND:                -0.779
REMARK  Name = 
REMARK  8 active torsions:
REMARK  status: ('A' for Active; 'I' for Inactive)
REMARK    1  A    between atoms: C_1  and  C_2
REMARK    2  A    between atoms: C_4  and  C_5
REMARK    3  A    between atoms: C_5  and  N_6
REMARK    4  A    between atoms: C_8  and  C_9
REMARK    5  A    between atoms: C_9  and  C_10
REMARK    6  A    between atoms: C_10  and  N_11
REMARK    7  A    between atoms: N_11  and  C_12
REMARK    8  A    between atoms: C_15  and  C_16
REMARK                            x       y       z     vdW  Elec       q    Type
REMARK                         _______ _______ _______ _____ _____    ______ ____
ROOT
ATOM      1  C   UNL     1      47.108   3.589  14.867  0.00  0.00    +0.000 C 
ENDROOT
BRANCH   1   2
ATOM      2  N   UNL     1      47.262   3.464  16.327  0.00  0.00    +0.000 N 
ATOM      3  H   UNL     1      46.612   2.790  16.729  0.00  0.00    +0.000 HD
BRANCH   2   4
ATOM      4  C   UNL     1      48.570   3.248  16.804  0.00  0.00    +0.000 A 
ATOM      5  C   UNL     1      49.241   2.031  16.630  0.00  0.00    +0.000 A 
ATOM      6  C   UNL     1      50.553   1.849  17.078  0.00  0.00    +0.000 A 
ATOM      7  C   UNL     1      51.250   2.901  17.670  0.00  0.00    +0.000 A 
ATOM      8  C   UNL     1      50.620   4.143  17.808  0.00  0.00    +0.000 A 
ATOM      9  C   UNL     1      49.297   4.309  17.359  0.00  0.00    +0.000 A 
BRANCH   7  10
ATOM     10  C   UNL     1      52.638   2.632  18.129  0.00  0.00    +0.000 C 
ATOM     11  N   UNL     1      53.544   3.649  18.057  0.00  0.00    +0.000 N 
ATOM     12  O   UNL     1      52.976   1.520  18.526  0.00  0.00    +0.000 OA
ATOM     13  H   UNL     1      53.368   4.512  17.564  0.00  0.00    +0.000 HD
ATOM     14  H   UNL     1      54.503   3.405  18.266  0.00  0.00    +0.000 HD
ENDBRANCH   7  10
ENDBRANCH   2   4
ENDBRANCH   1   2
BRANCH   1  15
ATOM     15  C   UNL     1      47.035   5.056  14.431  0.00  0.00    +0.000 C 
BRANCH  15  21
ATOM     16  C   UNL     1      44.531   8.125  11.303  0.00  0.00    +0.000 C 
ATOM     17  C   UNL     1      44.883   6.732  11.744  0.00  0.00    +0.000 A 
ATOM     18  C   UNL     1      44.345   5.616  11.090  0.00  0.00    +0.000 A 
ATOM     19  C   UNL     1      44.666   4.316  11.508  0.00  0.00    +0.000 A 
ATOM     20  C   UNL     1      45.539   4.147  12.598  0.00  0.00    +0.000 A 
ATOM     21  C   UNL     1      46.085   5.251  13.268  0.00  0.00    +0.000 A 
ATOM     22  C   UNL     1      45.755   6.541  12.826  0.00  0.00    +0.000 A 
BRANCH  19  23
ATOM     23  C   UNL     1      44.051   3.117  10.828  0.00  0.00    +0.000 C 
BRANCH  23  24
ATOM     24  N   UNL     1      43.069   2.452  11.677  0.00  0.00    +0.000 NA
ATOM     25  H   UNL     1      42.704   3.129  12.347  0.00  0.00    +0.000 HD
ATOM     26  H   UNL     1      43.536   1.732  12.224  0.00  0.00    +0.000 HD
ENDBRANCH  23  24
ENDBRANCH  19  23
ENDBRANCH  15  21
ENDBRANCH   1  15
TORSDOF 7
ENDMDL
MODEL 8
REMARK VINA RESULT:    -5.510      3.585      5.761
REMARK INTER + INTRA:          -8.383
REMARK INTER:                  -7.810
REMARK INTRA:                  -0.573
REMARK UNBOUND:                -0.779
REMARK  Name = 
REMARK  8 active torsions:
REMARK  status: ('A' for Active; 'I' for Inactive)
REMARK    1  A    between atoms: C_1  and  C_2
REMARK    2  A    between atoms: C_4  and  C_5
REMARK    3  A    between atoms: C_5  and  N_6
REMARK    4  A    between atoms: C_8  and  C_9
REMARK    5  A    between atoms: C_9  and  C_10
REMARK    6  A    between atoms: C_10  and  N_11
REMARK    7  A    between atoms: N_11  and  C_12
REMARK    8  A    between atoms: C_15  and  C_16
REMARK                            x       y       z     vdW  Elec       q    Type
REMARK                         _______ _______ _______ _____ _____    ______ ____
ROOT
ATOM      1  C   UNL     1      48.554   7.373  12.497  0.00  0.00    +0.000 C 
ENDROOT
BRANCH   1   2
ATOM      2  N   UNL     1      47.497   6.769  13.326  0.00  0.00    +0.000 N 
ATOM      3  H   UNL     1      46.922   7.470  13.791  0.00  0.00    +0.000 HD
BRANCH   2   4
ATOM      4  C   UNL     1      46.695   5.790  12.705  0.00  0.00    +0.000 A 
ATOM      5  C   UNL     1      46.444   4.543  13.291  0.00  0.00    +0.000 A 
ATOM      6  C   UNL     1      45.615   3.600  12.675  0.00  0.00    +0.000 A 
ATOM      7  C   UNL     1      44.971   3.900  11.477  0.00  0.00    +0.000 A 
ATOM      8  C   UNL     1      45.164   5.159  10.897  0.00  0.00    +0.000 A 
ATOM      9  C   UNL     1      46.006   6.096  11.523  0.00  0.00    +0.000 A 
BRANCH   7  10
ATOM     10  C   UNL     1      44.113   2.846  10.876  0.00  0.00    +0.000 C 
ATOM     11  N   UNL     1      44.575   2.198   9.768  0.00  0.00    +0.000 N 
ATOM     12  O   UNL     1      43.003   2.588  11.334  0.00  0.00    +0.000 OA
ATOM     13  H   UNL     1      45.383   2.504   9.246  0.00  0.00    +0.000 HD
ATOM     14  H   UNL     1      43.922   1.572   9.316  0.00  0.00    +0.000 HD
ENDBRANCH   7  10
ENDBRANCH   2   4
ENDBRANCH   1   2
BRANCH   1  15
ATOM     15  C   UNL     1      48.879   8.801  12.948  0.00  0.00    +0.000 C 
BRANCH  15  21
ATOM     16  C   UNL     1      49.142  12.285   9.306  0.00  0.00    +0.000 C 
ATOM     17  C   UNL     1      48.324  11.513  10.302  0.00  0.00    +0.000 A 
ATOM     18  C   UNL     1      46.947  11.737  10.427  0.00  0.00    +0.000 A 
ATOM     19  C   UNL     1      46.185  11.022  11.363  0.00  0.00    +0.000 A 
ATOM     20  C   UNL     1      46.826  10.073  12.179  0.00  0.00    +0.000 A 
ATOM     21  C   UNL     1      48.204   9.836  12.073  0.00  0.00    +0.000 A 
ATOM     22  C   UNL     1      48.942  10.558  11.124  0.00  0.00    +0.000 A 
BRANCH  19  23
ATOM     23  C   UNL     1      44.710  11.297  11.524  0.00  0.00    +0.000 C 
BRANCH  23  24
ATOM     24  N   UNL     1      44.043  10.263  12.306  0.00  0.00    +0.000 NA
ATOM     25  H   UNL     1      44.273  10.398  13.290  0.00  0.00    +0.000 HD
ATOM     26  H   UNL     1      44.421   9.354  12.047  0.00  0.00    +0.000 HD
ENDBRANCH  23  24
ENDBRANCH  19  23
ENDBRANCH  15  21
ENDBRANCH   1  15
TORSDOF 7
ENDMDL
MODEL 9
REMARK VINA RESULT:    -5.312      3.612      7.559
REMARK INTER + INTRA:          -8.110
REMARK INTER:                  -7.327
REMARK INTRA:                  -0.783
REMARK UNBOUND:                -0.779
REMARK  Name = 
REMARK  8 active torsions:
REMARK  status: ('A' for Active; 'I' for Inactive)
REMARK    1  A    between atoms: C_1  and  C_2
REMARK    2  A    between atoms: C_4  and  C_5
REMARK    3  A    between atoms: C_5  and  N_6
REMARK    4  A    between atoms: C_8  and  C_9
REMARK    5  A    between atoms: C_9  and  C_10
REMARK    6  A    between atoms: C_10  and  N_11
REMARK    7  A    between atoms: N_11  and  C_12
REMARK    8  A    between atoms: C_15  and  C_16
REMARK                            x       y       z     vdW  Elec       q    Type
REMARK                         _______ _______ _______ _____ _____    ______ ____
ROOT
ATOM      1  C   UNL     1      47.306   8.046  13.212  0.00  0.00    +0.000 C 
ENDROOT
BRANCH   1   2
ATOM      2  N   UNL     1      48.006   6.750  13.215  0.00  0.00    +0.000 N 
ATOM      3  H   UNL     1      48.934   6.810  12.797  0.00  0.00    +0.000 HD
BRANCH   2   4
ATOM      4  C   UNL     1      48.051   6.063  14.445  0.00  0.00    +0.000 A 
ATOM      5  C   UNL     1      48.757   6.552  15.552  0.00  0.00    +0.000 A 
ATOM      6  C   UNL     1      48.758   5.874  16.775  0.00  0.00    +0.000 A 
ATOM      7  C   UNL     1      48.008   4.711  16.939  0.00  0.00    +0.000 A 
ATOM      8  C   UNL     1      47.252   4.231  15.864  0.00  0.00    +0.000 A 
ATOM      9  C   UNL     1      47.266   4.918  14.637  0.00  0.00    +0.000 A 
BRANCH   7  10
ATOM     10  C   UNL     1      48.064   4.040  18.264  0.00  0.00    +0.000 C 
ATOM     11  N   UNL     1      47.603   4.727  19.349  0.00  0.00    +0.000 N 
ATOM     12  O   UNL     1      48.545   2.918  18.392  0.00  0.00    +0.000 OA
ATOM     13  H   UNL     1      47.381   5.711  19.327  0.00  0.00    +0.000 HD
ATOM     14  H   UNL     1      47.761   4.293  20.249  0.00  0.00    +0.000 HD
ENDBRANCH   7  10
ENDBRANCH   2   4
ENDBRANCH   1   2
BRANCH   1  15
ATOM     15  C   UNL     1      46.416   8.204  11.975  0.00  0.00    +0.000 C 
BRANCH  15  21
ATOM     16  C   UNL     1      43.017   4.694  13.238  0.00  0.00    +0.000 C 
ATOM     17  C   UNL     1      44.014   5.235  12.253  0.00  0.00    +0.000 A 
ATOM     18  C   UNL     1      44.256   4.575  11.041  0.00  0.00    +0.000 A 
ATOM     19  C   UNL     1      45.194   5.076  10.126  0.00  0.00    +0.000 A 
ATOM     20  C   UNL     1      45.892   6.255  10.443  0.00  0.00    +0.000 A 
ATOM     21  C   UNL     1      45.667   6.929  11.652  0.00  0.00    +0.000 A 
ATOM     22  C   UNL     1      44.719   6.412  12.547  0.00  0.00    +0.000 A 
BRANCH  19  23
ATOM     23  C   UNL     1      45.482   4.338   8.842  0.00  0.00    +0.000 C 
BRANCH  23  24
ATOM     24  N   UNL     1      44.290   3.691   8.304  0.00  0.00    +0.000 NA
ATOM     25  H   UNL     1      43.801   4.355   7.704  0.00  0.00    +0.000 HD
ATOM     26  H   UNL     1      43.655   3.476   9.069  0.00  0.00    +0.000 HD
ENDBRANCH  23  24
ENDBRANCH  19  23
ENDBRANCH  15  21
ENDBRANCH   1  15
TORSDOF 7
ENDMDL
