MODEL 1
REMARK VINA RESULT:    -8.051      0.000      0.000
REMARK INTER + INTRA:         -11.103
REMARK INTER:                 -10.404
REMARK INTRA:                  -0.699
REMARK UNBOUND:                -0.699
REMARK  Name = 
REMARK  5 active torsions:
REMARK  status: ('A' for Active; 'I' for Inactive)
REMARK    1  A    between atoms: C_2  and  C_4
REMARK    2  A    between atoms: C_8  and  O_9
REMARK    3  A    between atoms: O_9  and  C_10
REMARK    4  A    between atoms: C_10  and  C_11
REMARK    5  A    between atoms: C_16  and  N_17
REMARK                            x       y       z     vdW  Elec       q    Type
REMARK                         _______ _______ _______ _____ _____    ______ ____
ROOT
ATOM      1  C   UNL     1      43.347   4.030  11.390  0.00  0.00    +0.000 C 
ENDROOT
BRANCH   1   2
ATOM      2  C   UNL     1      44.515   4.467  12.239  0.00  0.00    +0.000 A 
ATOM      3  C   UNL     1      45.352   3.521  12.830  0.00  0.00    +0.000 A 
ATOM      4  C   UNL     1      46.496   3.946  13.486  0.00  0.00    +0.000 A 
ATOM      5  F   UNL     1      47.321   3.037  14.024  0.00  0.00    +0.000 F 
ATOM      6  C   UNL     1      46.824   5.298  13.566  0.00  0.00    +0.000 A 
ATOM      7  C   UNL     1      45.999   6.283  13.007  0.00  0.00    +0.000 A 
ATOM      8  C   UNL     1      44.827   5.836  12.373  0.00  0.00    +0.000 A 
BRANCH   7   9
ATOM      9  N   UNL     1      46.346   7.617  13.030  0.00  0.00    +0.000 N 
ATOM     10  C   UNL     1      45.376   8.715  12.906  0.00  0.00    +0.000 C 
ATOM     11  C   UNL     1      45.820   9.667  11.786  0.00  0.00    +0.000 C 
ATOM     12  O   UNL     1      47.149  10.166  12.022  0.00  0.00    +0.000 OA
ATOM     13  C   UNL     1      48.086   9.077  12.083  0.00  0.00    +0.000 C 
ATOM     14  C   UNL     1      47.737   8.070  13.195  0.00  0.00    +0.000 C 
ENDBRANCH   7   9
ENDBRANCH   1   2
BRANCH   1  15
ATOM     15  O   UNL     1      43.685   2.897  10.595  0.00  0.00    +0.000 OA
BRANCH  15  20
ATOM     16  C   UNL     1      46.192   2.127   8.076  0.00  0.00    +0.000 A 
ATOM     17  C   UNL     1      46.451   3.378   7.503  0.00  0.00    +0.000 A 
ATOM     18  C   UNL     1      45.768   4.503   7.963  0.00  0.00    +0.000 A 
ATOM     19  C   UNL     1      44.833   4.380   8.991  0.00  0.00    +0.000 A 
ATOM     20  C   UNL     1      44.578   3.137   9.578  0.00  0.00    +0.000 A 
ATOM     21  C   UNL     1      45.270   2.012   9.122  0.00  0.00    +0.000 A 
BRANCH  16  23
ATOM     22  N   UNL     1      47.925   1.192   6.646  0.00  0.00    +0.000 N 
ATOM     23  C   UNL     1      46.923   0.948   7.543  0.00  0.00    +0.000 C 
ATOM     24  O   UNL     1      46.675  -0.189   7.923  0.00  0.00    +0.000 OA
ATOM     25  H   UNL     1      48.490   0.399   6.374  0.00  0.00    +0.000 HD
ATOM     26  H   UNL     1      48.308   2.115   6.498  0.00  0.00    +0.000 HD
ENDBRANCH  16  23
ENDBRANCH  15  20
ENDBRANCH   1  15
TORSDOF 5
ENDMDL
MODEL 2
REMARK VINA RESULT:    -7.395      2.642      3.614
REMARK INTER + INTRA:         -10.256
REMARK INTER:                  -9.388
REMARK INTRA:                  -0.868
REMARK UNBOUND:                -0.699
REMARK  Name = 
REMARK  5 active torsions:
REMARK  status: ('A' for Active; 'I' for Inactive)
REMARK    1  A    between atoms: C_2  and  C_4
REMARK    2  A    between atoms: C_8  and  O_9
REMARK    3  A    between atoms: O_9  and  C_10
REMARK    4  A    between atoms: C_10  and  C_11
REMARK    5  A    between atoms: C_16  and  N_17
REMARK                            x       y       z     vdW  Elec       q    Type
REMARK                         _______ _______ _______ _____ _____    ______ ____
ROOT
ATOM      1  C   UNL     1      43.549   4.886  10.651  0.00  0.00    +0.000 C 
ENDROOT
BRANCH   1   2
ATOM      2  C   UNL     1      44.503   5.811  11.364  0.00  0.00    +0.000 A 
ATOM      3  C   UNL     1      44.321   7.193  11.309  0.00  0.00    +0.000 A 
ATOM      4  C   UNL     1      45.124   8.013  12.085  0.00  0.00    +0.000 A 
ATOM      5  F   UNL     1      44.928   9.338  12.062  0.00  0.00    +0.000 F 
ATOM      6  C   UNL     1      46.109   7.482  12.918  0.00  0.00    +0.000 A 
ATOM      7  C   UNL     1      46.340   6.102  12.986  0.00  0.00    +0.000 A 
ATOM      8  C   UNL     1      45.537   5.288  12.168  0.00  0.00    +0.000 A 
BRANCH   7   9
ATOM      9  N   UNL     1      47.271   5.566  13.851  0.00  0.00    +0.000 N 
ATOM     10  C   UNL     1      47.197   4.198  14.385  0.00  0.00    +0.000 C 
ATOM     11  C   UNL     1      47.301   4.239  15.916  0.00  0.00    +0.000 C 
ATOM     12  O   UNL     1      48.505   4.903  16.340  0.00  0.00    +0.000 OA
ATOM     13  C   UNL     1      48.526   6.256  15.853  0.00  0.00    +0.000 C 
ATOM     14  C   UNL     1      48.447   6.322  14.316  0.00  0.00    +0.000 C 
ENDBRANCH   7   9
ENDBRANCH   1   2
BRANCH   1  15
ATOM     15  O   UNL     1      43.862   4.793   9.265  0.00  0.00    +0.000 OA
BRANCH  15  20
ATOM     16  C   UNL     1      46.277   2.827   7.386  0.00  0.00    +0.000 A 
ATOM     17  C   UNL     1      46.166   1.560   7.971  0.00  0.00    +0.000 A 
ATOM     18  C   UNL     1      45.271   1.359   9.021  0.00  0.00    +0.000 A 
ATOM     19  C   UNL     1      44.488   2.416   9.483  0.00  0.00    +0.000 A 
ATOM     20  C   UNL     1      44.582   3.682   8.896  0.00  0.00    +0.000 A 
ATOM     21  C   UNL     1      45.472   3.880   7.839  0.00  0.00    +0.000 A 
BRANCH  16  23
ATOM     22  N   UNL     1      48.522   2.535   6.497  0.00  0.00    +0.000 N 
ATOM     23  C   UNL     1      47.258   3.008   6.285  0.00  0.00    +0.000 C 
ATOM     24  O   UNL     1      46.941   3.514   5.217  0.00  0.00    +0.000 OA
ATOM     25  H   UNL     1      49.152   2.560   5.707  0.00  0.00    +0.000 HD
ATOM     26  H   UNL     1      48.747   1.908   7.258  0.00  0.00    +0.000 HD
ENDBRANCH  16  23
ENDBRANCH  15  20
ENDBRANCH   1  15
TORSDOF 5
ENDMDL
MODEL 3
REMARK VINA RESULT:    -7.236      2.910      3.992
REMARK INTER + INTRA:         -10.050
REMARK INTER:                  -9.167
REMARK INTRA:                  -0.883
REMARK UNBOUND:                -0.699
REMARK  Name = 
REMARK  5 active torsions:
REMARK  status: ('A' for Active; 'I' for Inactive)
REMARK    1  A    between atoms: C_2  and  C_4
REMARK    2  A    between atoms: C_8  and  O_9
REMARK    3  A    between atoms: O_9  and  C_10
REMARK    4  A    between atoms: C_10  and  C_11
REMARK    5  A    between atoms: C_16  and  N_17
REMARK                            x       y       z     vdW  Elec       q    Type
REMARK                         _______ _______ _______ _____ _____    ______ ____
ROOT
ATOM      1  C   UNL     1      44.596   5.475  11.417  0.00  0.00    +0.000 C 
ENDROOT
BRANCH   1   2
ATOM      2  C   UNL     1      45.930   5.777  12.053  0.00  0.00    +0.000 A 
ATOM      3  C   UNL     1      46.836   6.628  11.421  0.00  0.00    +0.000 A 
ATOM      4  C   UNL     1      47.992   7.000  12.087  0.00  0.00    +0.000 A 
ATOM      5  F   UNL     1      48.848   7.846  11.497  0.00  0.00    +0.000 F 
ATOM      6  C   UNL     1      48.264   6.542  13.376  0.00  0.00    +0.000 A 
ATOM      7  C   UNL     1      47.392   5.668  14.038  0.00  0.00    +0.000 A 
ATOM      8  C   UNL     1      46.240   5.275  13.333  0.00  0.00    +0.000 A 
BRANCH   7   9
ATOM      9  N   UNL     1      47.624   5.257  15.333  0.00  0.00    +0.000 N 
ATOM     10  C   UNL     1      48.486   5.983  16.278  0.00  0.00    +0.000 C 
ATOM     11  C   UNL     1      49.529   5.021  16.864  0.00  0.00    +0.000 C 
ATOM     12  O   UNL     1      48.900   3.889  17.491  0.00  0.00    +0.000 OA
ATOM     13  C   UNL     1      48.110   3.164  16.534  0.00  0.00    +0.000 C 
ATOM     14  C   UNL     1      47.014   4.042  15.899  0.00  0.00    +0.000 C 
ENDBRANCH   7   9
ENDBRANCH   1   2
BRANCH   1  15
ATOM     15  O   UNL     1      44.706   5.400   9.999  0.00  0.00    +0.000 OA
BRANCH  15  20
ATOM     16  C   UNL     1      46.240   2.870   7.886  0.00  0.00    +0.000 A 
ATOM     17  C   UNL     1      45.608   1.692   8.304  0.00  0.00    +0.000 A 
ATOM     18  C   UNL     1      44.655   1.743   9.319  0.00  0.00    +0.000 A 
ATOM     19  C   UNL     1      44.331   2.963   9.913  0.00  0.00    +0.000 A 
ATOM     20  C   UNL     1      44.946   4.146   9.492  0.00  0.00    +0.000 A 
ATOM     21  C   UNL     1      45.895   4.095   8.468  0.00  0.00    +0.000 A 
BRANCH  16  23
ATOM     22  N   UNL     1      47.088   3.554   5.710  0.00  0.00    +0.000 N 
ATOM     23  C   UNL     1      47.268   2.772   6.817  0.00  0.00    +0.000 C 
ATOM     24  O   UNL     1      48.256   2.061   6.936  0.00  0.00    +0.000 OA
ATOM     25  H   UNL     1      47.844   3.568   5.040  0.00  0.00    +0.000 HD
ATOM     26  H   UNL     1      46.425   4.317   5.687  0.00  0.00    +0.000 HD
ENDBRANCH  16  23
ENDBRANCH  15  20
ENDBRANCH   1  15
TORSDOF 5
ENDMDL
MODEL 4
REMARK VINA RESULT:    -7.190      1.744      2.236
REMARK INTER + INTRA:          -9.990
REMARK INTER:                  -9.143
REMARK INTRA:                  -0.847
REMARK UNBOUND:                -0.699
REMARK  Name = 
REMARK  5 active torsions:
REMARK  status: ('A' for Active; 'I' for Inactive)
REMARK    1  A    between atoms: C_2  and  C_4
REMARK    2  A    between atoms: C_8  and  O_9
REMARK    3  A    between atoms: O_9  and  C_10
REMARK    4  A    between atoms: C_10  and  C_11
REMARK    5  A    between atoms: C_16  and  N_17
REMARK                            x       y       z     vdW  Elec       q    Type
REMARK                         _______ _______ _______ _____ _____    ______ ____
ROOT
ATOM      1  C   UNL     1      44.565   5.451  10.870  0.00  0.00    +0.000 C 
ENDROOT
BRANCH   1   2
ATOM      2  C   UNL     1      45.577   5.666  11.968  0.00  0.00    +0.000 A 
ATOM      3  C   UNL     1      45.721   4.728  12.990  0.00  0.00    +0.000 A 
ATOM      4  C   UNL     1      46.749   4.877  13.905  0.00  0.00    +0.000 A 
ATOM      5  F   UNL     1      46.912   3.958  14.867  0.00  0.00    +0.000 F 
ATOM      6  C   UNL     1      47.642   5.945  13.823  0.00  0.00    +0.000 A 
ATOM      7  C   UNL     1      47.520   6.922  12.827  0.00  0.00    +0.000 A 
ATOM      8  C   UNL     1      46.451   6.772  11.926  0.00  0.00    +0.000 A 
BRANCH   7   9
ATOM      9  N   UNL     1      48.432   7.948  12.704  0.00  0.00    +0.000 N 
ATOM     10  C   UNL     1      48.057   9.365  12.586  0.00  0.00    +0.000 C 
ATOM     11  C   UNL     1      48.736   9.974  11.352  0.00  0.00    +0.000 C 
ATOM     12  O   UNL     1      50.164   9.814  11.410  0.00  0.00    +0.000 OA
ATOM     13  C   UNL     1      50.508   8.419  11.466  0.00  0.00    +0.000 C 
ATOM     14  C   UNL     1      49.887   7.717  12.689  0.00  0.00    +0.000 C 
ENDBRANCH   7   9
ENDBRANCH   1   2
BRANCH   1  15
ATOM     15  O   UNL     1      45.196   5.393   9.594  0.00  0.00    +0.000 OA
BRANCH  15  20
ATOM     16  C   UNL     1      46.499   2.835   7.361  0.00  0.00    +0.000 A 
ATOM     17  C   UNL     1      45.975   1.655   7.902  0.00  0.00    +0.000 A 
ATOM     18  C   UNL     1      45.174   1.714   9.042  0.00  0.00    +0.000 A 
ATOM     19  C   UNL     1      44.897   2.944   9.638  0.00  0.00    +0.000 A 
ATOM     20  C   UNL     1      45.404   4.129   9.097  0.00  0.00    +0.000 A 
ATOM     21  C   UNL     1      46.199   4.070   7.949  0.00  0.00    +0.000 A 
BRANCH  16  23
ATOM     22  N   UNL     1      48.701   2.526   6.373  0.00  0.00    +0.000 N 
ATOM     23  C   UNL     1      47.366   2.731   6.159  0.00  0.00    +0.000 C 
ATOM     24  O   UNL     1      46.906   2.778   5.026  0.00  0.00    +0.000 OA
ATOM     25  H   UNL     1      49.266   2.344   5.555  0.00  0.00    +0.000 HD
ATOM     26  H   UNL     1      49.070   2.246   7.271  0.00  0.00    +0.000 HD
ENDBRANCH  16  23
ENDBRANCH  15  20
ENDBRANCH   1  15
TORSDOF 5
ENDMDL
MODEL 5
REMARK VINA RESULT:    -7.136      2.204      6.906
REMARK INTER + INTRA:          -9.921
REMARK INTER:                  -8.912
REMARK INTRA:                  -1.008
REMARK UNBOUND:                -0.699
REMARK  Name = 
REMARK  5 active torsions:
REMARK  status: ('A' for Active; 'I' for Inactive)
REMARK    1  A    between atoms: C_2  and  C_4
REMARK    2  A    between atoms: C_8  and  O_9
REMARK    3  A    between atoms: O_9  and  C_10
REMARK    4  A    between atoms: C_10  and  C_11
REMARK    5  A    between atoms: C_16  and  N_17
REMARK                            x       y       z     vdW  Elec       q    Type
REMARK                         _______ _______ _______ _____ _____    ______ ____
ROOT
ATOM      1  C   UNL     1      46.581   4.256  13.696  0.00  0.00    +0.000 C 
ENDROOT
BRANCH   1   2
ATOM      2  C   UNL     1      45.445   4.151  12.709  0.00  0.00    +0.000 A 
ATOM      3  C   UNL     1      44.204   4.718  12.998  0.00  0.00    +0.000 A 
ATOM      4  C   UNL     1      43.222   4.731  12.021  0.00  0.00    +0.000 A 
ATOM      5  F   UNL     1      42.041   5.307  12.283  0.00  0.00    +0.000 F 
ATOM      6  C   UNL     1      43.452   4.189  10.757  0.00  0.00    +0.000 A 
ATOM      7  C   UNL     1      44.676   3.590  10.432  0.00  0.00    +0.000 A 
ATOM      8  C   UNL     1      45.649   3.557  11.447  0.00  0.00    +0.000 A 
BRANCH   7   9
ATOM      9  N   UNL     1      44.932   3.105   9.167  0.00  0.00    +0.000 N 
ATOM     10  C   UNL     1      45.005   1.672   8.841  0.00  0.00    +0.000 C 
ATOM     11  C   UNL     1      46.326   1.379   8.116  0.00  0.00    +0.000 C 
ATOM     12  O   UNL     1      46.466   2.192   6.938  0.00  0.00    +0.000 OA
ATOM     13  C   UNL     1      46.449   3.586   7.289  0.00  0.00    +0.000 C 
ATOM     14  C   UNL     1      45.147   3.988   8.009  0.00  0.00    +0.000 C 
ENDBRANCH   7   9
ENDBRANCH   1   2
BRANCH   1  15
ATOM     15  O   UNL     1      46.662   5.565  14.250  0.00  0.00    +0.000 OA
BRANCH  15  20
ATOM     16  C   UNL     1      46.866   8.688  12.398  0.00  0.00    +0.000 A 
ATOM     17  C   UNL     1      48.124   8.605  11.788  0.00  0.00    +0.000 A 
ATOM     18  C   UNL     1      48.925   7.485  12.006  0.00  0.00    +0.000 A 
ATOM     19  C   UNL     1      48.472   6.452  12.827  0.00  0.00    +0.000 A 
ATOM     20  C   UNL     1      47.212   6.520  13.428  0.00  0.00    +0.000 A 
ATOM     21  C   UNL     1      46.407   7.638  13.202  0.00  0.00    +0.000 A 
BRANCH  16  23
ATOM     22  N   UNL     1      44.751   9.876  12.580  0.00  0.00    +0.000 N 
ATOM     23  C   UNL     1      46.051   9.907  12.160  0.00  0.00    +0.000 C 
ATOM     24  O   UNL     1      46.530  10.914  11.654  0.00  0.00    +0.000 OA
ATOM     25  H   UNL     1      44.236  10.744  12.518  0.00  0.00    +0.000 HD
ATOM     26  H   UNL     1      44.400   9.165  13.207  0.00  0.00    +0.000 HD
ENDBRANCH  16  23
ENDBRANCH  15  20
ENDBRANCH   1  15
TORSDOF 5
ENDMDL
MODEL 6
REMARK VINA RESULT:    -6.999      3.781      7.679
REMARK INTER + INTRA:          -9.744
REMARK INTER:                  -8.812
REMARK INTRA:                  -0.932
REMARK UNBOUND:                -0.699
REMARK  Name = 
REMARK  5 active torsions:
REMARK  status: ('A' for Active; 'I' for Inactive)
REMARK    1  A    between atoms: C_2  and  C_4
REMARK    2  A    between atoms: C_8  and  O_9
REMARK    3  A    between atoms: O_9  and  C_10
REMARK    4  A    between atoms: C_10  and  C_11
REMARK    5  A    between atoms: C_16  and  N_17
REMARK                            x       y       z     vdW  Elec       q    Type
REMARK                         _______ _______ _______ _____ _____    ______ ____
ROOT
ATOM      1  C   UNL     1      48.954   7.723  13.896  0.00  0.00    +0.000 C 
ENDROOT
BRANCH   1   2
ATOM      2  C   UNL     1      47.533   7.609  13.403  0.00  0.00    +0.000 A 
ATOM      3  C   UNL     1      46.715   8.736  13.339  0.00  0.00    +0.000 A 
ATOM      4  C   UNL     1      45.464   8.632  12.753  0.00  0.00    +0.000 A 
ATOM      5  F   UNL     1      44.690   9.721  12.658  0.00  0.00    +0.000 F 
ATOM      6  C   UNL     1      45.011   7.424  12.225  0.00  0.00    +0.000 A 
ATOM      7  C   UNL     1      45.791   6.262  12.288  0.00  0.00    +0.000 A 
ATOM      8  C   UNL     1      47.044   6.379  12.916  0.00  0.00    +0.000 A 
BRANCH   7   9
ATOM      9  N   UNL     1      45.375   5.078  11.717  0.00  0.00    +0.000 N 
ATOM     10  C   UNL     1      45.236   4.875  10.267  0.00  0.00    +0.000 C 
ATOM     11  C   UNL     1      43.832   4.339   9.957  0.00  0.00    +0.000 C 
ATOM     12  O   UNL     1      43.564   3.126  10.684  0.00  0.00    +0.000 OA
ATOM     13  C   UNL     1      43.649   3.365  12.099  0.00  0.00    +0.000 C 
ATOM     14  C   UNL     1      45.036   3.890  12.518  0.00  0.00    +0.000 C 
ENDBRANCH   7   9
ENDBRANCH   1   2
BRANCH   1  15
ATOM     15  O   UNL     1      49.356   6.543  14.585  0.00  0.00    +0.000 OA
BRANCH  15  20
ATOM     16  C   UNL     1      48.013   4.933  17.557  0.00  0.00    +0.000 A 
ATOM     17  C   UNL     1      47.969   5.981  18.484  0.00  0.00    +0.000 A 
ATOM     18  C   UNL     1      48.405   7.252  18.112  0.00  0.00    +0.000 A 
ATOM     19  C   UNL     1      48.880   7.476  16.819  0.00  0.00    +0.000 A 
ATOM     20  C   UNL     1      48.914   6.439  15.882  0.00  0.00    +0.000 A 
ATOM     21  C   UNL     1      48.468   5.169  16.254  0.00  0.00    +0.000 A 
BRANCH  16  23
ATOM     22  N   UNL     1      48.173   3.058  19.099  0.00  0.00    +0.000 N 
ATOM     23  C   UNL     1      47.561   3.588  17.998  0.00  0.00    +0.000 C 
ATOM     24  O   UNL     1      46.650   2.997  17.433  0.00  0.00    +0.000 OA
ATOM     25  H   UNL     1      47.786   2.197  19.459  0.00  0.00    +0.000 HD
ATOM     26  H   UNL     1      48.747   3.612  19.720  0.00  0.00    +0.000 HD
ENDBRANCH  16  23
ENDBRANCH  15  20
ENDBRANCH   1  15
TORSDOF 5
ENDMDL
MODEL 7
REMARK VINA RESULT:    -6.860      2.587      7.249
REMARK INTER + INTRA:          -9.565
REMARK INTER:                  -8.682
REMARK INTRA:                  -0.882
REMARK UNBOUND:                -0.699
REMARK  Name = 
REMARK  5 active torsions:
REMARK  status: ('A' for Active; 'I' for Inactive)
REMARK    1  A    between atoms: C_2  and  C_4
REMARK    2  A    between atoms: C_8  and  O_9
REMARK    3  A    between atoms: O_9  and  C_10
REMARK    4  A    between atoms: C_10  and  C_11
REMARK    5  A    between atoms: C_16  and  N_17
REMARK                            x       y       z     vdW  Elec       q    Type
REMARK                         _______ _______ _______ _____ _____    ______ ____
ROOT
ATOM      1  C   UNL     1      46.273   4.261  13.831  0.00  0.00    +0.000 C 
ENDROOT
BRANCH   1   2
ATOM      2  C   UNL     1      45.201   4.264  12.769  0.00  0.00    +0.000 A 
ATOM      3  C   UNL     1      44.014   4.968  12.967  0.00  0.00    +0.000 A 
ATOM      4  C   UNL     1      43.107   5.071  11.924  0.00  0.00    +0.000 A 
ATOM      5  F   UNL     1      41.981   5.777  12.099  0.00  0.00    +0.000 F 
ATOM      6  C   UNL     1      43.361   4.487  10.684  0.00  0.00    +0.000 A 
ATOM      7  C   UNL     1      44.531   3.752  10.450  0.00  0.00    +0.000 A 
ATOM      8  C   UNL     1      45.424   3.631  11.530  0.00  0.00    +0.000 A 
BRANCH   7   9
ATOM      9  N   UNL     1      44.816   3.221   9.211  0.00  0.00    +0.000 N 
ATOM     10  C   UNL     1      44.860   1.778   8.931  0.00  0.00    +0.000 C 
ATOM     11  C   UNL     1      46.196   1.426   8.263  0.00  0.00    +0.000 C 
ATOM     12  O   UNL     1      46.401   2.197   7.066  0.00  0.00    +0.000 OA
ATOM     13  C   UNL     1      46.411   3.602   7.374  0.00  0.00    +0.000 C 
ATOM     14  C   UNL     1      45.097   4.062   8.035  0.00  0.00    +0.000 C 
ENDBRANCH   7   9
ENDBRANCH   1   2
BRANCH   1  15
ATOM     15  O   UNL     1      47.507   4.752  13.317  0.00  0.00    +0.000 OA
BRANCH  15  20
ATOM     16  C   UNL     1      48.178   8.145  14.442  0.00  0.00    +0.000 A 
ATOM     17  C   UNL     1      47.893   8.910  13.305  0.00  0.00    +0.000 A 
ATOM     18  C   UNL     1      47.475   8.279  12.134  0.00  0.00    +0.000 A 
ATOM     19  C   UNL     1      47.340   6.892  12.099  0.00  0.00    +0.000 A 
ATOM     20  C   UNL     1      47.608   6.120  13.233  0.00  0.00    +0.000 A 
ATOM     21  C   UNL     1      48.018   6.755  14.409  0.00  0.00    +0.000 A 
BRANCH  16  23
ATOM     22  N   UNL     1      47.695   9.512  16.396  0.00  0.00    +0.000 N 
ATOM     23  C   UNL     1      48.642   8.851  15.664  0.00  0.00    +0.000 C 
ATOM     24  O   UNL     1      49.809   8.808  16.029  0.00  0.00    +0.000 OA
ATOM     25  H   UNL     1      47.996   9.894  17.282  0.00  0.00    +0.000 HD
ATOM     26  H   UNL     1      46.704   9.368  16.258  0.00  0.00    +0.000 HD
ENDBRANCH  16  23
ENDBRANCH  15  20
ENDBRANCH   1  15
TORSDOF 5
ENDMDL
MODEL 8
REMARK VINA RESULT:    -6.759      4.326      7.576
REMARK INTER + INTRA:          -9.433
REMARK INTER:                  -8.789
REMARK INTRA:                  -0.644
REMARK UNBOUND:                -0.699
REMARK  Name = 
REMARK  5 active torsions:
REMARK  status: ('A' for Active; 'I' for Inactive)
REMARK    1  A    between atoms: C_2  and  C_4
REMARK    2  A    between atoms: C_8  and  O_9
REMARK    3  A    between atoms: O_9  and  C_10
REMARK    4  A    between atoms: C_10  and  C_11
REMARK    5  A    between atoms: C_16  and  N_17
REMARK                            x       y       z     vdW  Elec       q    Type
REMARK                         _______ _______ _______ _____ _____    ______ ____
ROOT
ATOM      1  C   UNL     1      46.971   3.644  14.461  0.00  0.00    +0.000 C 
ENDROOT
BRANCH   1   2
ATOM      2  C   UNL     1      46.203   4.412  13.414  0.00  0.00    +0.000 A 
ATOM      3  C   UNL     1      45.909   5.762  13.602  0.00  0.00    +0.000 A 
ATOM      4  C   UNL     1      45.328   6.479  12.568  0.00  0.00    +0.000 A 
ATOM      5  F   UNL     1      45.077   7.785  12.733  0.00  0.00    +0.000 F 
ATOM      6  C   UNL     1      45.034   5.876  11.346  0.00  0.00    +0.000 A 
ATOM      7  C   UNL     1      45.292   4.517  11.123  0.00  0.00    +0.000 A 
ATOM      8  C   UNL     1      45.852   3.798  12.194  0.00  0.00    +0.000 A 
BRANCH   7   9
ATOM      9  N   UNL     1      45.058   3.927   9.899  0.00  0.00    +0.000 N 
ATOM     10  C   UNL     1      44.511   2.572   9.736  0.00  0.00    +0.000 C 
ATOM     11  C   UNL     1      45.427   1.757   8.812  0.00  0.00    +0.000 C 
ATOM     12  O   UNL     1      45.599   2.408   7.541  0.00  0.00    +0.000 OA
ATOM     13  C   UNL     1      46.187   3.708   7.722  0.00  0.00    +0.000 C 
ATOM     14  C   UNL     1      45.328   4.615   8.625  0.00  0.00    +0.000 C 
ENDBRANCH   7   9
ENDBRANCH   1   2
BRANCH   1  15
ATOM     15  O   UNL     1      46.468   3.911  15.766  0.00  0.00    +0.000 OA
BRANCH  15  20
ATOM     16  C   UNL     1      49.541   3.136  17.549  0.00  0.00    +0.000 A 
ATOM     17  C   UNL     1      49.482   3.993  18.655  0.00  0.00    +0.000 A 
ATOM     18  C   UNL     1      48.396   4.854  18.804  0.00  0.00    +0.000 A 
ATOM     19  C   UNL     1      47.373   4.858  17.857  0.00  0.00    +0.000 A 
ATOM     20  C   UNL     1      47.416   3.996  16.757  0.00  0.00    +0.000 A 
ATOM     21  C   UNL     1      48.500   3.128  16.613  0.00  0.00    +0.000 A 
BRANCH  16  23
ATOM     22  N   UNL     1      51.814   2.545  18.183  0.00  0.00    +0.000 N 
ATOM     23  C   UNL     1      50.725   2.249  17.411  0.00  0.00    +0.000 C 
ATOM     24  O   UNL     1      50.715   1.270  16.677  0.00  0.00    +0.000 OA
ATOM     25  H   UNL     1      52.572   1.875  18.168  0.00  0.00    +0.000 HD
ATOM     26  H   UNL     1      51.770   3.188  18.961  0.00  0.00    +0.000 HD
ENDBRANCH  16  23
ENDBRANCH  15  20
ENDBRANCH   1  15
TORSDOF 5
ENDMDL
MODEL 9
REMARK VINA RESULT:    -6.524      3.620      5.337
REMARK INTER + INTRA:          -9.131
REMARK INTER:                  -8.328
REMARK INTRA:                  -0.802
REMARK UNBOUND:                -0.699
REMARK  Name = 
REMARK  5 active torsions:
REMARK  status: ('A' for Active; 'I' for Inactive)
REMARK    1  A    between atoms: C_2  and  C_4
REMARK    2  A    between atoms: C_8  and  O_9
REMARK    3  A    between atoms: O_9  and  C_10
REMARK    4  A    between atoms: C_10  and  C_11
REMARK    5  A    between atoms: C_16  and  N_17
REMARK                            x       y       z     vdW  Elec       q    Type
REMARK                         _______ _______ _______ _____ _____    ______ ____
ROOT
ATOM      1  C   UNL     1      46.567   7.145  12.283  0.00  0.00    +0.000 C 
ENDROOT
BRANCH   1   2
ATOM      2  C   UNL     1      47.694   6.992  13.273  0.00  0.00    +0.000 A 
ATOM      3  C   UNL     1      48.848   7.766  13.156  0.00  0.00    +0.000 A 
ATOM      4  C   UNL     1      49.806   7.709  14.155  0.00  0.00    +0.000 A 
ATOM      5  F   UNL     1      50.899   8.478  14.062  0.00  0.00    +0.000 F 
ATOM      6  C   UNL     1      49.637   6.893  15.273  0.00  0.00    +0.000 A 
ATOM      7  C   UNL     1      48.505   6.082  15.419  0.00  0.00    +0.000 A 
ATOM      8  C   UNL     1      47.558   6.129  14.380  0.00  0.00    +0.000 A 
BRANCH   7   9
ATOM      9  N   UNL     1      48.303   5.317  16.549  0.00  0.00    +0.000 N 
ATOM     10  C   UNL     1      49.044   5.504  17.805  0.00  0.00    +0.000 C 
ATOM     11  C   UNL     1      49.654   4.166  18.244  0.00  0.00    +0.000 C 
ATOM     12  O   UNL     1      48.643   3.151  18.379  0.00  0.00    +0.000 OA
ATOM     13  C   UNL     1      47.972   2.947  17.124  0.00  0.00    +0.000 C 
ATOM     14  C   UNL     1      47.306   4.235  16.604  0.00  0.00    +0.000 C 
ENDBRANCH   7   9
ENDBRANCH   1   2
BRANCH   1  15
ATOM     15  O   UNL     1      45.345   6.639  12.812  0.00  0.00    +0.000 OA
BRANCH  15  20
ATOM     16  C   UNL     1      44.736   4.320  10.078  0.00  0.00    +0.000 A 
ATOM     17  C   UNL     1      43.943   3.334  10.678  0.00  0.00    +0.000 A 
ATOM     18  C   UNL     1      43.611   3.442  12.027  0.00  0.00    +0.000 A 
ATOM     19  C   UNL     1      44.065   4.529  12.773  0.00  0.00    +0.000 A 
ATOM     20  C   UNL     1      44.845   5.526  12.179  0.00  0.00    +0.000 A 
ATOM     21  C   UNL     1      45.170   5.421  10.825  0.00  0.00    +0.000 A 
BRANCH  16  23
ATOM     22  N   UNL     1      44.359   3.254   7.923  0.00  0.00    +0.000 N 
ATOM     23  C   UNL     1      45.088   4.159   8.643  0.00  0.00    +0.000 C 
ATOM     24  O   UNL     1      45.958   4.837   8.113  0.00  0.00    +0.000 OA
ATOM     25  H   UNL     1      44.527   3.230   6.927  0.00  0.00    +0.000 HD
ATOM     26  H   UNL     1      43.492   2.861   8.264  0.00  0.00    +0.000 HD
ENDBRANCH  16  23
ENDBRANCH  15  20
ENDBRANCH   1  15
TORSDOF 5
ENDMDL
