MODEL 1
REMARK VINA RESULT:    -8.378      0.000      0.000
REMARK INTER + INTRA:         -11.051
REMARK INTER:                 -10.827
REMARK INTRA:                  -0.224
REMARK UNBOUND:                -0.224
REMARK  Name = 
REMARK  5 active torsions:
REMARK  status: ('A' for Active; 'I' for Inactive)
REMARK    1  A    between atoms: C_2  and  C_18
REMARK    2  A    between atoms: N_3  and  C_4
REMARK    3  A    between atoms: C_4  and  C_5
REMARK    4  A    between atoms: C_8  and  C_9
REMARK    5  A    between atoms: C_9  and  C_10
REMARK                            x       y       z     vdW  Elec       q    Type
REMARK                         _______ _______ _______ _____ _____    ______ ____
ROOT
ATOM      1  O   UNL     1      47.190   3.323  14.081  0.00  0.00    +0.000 OA
ATOM      2  C   UNL     1      46.959   4.500  14.328  0.00  0.00    +0.000 C 
ATOM      3  N   UNL     1      45.809   5.164  13.979  0.00  0.00    +0.000 N 
ATOM      4  H   UNL     1      45.594   6.001  14.499  0.00  0.00    +0.000 HD
ENDROOT
BRANCH   2   5
ATOM      5  C   UNL     1      47.744   5.301  15.251  0.00  0.00    +0.000 A 
ATOM      6  C   UNL     1      48.347   6.484  14.870  0.00  0.00    +0.000 A 
ATOM      7  S   UNL     1      49.732   6.800  15.834  0.00  0.00    +0.000 S 
ATOM      8  C   UNL     1      49.384   5.487  16.867  0.00  0.00    +0.000 A 
ATOM      9  N   UNL     1      50.242   5.069  17.835  0.00  0.00    +0.000 NA
ATOM     10  C   UNL     1      49.793   4.104  18.570  0.00  0.00    +0.000 A 
ATOM     11  N   UNL     1      48.546   3.542  18.454  0.00  0.00    +0.000 N 
ATOM     12  C   UNL     1      47.650   3.907  17.474  0.00  0.00    +0.000 A 
ATOM     13  O   UNL     1      46.534   3.410  17.394  0.00  0.00    +0.000 OA
ATOM     14  C   UNL     1      48.167   4.919  16.564  0.00  0.00    +0.000 A 
ATOM     15  H   UNL     1      48.217   2.849  19.117  0.00  0.00    +0.000 HD
ENDBRANCH   2   5
BRANCH   3  16
ATOM     16  C   UNL     1      44.653   4.488  13.465  0.00  0.00    +0.000 C 
BRANCH  16  17
ATOM     17  C   UNL     1      44.779   4.371  11.971  0.00  0.00    +0.000 A 
ATOM     18  C   UNL     1      45.467   5.342  11.230  0.00  0.00    +0.000 A 
ATOM     19  C   UNL     1      45.588   5.227   9.841  0.00  0.00    +0.000 A 
ATOM     20  C   UNL     1      45.023   4.135   9.163  0.00  0.00    +0.000 A 
ATOM     21  C   UNL     1      44.291   3.193   9.899  0.00  0.00    +0.000 A 
ATOM     22  C   UNL     1      44.161   3.311  11.285  0.00  0.00    +0.000 A 
BRANCH  20  23
ATOM     23  C   UNL     1      45.261   3.940   7.683  0.00  0.00    +0.000 C 
BRANCH  23  24
ATOM     24  C   UNL     1      46.154   2.767   7.401  0.00  0.00    +0.000 A 
ATOM     25  C   UNL     1      47.059   2.757   6.357  0.00  0.00    +0.000 A 
ATOM     26  N   UNL     1      47.800   1.686   6.013  0.00  0.00    +0.000 NA
ATOM     27  C   UNL     1      47.608   0.584   6.754  0.00  0.00    +0.000 A 
ATOM     28  N   UNL     1      46.789   0.479   7.811  0.00  0.00    +0.000 NA
ATOM     29  C   UNL     1      46.077   1.584   8.109  0.00  0.00    +0.000 A 
ENDBRANCH  23  24
ENDBRANCH  20  23
ENDBRANCH  16  17
ENDBRANCH   3  16
TORSDOF 5
ENDMDL
MODEL 2
REMARK VINA RESULT:    -8.025      1.723      2.744
REMARK INTER + INTRA:         -10.594
REMARK INTER:                  -9.795
REMARK INTRA:                  -0.800
REMARK UNBOUND:                -0.224
REMARK  Name = 
REMARK  5 active torsions:
REMARK  status: ('A' for Active; 'I' for Inactive)
REMARK    1  A    between atoms: C_2  and  C_18
REMARK    2  A    between atoms: N_3  and  C_4
REMARK    3  A    between atoms: C_4  and  C_5
REMARK    4  A    between atoms: C_8  and  C_9
REMARK    5  A    between atoms: C_9  and  C_10
REMARK                            x       y       z     vdW  Elec       q    Type
REMARK                         _______ _______ _______ _____ _____    ______ ____
ROOT
ATOM      1  O   UNL     1      47.321   3.374  14.697  0.00  0.00    +0.000 OA
ATOM      2  C   UNL     1      47.257   4.597  14.679  0.00  0.00    +0.000 C 
ATOM      3  N   UNL     1      46.196   5.320  14.194  0.00  0.00    +0.000 N 
ATOM      4  H   UNL     1      46.111   6.272  14.516  0.00  0.00    +0.000 HD
ENDROOT
BRANCH   2   5
ATOM      5  C   UNL     1      48.171   5.464  15.402  0.00  0.00    +0.000 A 
ATOM      6  C   UNL     1      48.418   5.309  16.752  0.00  0.00    +0.000 A 
ATOM      7  S   UNL     1      48.881   6.803  17.461  0.00  0.00    +0.000 S 
ATOM      8  C   UNL     1      48.953   7.570  15.938  0.00  0.00    +0.000 A 
ATOM      9  N   UNL     1      49.140   8.910  15.801  0.00  0.00    +0.000 NA
ATOM     10  C   UNL     1      49.235   9.315  14.576  0.00  0.00    +0.000 A 
ATOM     11  N   UNL     1      49.201   8.499  13.473  0.00  0.00    +0.000 N 
ATOM     12  C   UNL     1      48.985   7.142  13.553  0.00  0.00    +0.000 A 
ATOM     13  O   UNL     1      48.975   6.423  12.562  0.00  0.00    +0.000 OA
ATOM     14  C   UNL     1      48.769   6.669  14.913  0.00  0.00    +0.000 A 
ATOM     15  H   UNL     1      49.369   8.864  12.541  0.00  0.00    +0.000 HD
ENDBRANCH   2   5
BRANCH   3  16
ATOM     16  C   UNL     1      44.944   4.713  13.843  0.00  0.00    +0.000 C 
BRANCH  16  17
ATOM     17  C   UNL     1      44.889   4.532  12.352  0.00  0.00    +0.000 A 
ATOM     18  C   UNL     1      45.580   5.401  11.496  0.00  0.00    +0.000 A 
ATOM     19  C   UNL     1      45.532   5.226  10.110  0.00  0.00    +0.000 A 
ATOM     20  C   UNL     1      44.791   4.175   9.547  0.00  0.00    +0.000 A 
ATOM     21  C   UNL     1      44.059   3.337  10.401  0.00  0.00    +0.000 A 
ATOM     22  C   UNL     1      44.098   3.516  11.786  0.00  0.00    +0.000 A 
BRANCH  20  23
ATOM     23  C   UNL     1      44.841   3.904   8.061  0.00  0.00    +0.000 C 
BRANCH  23  24
ATOM     24  C   UNL     1      45.906   2.910   7.700  0.00  0.00    +0.000 A 
ATOM     25  C   UNL     1      46.868   3.169   6.742  0.00  0.00    +0.000 A 
ATOM     26  N   UNL     1      47.772   2.263   6.319  0.00  0.00    +0.000 NA
ATOM     27  C   UNL     1      47.690   1.052   6.889  0.00  0.00    +0.000 A 
ATOM     28  N   UNL     1      46.829   0.690   7.851  0.00  0.00    +0.000 NA
ATOM     29  C   UNL     1      45.951   1.638   8.235  0.00  0.00    +0.000 A 
ENDBRANCH  23  24
ENDBRANCH  20  23
ENDBRANCH  16  17
ENDBRANCH   3  16
TORSDOF 5
ENDMDL
MODEL 3
REMARK VINA RESULT:    -7.931      3.146      8.496
REMARK INTER + INTRA:         -10.472
REMARK INTER:                  -9.581
REMARK INTRA:                  -0.892
REMARK UNBOUND:                -0.224
REMARK  Name = 
REMARK  5 active torsions:
REMARK  status: ('A' for Active; 'I' for Inactive)
REMARK    1  A    between atoms: C_2  and  C_18
REMARK    2  A    between atoms: N_3  and  C_4
REMARK    3  A    between atoms: C_4  and  C_5
REMARK    4  A    between atoms: C_8  and  C_9
REMARK    5  A    between atoms: C_9  and  C_10
REMARK                            x       y       z     vdW  Elec       q    Type
REMARK                         _______ _______ _______ _____ _____    ______ ____
ROOT
ATOM      1  O   UNL     1      45.453   7.955  11.335  0.00  0.00    +0.000 OA
ATOM      2  C   UNL     1      45.618   6.742  11.372  0.00  0.00    +0.000 C 
ATOM      3  N   UNL     1      46.721   6.116  11.896  0.00  0.00    +0.000 N 
ATOM      4  H   UNL     1      46.610   5.149  12.162  0.00  0.00    +0.000 HD
ENDROOT
BRANCH   2   5
ATOM      5  C   UNL     1      44.566   5.776  11.108  0.00  0.00    +0.000 A 
ATOM      6  C   UNL     1      43.439   5.681  11.902  0.00  0.00    +0.000 A 
ATOM      7  S   UNL     1      42.791   4.091  11.852  0.00  0.00    +0.000 S 
ATOM      8  C   UNL     1      43.880   3.624  10.623  0.00  0.00    +0.000 A 
ATOM      9  N   UNL     1      43.996   2.337  10.198  0.00  0.00    +0.000 NA
ATOM     10  C   UNL     1      44.820   2.170   9.216  0.00  0.00    +0.000 A 
ATOM     11  N   UNL     1      45.513   3.176   8.590  0.00  0.00    +0.000 N 
ATOM     12  C   UNL     1      45.455   4.490   8.998  0.00  0.00    +0.000 A 
ATOM     13  O   UNL     1      46.064   5.380   8.419  0.00  0.00    +0.000 OA
ATOM     14  C   UNL     1      44.615   4.696  10.170  0.00  0.00    +0.000 A 
ATOM     15  H   UNL     1      46.077   2.995   7.767  0.00  0.00    +0.000 HD
ENDBRANCH   2   5
BRANCH   3  16
ATOM     16  C   UNL     1      47.718   6.815  12.655  0.00  0.00    +0.000 C 
BRANCH  16  17
ATOM     17  C   UNL     1      47.858   6.159  14.000  0.00  0.00    +0.000 A 
ATOM     18  C   UNL     1      47.151   4.988  14.306  0.00  0.00    +0.000 A 
ATOM     19  C   UNL     1      47.289   4.376  15.556  0.00  0.00    +0.000 A 
ATOM     20  C   UNL     1      48.140   4.923  16.529  0.00  0.00    +0.000 A 
ATOM     21  C   UNL     1      48.807   6.123  16.240  0.00  0.00    +0.000 A 
ATOM     22  C   UNL     1      48.663   6.740  14.996  0.00  0.00    +0.000 A 
BRANCH  20  23
ATOM     23  C   UNL     1      48.391   4.198  17.831  0.00  0.00    +0.000 C 
BRANCH  23  24
ATOM     24  C   UNL     1      49.618   3.335  17.773  0.00  0.00    +0.000 A 
ATOM     25  C   UNL     1      50.836   3.743  18.281  0.00  0.00    +0.000 A 
ATOM     26  N   UNL     1      51.979   3.039  18.154  0.00  0.00    +0.000 NA
ATOM     27  C   UNL     1      51.876   1.883  17.482  0.00  0.00    +0.000 A 
ATOM     28  N   UNL     1      50.749   1.363  16.975  0.00  0.00    +0.000 NA
ATOM     29  C   UNL     1      49.638   2.110  17.135  0.00  0.00    +0.000 A 
ENDBRANCH  23  24
ENDBRANCH  20  23
ENDBRANCH  16  17
ENDBRANCH   3  16
TORSDOF 5
ENDMDL
MODEL 4
REMARK VINA RESULT:    -7.893      3.171      4.626
REMARK INTER + INTRA:         -10.424
REMARK INTER:                  -9.096
REMARK INTRA:                  -1.328
REMARK UNBOUND:                -0.224
REMARK  Name = 
REMARK  5 active torsions:
REMARK  status: ('A' for Active; 'I' for Inactive)
REMARK    1  A    between atoms: C_2  and  C_18
REMARK    2  A    between atoms: N_3  and  C_4
REMARK    3  A    between atoms: C_4  and  C_5
REMARK    4  A    between atoms: C_8  and  C_9
REMARK    5  A    between atoms: C_9  and  C_10
REMARK                            x       y       z     vdW  Elec       q    Type
REMARK                         _______ _______ _______ _____ _____    ______ ____
ROOT
ATOM      1  O   UNL     1      50.835   6.718  15.386  0.00  0.00    +0.000 OA
ATOM      2  C   UNL     1      49.783   7.115  15.872  0.00  0.00    +0.000 C 
ATOM      3  N   UNL     1      48.916   7.986  15.262  0.00  0.00    +0.000 N 
ATOM      4  H   UNL     1      47.964   7.986  15.596  0.00  0.00    +0.000 HD
ENDROOT
BRANCH   2   5
ATOM      5  C   UNL     1      49.164   6.525  17.047  0.00  0.00    +0.000 A 
ATOM      6  C   UNL     1      49.453   6.959  18.327  0.00  0.00    +0.000 A 
ATOM      7  S   UNL     1      49.213   5.698  19.466  0.00  0.00    +0.000 S 
ATOM      8  C   UNL     1      48.531   4.677  18.280  0.00  0.00    +0.000 A 
ATOM      9  N   UNL     1      48.235   3.372  18.519  0.00  0.00    +0.000 NA
ATOM     10  C   UNL     1      47.664   2.762  17.532  0.00  0.00    +0.000 A 
ATOM     11  N   UNL     1      47.323   3.346  16.338  0.00  0.00    +0.000 N 
ATOM     12  C   UNL     1      47.625   4.655  16.032  0.00  0.00    +0.000 A 
ATOM     13  O   UNL     1      47.298   5.169  14.970  0.00  0.00    +0.000 OA
ATOM     14  C   UNL     1      48.363   5.340  17.085  0.00  0.00    +0.000 A 
ATOM     15  H   UNL     1      46.797   2.840  15.634  0.00  0.00    +0.000 HD
ENDBRANCH   2   5
BRANCH   3  16
ATOM     16  C   UNL     1      49.048   8.370  13.886  0.00  0.00    +0.000 C 
BRANCH  16  17
ATOM     17  C   UNL     1      47.794   7.991  13.149  0.00  0.00    +0.000 A 
ATOM     18  C   UNL     1      47.816   7.000  12.157  0.00  0.00    +0.000 A 
ATOM     19  C   UNL     1      46.646   6.644  11.478  0.00  0.00    +0.000 A 
ATOM     20  C   UNL     1      45.426   7.272  11.778  0.00  0.00    +0.000 A 
ATOM     21  C   UNL     1      45.416   8.298  12.734  0.00  0.00    +0.000 A 
ATOM     22  C   UNL     1      46.585   8.661  13.406  0.00  0.00    +0.000 A 
BRANCH  20  23
ATOM     23  C   UNL     1      44.140   6.802  11.140  0.00  0.00    +0.000 C 
BRANCH  23  24
ATOM     24  C   UNL     1      43.814   5.380  11.496  0.00  0.00    +0.000 A 
ATOM     25  C   UNL     1      43.711   4.948  12.804  0.00  0.00    +0.000 A 
ATOM     26  N   UNL     1      43.524   3.662  13.160  0.00  0.00    +0.000 NA
ATOM     27  C   UNL     1      43.444   2.786  12.147  0.00  0.00    +0.000 A 
ATOM     28  N   UNL     1      43.492   3.084  10.841  0.00  0.00    +0.000 NA
ATOM     29  C   UNL     1      43.678   4.387  10.547  0.00  0.00    +0.000 A 
ENDBRANCH  23  24
ENDBRANCH  20  23
ENDBRANCH  16  17
ENDBRANCH   3  16
TORSDOF 5
ENDMDL
MODEL 5
REMARK VINA RESULT:    -7.835      2.049      3.138
REMARK INTER + INTRA:         -10.348
REMARK INTER:                  -9.432
REMARK INTRA:                  -0.916
REMARK UNBOUND:                -0.224
REMARK  Name = 
REMARK  5 active torsions:
REMARK  status: ('A' for Active; 'I' for Inactive)
REMARK    1  A    between atoms: C_2  and  C_18
REMARK    2  A    between atoms: N_3  and  C_4
REMARK    3  A    between atoms: C_4  and  C_5
REMARK    4  A    between atoms: C_8  and  C_9
REMARK    5  A    between atoms: C_9  and  C_10
REMARK                            x       y       z     vdW  Elec       q    Type
REMARK                         _______ _______ _______ _____ _____    ______ ____
ROOT
ATOM      1  O   UNL     1      48.500   8.216  16.743  0.00  0.00    +0.000 OA
ATOM      2  C   UNL     1      48.674   7.049  16.413  0.00  0.00    +0.000 C 
ATOM      3  N   UNL     1      48.380   6.530  15.178  0.00  0.00    +0.000 N 
ATOM      4  H   UNL     1      48.850   5.675  14.921  0.00  0.00    +0.000 HD
ENDROOT
BRANCH   2   5
ATOM      5  C   UNL     1      49.458   6.101  17.186  0.00  0.00    +0.000 A 
ATOM      6  C   UNL     1      50.627   6.464  17.829  0.00  0.00    +0.000 A 
ATOM      7  S   UNL     1      51.673   5.113  17.996  0.00  0.00    +0.000 S 
ATOM      8  C   UNL     1      50.480   4.041  17.414  0.00  0.00    +0.000 A 
ATOM      9  N   UNL     1      50.738   2.734  17.144  0.00  0.00    +0.000 NA
ATOM     10  C   UNL     1      49.705   2.050  16.773  0.00  0.00    +0.000 A 
ATOM     11  N   UNL     1      48.427   2.540  16.684  0.00  0.00    +0.000 N 
ATOM     12  C   UNL     1      48.114   3.861  16.918  0.00  0.00    +0.000 A 
ATOM     13  O   UNL     1      46.966   4.281  16.853  0.00  0.00    +0.000 OA
ATOM     14  C   UNL     1      49.274   4.682  17.235  0.00  0.00    +0.000 A 
ATOM     15  H   UNL     1      47.642   1.933  16.473  0.00  0.00    +0.000 HD
ENDBRANCH   2   5
BRANCH   3  16
ATOM     16  C   UNL     1      48.026   7.354  14.058  0.00  0.00    +0.000 C 
BRANCH  16  17
ATOM     17  C   UNL     1      46.987   6.644  13.236  0.00  0.00    +0.000 A 
ATOM     18  C   UNL     1      46.145   7.357  12.371  0.00  0.00    +0.000 A 
ATOM     19  C   UNL     1      45.183   6.693  11.602  0.00  0.00    +0.000 A 
ATOM     20  C   UNL     1      45.043   5.299  11.682  0.00  0.00    +0.000 A 
ATOM     21  C   UNL     1      45.850   4.593  12.587  0.00  0.00    +0.000 A 
ATOM     22  C   UNL     1      46.805   5.256  13.361  0.00  0.00    +0.000 A 
BRANCH  20  23
ATOM     23  C   UNL     1      44.097   4.564  10.761  0.00  0.00    +0.000 C 
BRANCH  23  24
ATOM     24  C   UNL     1      44.815   3.884   9.632  0.00  0.00    +0.000 A 
ATOM     25  C   UNL     1      44.942   2.511   9.554  0.00  0.00    +0.000 A 
ATOM     26  N   UNL     1      45.668   1.874   8.613  0.00  0.00    +0.000 NA
ATOM     27  C   UNL     1      46.288   2.665   7.725  0.00  0.00    +0.000 A 
ATOM     28  N   UNL     1      46.214   4.003   7.673  0.00  0.00    +0.000 NA
ATOM     29  C   UNL     1      45.472   4.583   8.638  0.00  0.00    +0.000 A 
ENDBRANCH  23  24
ENDBRANCH  20  23
ENDBRANCH  16  17
ENDBRANCH   3  16
TORSDOF 5
ENDMDL
MODEL 6
REMARK VINA RESULT:    -7.412      2.601      3.282
REMARK INTER + INTRA:          -9.802
REMARK INTER:                  -9.114
REMARK INTRA:                  -0.689
REMARK UNBOUND:                -0.224
REMARK  Name = 
REMARK  5 active torsions:
REMARK  status: ('A' for Active; 'I' for Inactive)
REMARK    1  A    between atoms: C_2  and  C_18
REMARK    2  A    between atoms: N_3  and  C_4
REMARK    3  A    between atoms: C_4  and  C_5
REMARK    4  A    between atoms: C_8  and  C_9
REMARK    5  A    between atoms: C_9  and  C_10
REMARK                            x       y       z     vdW  Elec       q    Type
REMARK                         _______ _______ _______ _____ _____    ______ ____
ROOT
ATOM      1  O   UNL     1      49.203   6.524  13.360  0.00  0.00    +0.000 OA
ATOM      2  C   UNL     1      48.279   7.211  13.779  0.00  0.00    +0.000 C 
ATOM      3  N   UNL     1      47.014   6.749  14.043  0.00  0.00    +0.000 N 
ATOM      4  H   UNL     1      46.451   7.303  14.669  0.00  0.00    +0.000 HD
ENDROOT
BRANCH   2   5
ATOM      5  C   UNL     1      48.448   8.553  14.310  0.00  0.00    +0.000 A 
ATOM      6  C   UNL     1      48.285   9.679  13.526  0.00  0.00    +0.000 A 
ATOM      7  S   UNL     1      49.221  10.984  14.133  0.00  0.00    +0.000 S 
ATOM      8  C   UNL     1      49.649  10.102  15.531  0.00  0.00    +0.000 A 
ATOM      9  N   UNL     1      50.566  10.552  16.428  0.00  0.00    +0.000 NA
ATOM     10  C   UNL     1      50.722   9.791  17.462  0.00  0.00    +0.000 A 
ATOM     11  N   UNL     1      50.016   8.639  17.705  0.00  0.00    +0.000 N 
ATOM     12  C   UNL     1      49.098   8.124  16.817  0.00  0.00    +0.000 A 
ATOM     13  O   UNL     1      48.462   7.105  17.055  0.00  0.00    +0.000 OA
ATOM     14  C   UNL     1      48.976   8.903  15.593  0.00  0.00    +0.000 A 
ATOM     15  H   UNL     1      50.120   8.131  18.577  0.00  0.00    +0.000 HD
ENDBRANCH   2   5
BRANCH   3  16
ATOM     16  C   UNL     1      46.689   5.352  14.053  0.00  0.00    +0.000 C 
BRANCH  16  17
ATOM     17  C   UNL     1      46.101   4.976  12.722  0.00  0.00    +0.000 A 
ATOM     18  C   UNL     1      46.113   5.880  11.650  0.00  0.00    +0.000 A 
ATOM     19  C   UNL     1      45.571   5.525  10.411  0.00  0.00    +0.000 A 
ATOM     20  C   UNL     1      45.005   4.255  10.215  0.00  0.00    +0.000 A 
ATOM     21  C   UNL     1      44.947   3.371  11.303  0.00  0.00    +0.000 A 
ATOM     22  C   UNL     1      45.480   3.727  12.544  0.00  0.00    +0.000 A 
BRANCH  20  23
ATOM     23  C   UNL     1      44.536   3.821   8.846  0.00  0.00    +0.000 C 
BRANCH  23  24
ATOM     24  C   UNL     1      45.547   2.963   8.144  0.00  0.00    +0.000 A 
ATOM     25  C   UNL     1      45.709   1.621   8.430  0.00  0.00    +0.000 A 
ATOM     26  N   UNL     1      46.674   0.848   7.896  0.00  0.00    +0.000 NA
ATOM     27  C   UNL     1      47.507   1.465   7.043  0.00  0.00    +0.000 A 
ATOM     28  N   UNL     1      47.432   2.747   6.658  0.00  0.00    +0.000 NA
ATOM     29  C   UNL     1      46.444   3.469   7.224  0.00  0.00    +0.000 A 
ENDBRANCH  23  24
ENDBRANCH  20  23
ENDBRANCH  16  17
ENDBRANCH   3  16
TORSDOF 5
ENDMDL
MODEL 7
REMARK VINA RESULT:    -6.861      3.032      9.657
REMARK INTER + INTRA:          -9.090
REMARK INTER:                  -8.484
REMARK INTRA:                  -0.606
REMARK UNBOUND:                -0.224
REMARK  Name = 
REMARK  5 active torsions:
REMARK  status: ('A' for Active; 'I' for Inactive)
REMARK    1  A    between atoms: C_2  and  C_18
REMARK    2  A    between atoms: N_3  and  C_4
REMARK    3  A    between atoms: C_4  and  C_5
REMARK    4  A    between atoms: C_8  and  C_9
REMARK    5  A    between atoms: C_9  and  C_10
REMARK                            x       y       z     vdW  Elec       q    Type
REMARK                         _______ _______ _______ _____ _____    ______ ____
ROOT
ATOM      1  O   UNL     1      46.413   7.326  11.266  0.00  0.00    +0.000 OA
ATOM      2  C   UNL     1      46.230   6.207  11.731  0.00  0.00    +0.000 C 
ATOM      3  N   UNL     1      46.953   5.657  12.759  0.00  0.00    +0.000 N 
ATOM      4  H   UNL     1      46.522   4.895  13.259  0.00  0.00    +0.000 HD
ENDROOT
BRANCH   2   5
ATOM      5  C   UNL     1      45.059   5.396  11.446  0.00  0.00    +0.000 A 
ATOM      6  C   UNL     1      44.031   5.244  12.357  0.00  0.00    +0.000 A 
ATOM      7  S   UNL     1      43.220   3.750  12.114  0.00  0.00    +0.000 S 
ATOM      8  C   UNL     1      44.098   3.439  10.684  0.00  0.00    +0.000 A 
ATOM      9  N   UNL     1      44.027   2.252  10.025  0.00  0.00    +0.000 NA
ATOM     10  C   UNL     1      44.706   2.208   8.925  0.00  0.00    +0.000 A 
ATOM     11  N   UNL     1      45.419   3.256   8.399  0.00  0.00    +0.000 N 
ATOM     12  C   UNL     1      45.549   4.469   9.039  0.00  0.00    +0.000 A 
ATOM     13  O   UNL     1      46.174   5.401   8.549  0.00  0.00    +0.000 OA
ATOM     14  C   UNL     1      44.882   4.515  10.333  0.00  0.00    +0.000 A 
ATOM     15  H   UNL     1      45.859   3.190   7.487  0.00  0.00    +0.000 HD
ENDBRANCH   2   5
BRANCH   3  16
ATOM     16  C   UNL     1      47.876   6.420  13.549  0.00  0.00    +0.000 C 
BRANCH  16  17
ATOM     17  C   UNL     1      48.010   5.779  14.902  0.00  0.00    +0.000 A 
ATOM     18  C   UNL     1      47.266   4.636  15.232  0.00  0.00    +0.000 A 
ATOM     19  C   UNL     1      47.398   4.038  16.489  0.00  0.00    +0.000 A 
ATOM     20  C   UNL     1      48.278   4.569  17.445  0.00  0.00    +0.000 A 
ATOM     21  C   UNL     1      48.981   5.741  17.132  0.00  0.00    +0.000 A 
ATOM     22  C   UNL     1      48.845   6.345  15.881  0.00  0.00    +0.000 A 
BRANCH  20  23
ATOM     23  C   UNL     1      48.519   3.853  18.754  0.00  0.00    +0.000 C 
BRANCH  23  24
ATOM     24  C   UNL     1      48.957   4.789  19.842  0.00  0.00    +0.000 A 
ATOM     25  C   UNL     1      48.061   5.531  20.589  0.00  0.00    +0.000 A 
ATOM     26  N   UNL     1      48.424   6.455  21.499  0.00  0.00    +0.000 NA
ATOM     27  C   UNL     1      49.745   6.634  21.650  0.00  0.00    +0.000 A 
ATOM     28  N   UNL     1      50.710   5.955  21.014  0.00  0.00    +0.000 NA
ATOM     29  C   UNL     1      50.286   5.041  20.118  0.00  0.00    +0.000 A 
ENDBRANCH  23  24
ENDBRANCH  20  23
ENDBRANCH  16  17
ENDBRANCH   3  16
TORSDOF 5
ENDMDL
MODEL 8
REMARK VINA RESULT:    -6.859      2.640      3.791
REMARK INTER + INTRA:          -9.088
REMARK INTER:                  -8.346
REMARK INTRA:                  -0.741
REMARK UNBOUND:                -0.224
REMARK  Name = 
REMARK  5 active torsions:
REMARK  status: ('A' for Active; 'I' for Inactive)
REMARK    1  A    between atoms: C_2  and  C_18
REMARK    2  A    between atoms: N_3  and  C_4
REMARK    3  A    between atoms: C_4  and  C_5
REMARK    4  A    between atoms: C_8  and  C_9
REMARK    5  A    between atoms: C_9  and  C_10
REMARK                            x       y       z     vdW  Elec       q    Type
REMARK                         _______ _______ _______ _____ _____    ______ ____
ROOT
ATOM      1  O   UNL     1      50.653   7.110  16.052  0.00  0.00    +0.000 OA
ATOM      2  C   UNL     1      49.620   6.524  16.352  0.00  0.00    +0.000 C 
ATOM      3  N   UNL     1      48.467   6.535  15.609  0.00  0.00    +0.000 N 
ATOM      4  H   UNL     1      47.814   5.784  15.773  0.00  0.00    +0.000 HD
ENDROOT
BRANCH   2   5
ATOM      5  C   UNL     1      49.536   5.520  17.399  0.00  0.00    +0.000 A 
ATOM      6  C   UNL     1      49.195   4.207  17.134  0.00  0.00    +0.000 A 
ATOM      7  S   UNL     1      48.468   3.478  18.507  0.00  0.00    +0.000 S 
ATOM      8  C   UNL     1      48.812   4.835  19.483  0.00  0.00    +0.000 A 
ATOM      9  N   UNL     1      48.336   4.966  20.750  0.00  0.00    +0.000 NA
ATOM     10  C   UNL     1      48.747   6.024  21.370  0.00  0.00    +0.000 A 
ATOM     11  N   UNL     1      49.624   6.945  20.857  0.00  0.00    +0.000 N 
ATOM     12  C   UNL     1      50.115   6.877  19.571  0.00  0.00    +0.000 A 
ATOM     13  O   UNL     1      50.912   7.696  19.133  0.00  0.00    +0.000 OA
ATOM     14  C   UNL     1      49.587   5.753  18.810  0.00  0.00    +0.000 A 
ATOM     15  H   UNL     1      49.980   7.708  21.423  0.00  0.00    +0.000 HD
ENDBRANCH   2   5
BRANCH   3  16
ATOM     16  C   UNL     1      48.411   7.069  14.278  0.00  0.00    +0.000 C 
BRANCH  16  17
ATOM     17  C   UNL     1      47.301   6.393  13.524  0.00  0.00    +0.000 A 
ATOM     18  C   UNL     1      46.391   7.139  12.762  0.00  0.00    +0.000 A 
ATOM     19  C   UNL     1      45.363   6.506  12.056  0.00  0.00    +0.000 A 
ATOM     20  C   UNL     1      45.223   5.110  12.096  0.00  0.00    +0.000 A 
ATOM     21  C   UNL     1      46.102   4.369  12.900  0.00  0.00    +0.000 A 
ATOM     22  C   UNL     1      47.123   5.001  13.613  0.00  0.00    +0.000 A 
BRANCH  20  23
ATOM     23  C   UNL     1      44.196   4.412  11.235  0.00  0.00    +0.000 C 
BRANCH  23  24
ATOM     24  C   UNL     1      44.791   3.867   9.969  0.00  0.00    +0.000 A 
ATOM     25  C   UNL     1      44.914   2.512   9.730  0.00  0.00    +0.000 A 
ATOM     26  N   UNL     1      45.537   1.990   8.655  0.00  0.00    +0.000 NA
ATOM     27  C   UNL     1      46.056   2.881   7.796  0.00  0.00    +0.000 A 
ATOM     28  N   UNL     1      45.971   4.215   7.897  0.00  0.00    +0.000 NA
ATOM     29  C   UNL     1      45.335   4.678   8.992  0.00  0.00    +0.000 A 
ENDBRANCH  23  24
ENDBRANCH  20  23
ENDBRANCH  16  17
ENDBRANCH   3  16
TORSDOF 5
ENDMDL
MODEL 9
REMARK VINA RESULT:    -6.853      2.579      4.137
REMARK INTER + INTRA:          -9.080
REMARK INTER:                  -8.241
REMARK INTRA:                  -0.838
REMARK UNBOUND:                -0.224
REMARK  Name = 
REMARK  5 active torsions:
REMARK  status: ('A' for Active; 'I' for Inactive)
REMARK    1  A    between atoms: C_2  and  C_18
REMARK    2  A    between atoms: N_3  and  C_4
REMARK    3  A    between atoms: C_4  and  C_5
REMARK    4  A    between atoms: C_8  and  C_9
REMARK    5  A    between atoms: C_9  and  C_10
REMARK                            x       y       z     vdW  Elec       q    Type
REMARK                         _______ _______ _______ _____ _____    ______ ____
ROOT
ATOM      1  O   UNL     1      51.877   7.535  15.988  0.00  0.00    +0.000 OA
ATOM      2  C   UNL     1      50.907   6.805  16.150  0.00  0.00    +0.000 C 
ATOM      3  N   UNL     1      49.789   6.797  15.355  0.00  0.00    +0.000 N 
ATOM      4  H   UNL     1      49.221   5.964  15.381  0.00  0.00    +0.000 HD
ENDROOT
BRANCH   2   5
ATOM      5  C   UNL     1      50.901   5.659  17.043  0.00  0.00    +0.000 A 
ATOM      6  C   UNL     1      52.038   4.914  17.293  0.00  0.00    +0.000 A 
ATOM      7  S   UNL     1      51.628   3.302  17.720  0.00  0.00    +0.000 S 
ATOM      8  C   UNL     1      49.964   3.678  17.774  0.00  0.00    +0.000 A 
ATOM      9  N   UNL     1      49.004   2.728  17.929  0.00  0.00    +0.000 NA
ATOM     10  C   UNL     1      47.800   3.192  18.015  0.00  0.00    +0.000 A 
ATOM     11  N   UNL     1      47.467   4.523  18.001  0.00  0.00    +0.000 N 
ATOM     12  C   UNL     1      48.395   5.524  17.817  0.00  0.00    +0.000 A 
ATOM     13  O   UNL     1      48.087   6.709  17.826  0.00  0.00    +0.000 OA
ATOM     14  C   UNL     1      49.749   5.028  17.612  0.00  0.00    +0.000 A 
ATOM     15  H   UNL     1      46.514   4.831  18.161  0.00  0.00    +0.000 HD
ENDBRANCH   2   5
BRANCH   3  16
ATOM     16  C   UNL     1      49.722   7.506  14.110  0.00  0.00    +0.000 C 
BRANCH  16  17
ATOM     17  C   UNL     1      48.455   7.124  13.396  0.00  0.00    +0.000 A 
ATOM     18  C   UNL     1      47.770   5.948  13.730  0.00  0.00    +0.000 A 
ATOM     19  C   UNL     1      46.588   5.598  13.069  0.00  0.00    +0.000 A 
ATOM     20  C   UNL     1      46.065   6.419  12.057  0.00  0.00    +0.000 A 
ATOM     21  C   UNL     1      46.780   7.568  11.689  0.00  0.00    +0.000 A 
ATOM     22  C   UNL     1      47.965   7.914  12.342  0.00  0.00    +0.000 A 
BRANCH  20  23
ATOM     23  C   UNL     1      44.724   6.113  11.431  0.00  0.00    +0.000 C 
BRANCH  23  24
ATOM     24  C   UNL     1      44.780   4.919  10.523  0.00  0.00    +0.000 A 
ATOM     25  C   UNL     1      45.541   4.898   9.371  0.00  0.00    +0.000 A 
ATOM     26  N   UNL     1      45.533   3.886   8.481  0.00  0.00    +0.000 NA
ATOM     27  C   UNL     1      44.717   2.862   8.774  0.00  0.00    +0.000 A 
ATOM     28  N   UNL     1      43.958   2.749   9.875  0.00  0.00    +0.000 NA
ATOM     29  C   UNL     1      44.010   3.791  10.728  0.00  0.00    +0.000 A 
ENDBRANCH  23  24
ENDBRANCH  20  23
ENDBRANCH  16  17
ENDBRANCH   3  16
TORSDOF 5
ENDMDL
