MODEL 1
REMARK VINA RESULT:    -7.797      0.000      0.000
REMARK INTER + INTRA:         -11.609
REMARK INTER:                 -10.532
REMARK INTRA:                  -1.076
REMARK UNBOUND:                -1.076
REMARK  Name = 
REMARK  8 active torsions:
REMARK  status: ('A' for Active; 'I' for Inactive)
REMARK    1  A    between atoms: C_1  and  C_2
REMARK    2  A    between atoms: C_6  and  C_7
REMARK    3  A    between atoms: C_7  and  N_8
REMARK    4  A    between atoms: N_8  and  C_9
REMARK    5  A    between atoms: C_12  and  C_13
REMARK    6  A    between atoms: C_13  and  N_14
REMARK    7  A    between atoms: C_15  and  C_17
REMARK    8  A    between atoms: C_29  and  C_30
REMARK                            x       y       z     vdW  Elec       q    Type
REMARK                         _______ _______ _______ _____ _____    ______ ____
ROOT
ATOM      1  C   UNL     1      45.523   5.145  10.817  0.00  0.00    +0.000 A 
ATOM      2  C   UNL     1      46.241   6.104  11.543  0.00  0.00    +0.000 A 
ATOM      3  C   UNL     1      46.673   5.851  12.856  0.00  0.00    +0.000 A 
ATOM      4  C   UNL     1      46.370   4.638  13.483  0.00  0.00    +0.000 A 
ATOM      5  C   UNL     1      45.563   3.724  12.802  0.00  0.00    +0.000 A 
ATOM      6  C   UNL     1      45.139   3.983  11.498  0.00  0.00    +0.000 A 
ENDROOT
BRANCH   1   7
ATOM      7  N   UNL     1      45.103   5.429   9.505  0.00  0.00    +0.000 N 
ATOM      8  H   UNL     1      45.821   5.900   8.965  0.00  0.00    +0.000 HD
BRANCH   7   9
ATOM      9  C   UNL     1      44.504   4.324   8.752  0.00  0.00    +0.000 C 
BRANCH   9  15
ATOM     10  C   UNL     1      46.737  -0.171   7.710  0.00  0.00    +0.000 C 
ATOM     11  C   UNL     1      46.658   1.331   7.613  0.00  0.00    +0.000 A 
ATOM     12  C   UNL     1      47.664   2.015   6.915  0.00  0.00    +0.000 A 
ATOM     13  C   UNL     1      47.627   3.400   6.793  0.00  0.00    +0.000 A 
ATOM     14  C   UNL     1      46.578   4.117   7.361  0.00  0.00    +0.000 A 
ATOM     15  C   UNL     1      45.555   3.466   8.077  0.00  0.00    +0.000 A 
ATOM     16  C   UNL     1      45.601   2.057   8.219  0.00  0.00    +0.000 A 
ATOM     17  C   UNL     1      44.562   1.304   9.015  0.00  0.00    +0.000 C 
ENDBRANCH   9  15
ENDBRANCH   7   9
ENDBRANCH   1   7
BRANCH   4  18
ATOM     18  C   UNL     1      46.869   4.304  14.861  0.00  0.00    +0.000 C 
BRANCH  18  19
ATOM     19  N   UNL     1      47.434   5.448  15.529  0.00  0.00    +0.000 N 
ATOM     20  C   UNL     1      48.465   5.286  16.420  0.00  0.00    +0.000 C 
ATOM     21  O   UNL     1      48.964   4.184  16.638  0.00  0.00    +0.000 OA
ATOM     22  H   UNL     1      46.889   6.305  15.539  0.00  0.00    +0.000 HD
BRANCH  20  23
ATOM     23  C   UNL     1      48.989   6.496  17.061  0.00  0.00    +0.000 A 
ATOM     24  C   UNL     1      50.034   7.188  16.462  0.00  0.00    +0.000 A 
ATOM     25  S   UNL     1      50.506   8.588  17.311  0.00  0.00    +0.000 S 
ATOM     26  C   UNL     1      49.363   8.293  18.537  0.00  0.00    +0.000 A 
ATOM     27  N   UNL     1      49.264   9.121  19.611  0.00  0.00    +0.000 NA
ATOM     28  C   UNL     1      48.376   8.765  20.477  0.00  0.00    +0.000 A 
ATOM     29  N   UNL     1      47.573   7.659  20.362  0.00  0.00    +0.000 N 
ATOM     30  C   UNL     1      47.618   6.810  19.281  0.00  0.00    +0.000 A 
ATOM     31  O   UNL     1      46.857   5.853  19.188  0.00  0.00    +0.000 OA
ATOM     32  C   UNL     1      48.612   7.155  18.285  0.00  0.00    +0.000 A 
ATOM     33  H   UNL     1      46.885   7.445  21.071  0.00  0.00    +0.000 HD
ENDBRANCH  20  23
ENDBRANCH  18  19
ENDBRANCH   4  18
TORSDOF 6
ENDMDL
MODEL 2
REMARK VINA RESULT:    -7.595      1.655      2.273
REMARK INTER + INTRA:         -11.335
REMARK INTER:                 -10.593
REMARK INTRA:                  -0.742
REMARK UNBOUND:                -1.076
REMARK  Name = 
REMARK  8 active torsions:
REMARK  status: ('A' for Active; 'I' for Inactive)
REMARK    1  A    between atoms: C_1  and  C_2
REMARK    2  A    between atoms: C_6  and  C_7
REMARK    3  A    between atoms: C_7  and  N_8
REMARK    4  A    between atoms: N_8  and  C_9
REMARK    5  A    between atoms: C_12  and  C_13
REMARK    6  A    between atoms: C_13  and  N_14
REMARK    7  A    between atoms: C_15  and  C_17
REMARK    8  A    between atoms: C_29  and  C_30
REMARK                            x       y       z     vdW  Elec       q    Type
REMARK                         _______ _______ _______ _____ _____    ______ ____
ROOT
ATOM      1  C   UNL     1      45.363   4.886  11.329  0.00  0.00    +0.000 A 
ATOM      2  C   UNL     1      45.717   6.152  10.846  0.00  0.00    +0.000 A 
ATOM      3  C   UNL     1      46.618   6.974  11.544  0.00  0.00    +0.000 A 
ATOM      4  C   UNL     1      47.166   6.555  12.761  0.00  0.00    +0.000 A 
ATOM      5  C   UNL     1      46.733   5.341  13.299  0.00  0.00    +0.000 A 
ATOM      6  C   UNL     1      45.838   4.531  12.598  0.00  0.00    +0.000 A 
ENDROOT
BRANCH   1   7
ATOM      7  N   UNL     1      44.457   4.088  10.608  0.00  0.00    +0.000 N 
ATOM      8  H   UNL     1      43.546   4.045  11.051  0.00  0.00    +0.000 HD
BRANCH   7   9
ATOM      9  C   UNL     1      44.344   4.356   9.172  0.00  0.00    +0.000 C 
BRANCH   9  15
ATOM     10  C   UNL     1      46.765   0.100   7.654  0.00  0.00    +0.000 C 
ATOM     11  C   UNL     1      46.595   1.597   7.684  0.00  0.00    +0.000 A 
ATOM     12  C   UNL     1      47.520   2.393   6.991  0.00  0.00    +0.000 A 
ATOM     13  C   UNL     1      47.397   3.778   6.984  0.00  0.00    +0.000 A 
ATOM     14  C   UNL     1      46.343   4.384   7.662  0.00  0.00    +0.000 A 
ATOM     15  C   UNL     1      45.402   3.618   8.375  0.00  0.00    +0.000 A 
ATOM     16  C   UNL     1      45.536   2.208   8.401  0.00  0.00    +0.000 A 
ATOM     17  C   UNL     1      44.588   1.334   9.187  0.00  0.00    +0.000 C 
ENDBRANCH   9  15
ENDBRANCH   7   9
ENDBRANCH   1   7
BRANCH   4  18
ATOM     18  C   UNL     1      48.182   7.376  13.505  0.00  0.00    +0.000 C 
BRANCH  18  19
ATOM     19  N   UNL     1      47.983   7.331  14.930  0.00  0.00    +0.000 N 
ATOM     20  C   UNL     1      48.998   6.914  15.754  0.00  0.00    +0.000 C 
ATOM     21  O   UNL     1      50.106   6.617  15.315  0.00  0.00    +0.000 OA
ATOM     22  H   UNL     1      47.027   7.343  15.273  0.00  0.00    +0.000 HD
BRANCH  20  23
ATOM     23  C   UNL     1      48.721   6.895  17.194  0.00  0.00    +0.000 A 
ATOM     24  C   UNL     1      48.336   8.068  17.831  0.00  0.00    +0.000 A 
ATOM     25  S   UNL     1      48.021   7.874  19.494  0.00  0.00    +0.000 S 
ATOM     26  C   UNL     1      48.437   6.225  19.434  0.00  0.00    +0.000 A 
ATOM     27  N   UNL     1      48.412   5.459  20.557  0.00  0.00    +0.000 NA
ATOM     28  C   UNL     1      48.777   4.234  20.373  0.00  0.00    +0.000 A 
ATOM     29  N   UNL     1      49.156   3.705  19.167  0.00  0.00    +0.000 N 
ATOM     30  C   UNL     1      49.169   4.434  18.000  0.00  0.00    +0.000 A 
ATOM     31  O   UNL     1      49.474   3.920  16.929  0.00  0.00    +0.000 OA
ATOM     32  C   UNL     1      48.784   5.822  18.154  0.00  0.00    +0.000 A 
ATOM     33  H   UNL     1      49.416   2.732  19.090  0.00  0.00    +0.000 HD
ENDBRANCH  20  23
ENDBRANCH  18  19
ENDBRANCH   4  18
TORSDOF 6
ENDMDL
MODEL 3
REMARK VINA RESULT:    -7.377      3.417      9.197
REMARK INTER + INTRA:         -11.041
REMARK INTER:                  -9.692
REMARK INTRA:                  -1.349
REMARK UNBOUND:                -1.076
REMARK  Name = 
REMARK  8 active torsions:
REMARK  status: ('A' for Active; 'I' for Inactive)
REMARK    1  A    between atoms: C_1  and  C_2
REMARK    2  A    between atoms: C_6  and  C_7
REMARK    3  A    between atoms: C_7  and  N_8
REMARK    4  A    between atoms: N_8  and  C_9
REMARK    5  A    between atoms: C_12  and  C_13
REMARK    6  A    between atoms: C_13  and  N_14
REMARK    7  A    between atoms: C_15  and  C_17
REMARK    8  A    between atoms: C_29  and  C_30
REMARK                            x       y       z     vdW  Elec       q    Type
REMARK                         _______ _______ _______ _____ _____    ______ ____
ROOT
ATOM      1  C   UNL     1      49.235   7.701  16.054  0.00  0.00    +0.000 A 
ATOM      2  C   UNL     1      48.325   8.717  15.733  0.00  0.00    +0.000 A 
ATOM      3  C   UNL     1      47.760   8.811  14.449  0.00  0.00    +0.000 A 
ATOM      4  C   UNL     1      48.116   7.901  13.448  0.00  0.00    +0.000 A 
ATOM      5  C   UNL     1      49.102   6.954  13.732  0.00  0.00    +0.000 A 
ATOM      6  C   UNL     1      49.658   6.868  15.010  0.00  0.00    +0.000 A 
ENDROOT
BRANCH   1   7
ATOM      7  N   UNL     1      49.785   7.636  17.346  0.00  0.00    +0.000 N 
ATOM      8  H   UNL     1      50.066   8.547  17.691  0.00  0.00    +0.000 HD
BRANCH   7   9
ATOM      9  C   UNL     1      49.018   6.896  18.351  0.00  0.00    +0.000 C 
BRANCH   9  15
ATOM     10  C   UNL     1      50.652   2.163  17.250  0.00  0.00    +0.000 C 
ATOM     11  C   UNL     1      49.569   3.205  17.365  0.00  0.00    +0.000 A 
ATOM     12  C   UNL     1      48.260   2.860  16.997  0.00  0.00    +0.000 A 
ATOM     13  C   UNL     1      47.228   3.787  17.095  0.00  0.00    +0.000 A 
ATOM     14  C   UNL     1      47.491   5.069  17.570  0.00  0.00    +0.000 A 
ATOM     15  C   UNL     1      48.794   5.454  17.940  0.00  0.00    +0.000 A 
ATOM     16  C   UNL     1      49.850   4.517  17.823  0.00  0.00    +0.000 A 
ATOM     17  C   UNL     1      51.277   4.883  18.157  0.00  0.00    +0.000 C 
ENDBRANCH   9  15
ENDBRANCH   7   9
ENDBRANCH   1   7
BRANCH   4  18
ATOM     18  C   UNL     1      47.485   7.928  12.084  0.00  0.00    +0.000 C 
BRANCH  18  19
ATOM     19  N   UNL     1      46.838   6.684  11.756  0.00  0.00    +0.000 N 
ATOM     20  C   UNL     1      45.531   6.473  12.115  0.00  0.00    +0.000 C 
ATOM     21  O   UNL     1      44.865   7.341  12.675  0.00  0.00    +0.000 OA
ATOM     22  H   UNL     1      47.430   5.894  11.517  0.00  0.00    +0.000 HD
BRANCH  20  23
ATOM     23  C   UNL     1      44.939   5.182  11.748  0.00  0.00    +0.000 A 
ATOM     24  C   UNL     1      44.228   4.462  12.699  0.00  0.00    +0.000 A 
ATOM     25  S   UNL     1      43.578   3.001  12.109  0.00  0.00    +0.000 S 
ATOM     26  C   UNL     1      44.266   3.255  10.573  0.00  0.00    +0.000 A 
ATOM     27  N   UNL     1      44.114   2.338   9.581  0.00  0.00    +0.000 NA
ATOM     28  C   UNL     1      44.710   2.644   8.477  0.00  0.00    +0.000 A 
ATOM     29  N   UNL     1      45.439   3.788   8.275  0.00  0.00    +0.000 N 
ATOM     30  C   UNL     1      45.596   4.756   9.239  0.00  0.00    +0.000 A 
ATOM     31  O   UNL     1      46.219   5.788   9.013  0.00  0.00    +0.000 OA
ATOM     32  C   UNL     1      44.959   4.454  10.505  0.00  0.00    +0.000 A 
ATOM     33  H   UNL     1      45.869   3.973   7.380  0.00  0.00    +0.000 HD
ENDBRANCH  20  23
ENDBRANCH  18  19
ENDBRANCH   4  18
TORSDOF 6
ENDMDL
MODEL 4
REMARK VINA RESULT:    -7.273      3.602      8.752
REMARK INTER + INTRA:         -10.901
REMARK INTER:                  -9.562
REMARK INTRA:                  -1.339
REMARK UNBOUND:                -1.076
REMARK  Name = 
REMARK  8 active torsions:
REMARK  status: ('A' for Active; 'I' for Inactive)
REMARK    1  A    between atoms: C_1  and  C_2
REMARK    2  A    between atoms: C_6  and  C_7
REMARK    3  A    between atoms: C_7  and  N_8
REMARK    4  A    between atoms: N_8  and  C_9
REMARK    5  A    between atoms: C_12  and  C_13
REMARK    6  A    between atoms: C_13  and  N_14
REMARK    7  A    between atoms: C_15  and  C_17
REMARK    8  A    between atoms: C_29  and  C_30
REMARK                            x       y       z     vdW  Elec       q    Type
REMARK                         _______ _______ _______ _____ _____    ______ ____
ROOT
ATOM      1  C   UNL     1      49.321   7.497  16.392  0.00  0.00    +0.000 A 
ATOM      2  C   UNL     1      48.320   8.450  16.161  0.00  0.00    +0.000 A 
ATOM      3  C   UNL     1      47.881   8.747  14.860  0.00  0.00    +0.000 A 
ATOM      4  C   UNL     1      48.458   8.113  13.754  0.00  0.00    +0.000 A 
ATOM      5  C   UNL     1      49.529   7.244  13.972  0.00  0.00    +0.000 A 
ATOM      6  C   UNL     1      49.957   6.954  15.269  0.00  0.00    +0.000 A 
ENDROOT
BRANCH   1   7
ATOM      7  N   UNL     1      49.740   7.225  17.706  0.00  0.00    +0.000 N 
ATOM      8  H   UNL     1      49.973   8.068  18.218  0.00  0.00    +0.000 HD
BRANCH   7   9
ATOM      9  C   UNL     1      48.886   6.336  18.497  0.00  0.00    +0.000 C 
BRANCH   9  15
ATOM     10  C   UNL     1      50.977   1.804  17.329  0.00  0.00    +0.000 C 
ATOM     11  C   UNL     1      49.837   2.789  17.309  0.00  0.00    +0.000 A 
ATOM     12  C   UNL     1      48.655   2.438  16.641  0.00  0.00    +0.000 A 
ATOM     13  C   UNL     1      47.574   3.313  16.605  0.00  0.00    +0.000 A 
ATOM     14  C   UNL     1      47.660   4.547  17.243  0.00  0.00    +0.000 A 
ATOM     15  C   UNL     1      48.833   4.937  17.915  0.00  0.00    +0.000 A 
ATOM     16  C   UNL     1      49.942   4.056  17.937  0.00  0.00    +0.000 A 
ATOM     17  C   UNL     1      51.246   4.436  18.599  0.00  0.00    +0.000 C 
ENDBRANCH   9  15
ENDBRANCH   7   9
ENDBRANCH   1   7
BRANCH   4  18
ATOM     18  C   UNL     1      47.971   8.354  12.352  0.00  0.00    +0.000 C 
BRANCH  18  19
ATOM     19  N   UNL     1      47.411   7.169  11.757  0.00  0.00    +0.000 N 
ATOM     20  C   UNL     1      46.073   7.117  11.455  0.00  0.00    +0.000 C 
ATOM     21  O   UNL     1      45.332   8.080  11.634  0.00  0.00    +0.000 OA
ATOM     22  H   UNL     1      47.947   6.309  11.824  0.00  0.00    +0.000 HD
BRANCH  20  23
ATOM     23  C   UNL     1      45.575   5.878  10.850  0.00  0.00    +0.000 A 
ATOM     24  C   UNL     1      45.837   5.618   9.511  0.00  0.00    +0.000 A 
ATOM     25  S   UNL     1      45.220   4.125   8.968  0.00  0.00    +0.000 S 
ATOM     26  C   UNL     1      44.535   3.795  10.491  0.00  0.00    +0.000 A 
ATOM     27  N   UNL     1      43.819   2.659  10.701  0.00  0.00    +0.000 NA
ATOM     28  C   UNL     1      43.334   2.548  11.893  0.00  0.00    +0.000 A 
ATOM     29  N   UNL     1      43.507   3.469  12.894  0.00  0.00    +0.000 N 
ATOM     30  C   UNL     1      44.246   4.618  12.736  0.00  0.00    +0.000 A 
ATOM     31  O   UNL     1      44.416   5.401  13.664  0.00  0.00    +0.000 OA
ATOM     32  C   UNL     1      44.800   4.799  11.409  0.00  0.00    +0.000 A 
ATOM     33  H   UNL     1      43.111   3.313  13.811  0.00  0.00    +0.000 HD
ENDBRANCH  20  23
ENDBRANCH  18  19
ENDBRANCH   4  18
TORSDOF 6
ENDMDL
MODEL 5
REMARK VINA RESULT:    -7.176      4.042     10.324
REMARK INTER + INTRA:         -10.770
REMARK INTER:                  -9.559
REMARK INTRA:                  -1.211
REMARK UNBOUND:                -1.076
REMARK  Name = 
REMARK  8 active torsions:
REMARK  status: ('A' for Active; 'I' for Inactive)
REMARK    1  A    between atoms: C_1  and  C_2
REMARK    2  A    between atoms: C_6  and  C_7
REMARK    3  A    between atoms: C_7  and  N_8
REMARK    4  A    between atoms: N_8  and  C_9
REMARK    5  A    between atoms: C_12  and  C_13
REMARK    6  A    between atoms: C_13  and  N_14
REMARK    7  A    between atoms: C_15  and  C_17
REMARK    8  A    between atoms: C_29  and  C_30
REMARK                            x       y       z     vdW  Elec       q    Type
REMARK                         _______ _______ _______ _____ _____    ______ ____
ROOT
ATOM      1  C   UNL     1      48.543   5.757  20.341  0.00  0.00    +0.000 A 
ATOM      2  C   UNL     1      47.285   5.913  19.745  0.00  0.00    +0.000 A 
ATOM      3  C   UNL     1      46.994   5.340  18.495  0.00  0.00    +0.000 A 
ATOM      4  C   UNL     1      47.970   4.619  17.800  0.00  0.00    +0.000 A 
ATOM      5  C   UNL     1      49.256   4.553  18.340  0.00  0.00    +0.000 A 
ATOM      6  C   UNL     1      49.536   5.125  19.583  0.00  0.00    +0.000 A 
ENDROOT
BRANCH   1   7
ATOM      7  N   UNL     1      48.804   6.345  21.592  0.00  0.00    +0.000 N 
ATOM      8  H   UNL     1      49.362   5.746  22.190  0.00  0.00    +0.000 HD
BRANCH   7   9
ATOM      9  C   UNL     1      49.316   7.717  21.580  0.00  0.00    +0.000 C 
BRANCH   9  15
ATOM     10  C   UNL     1      47.494  11.106  18.193  0.00  0.00    +0.000 C 
ATOM     11  C   UNL     1      47.422  10.360  19.500  0.00  0.00    +0.000 A 
ATOM     12  C   UNL     1      46.364  10.638  20.378  0.00  0.00    +0.000 A 
ATOM     13  C   UNL     1      46.254   9.968  21.591  0.00  0.00    +0.000 A 
ATOM     14  C   UNL     1      47.196   9.004  21.938  0.00  0.00    +0.000 A 
ATOM     15  C   UNL     1      48.276   8.704  21.087  0.00  0.00    +0.000 A 
ATOM     16  C   UNL     1      48.402   9.399  19.859  0.00  0.00    +0.000 A 
ATOM     17  C   UNL     1      49.564   9.159  18.924  0.00  0.00    +0.000 C 
ENDBRANCH   9  15
ENDBRANCH   7   9
ENDBRANCH   1   7
BRANCH   4  18
ATOM     18  C   UNL     1      47.679   3.936  16.493  0.00  0.00    +0.000 C 
BRANCH  18  19
ATOM     19  N   UNL     1      47.024   4.810  15.554  0.00  0.00    +0.000 N 
ATOM     20  C   UNL     1      46.825   4.404  14.259  0.00  0.00    +0.000 C 
ATOM     21  O   UNL     1      47.149   3.283  13.875  0.00  0.00    +0.000 OA
ATOM     22  H   UNL     1      46.971   5.797  15.787  0.00  0.00    +0.000 HD
BRANCH  20  23
ATOM     23  C   UNL     1      46.151   5.348  13.361  0.00  0.00    +0.000 A 
ATOM     24  C   UNL     1      46.818   6.496  12.952  0.00  0.00    +0.000 A 
ATOM     25  S   UNL     1      45.914   7.472  11.887  0.00  0.00    +0.000 S 
ATOM     26  C   UNL     1      44.579   6.421  11.974  0.00  0.00    +0.000 A 
ATOM     27  N   UNL     1      43.429   6.697  11.302  0.00  0.00    +0.000 NA
ATOM     28  C   UNL     1      42.489   5.830  11.477  0.00  0.00    +0.000 A 
ATOM     29  N   UNL     1      42.597   4.709  12.258  0.00  0.00    +0.000 N 
ATOM     30  C   UNL     1      43.748   4.374  12.933  0.00  0.00    +0.000 A 
ATOM     31  O   UNL     1      43.826   3.341  13.590  0.00  0.00    +0.000 OA
ATOM     32  C   UNL     1      44.832   5.324  12.783  0.00  0.00    +0.000 A 
ATOM     33  H   UNL     1      41.825   4.062  12.341  0.00  0.00    +0.000 HD
ENDBRANCH  20  23
ENDBRANCH  18  19
ENDBRANCH   4  18
TORSDOF 6
ENDMDL
MODEL 6
REMARK VINA RESULT:    -7.016      3.974      8.686
REMARK INTER + INTRA:         -10.554
REMARK INTER:                  -8.653
REMARK INTRA:                  -1.900
REMARK UNBOUND:                -1.076
REMARK  Name = 
REMARK  8 active torsions:
REMARK  status: ('A' for Active; 'I' for Inactive)
REMARK    1  A    between atoms: C_1  and  C_2
REMARK    2  A    between atoms: C_6  and  C_7
REMARK    3  A    between atoms: C_7  and  N_8
REMARK    4  A    between atoms: N_8  and  C_9
REMARK    5  A    between atoms: C_12  and  C_13
REMARK    6  A    between atoms: C_13  and  N_14
REMARK    7  A    between atoms: C_15  and  C_17
REMARK    8  A    between atoms: C_29  and  C_30
REMARK                            x       y       z     vdW  Elec       q    Type
REMARK                         _______ _______ _______ _____ _____    ______ ____
ROOT
ATOM      1  C   UNL     1      51.084   7.097  17.326  0.00  0.00    +0.000 A 
ATOM      2  C   UNL     1      50.251   8.099  17.842  0.00  0.00    +0.000 A 
ATOM      3  C   UNL     1      49.345   8.790  17.018  0.00  0.00    +0.000 A 
ATOM      4  C   UNL     1      49.274   8.511  15.649  0.00  0.00    +0.000 A 
ATOM      5  C   UNL     1      50.178   7.591  15.113  0.00  0.00    +0.000 A 
ATOM      6  C   UNL     1      51.073   6.908  15.938  0.00  0.00    +0.000 A 
ENDROOT
BRANCH   1   7
ATOM      7  N   UNL     1      51.981   6.426  18.176  0.00  0.00    +0.000 N 
ATOM      8  H   UNL     1      52.600   7.064  18.664  0.00  0.00    +0.000 HD
BRANCH   7   9
ATOM      9  C   UNL     1      51.405   5.435  19.088  0.00  0.00    +0.000 C 
BRANCH   9  15
ATOM     10  C   UNL     1      47.260   2.897  17.461  0.00  0.00    +0.000 C 
ATOM     11  C   UNL     1      48.751   3.061  17.600  0.00  0.00    +0.000 A 
ATOM     12  C   UNL     1      49.590   2.069  17.071  0.00  0.00    +0.000 A 
ATOM     13  C   UNL     1      50.973   2.183  17.169  0.00  0.00    +0.000 A 
ATOM     14  C   UNL     1      51.534   3.296  17.789  0.00  0.00    +0.000 A 
ATOM     15  C   UNL     1      50.723   4.307  18.339  0.00  0.00    +0.000 A 
ATOM     16  C   UNL     1      49.314   4.183  18.258  0.00  0.00    +0.000 A 
ATOM     17  C   UNL     1      48.389   5.208  18.871  0.00  0.00    +0.000 C 
ENDBRANCH   9  15
ENDBRANCH   7   9
ENDBRANCH   1   7
BRANCH   4  18
ATOM     18  C   UNL     1      48.275   9.181  14.748  0.00  0.00    +0.000 C 
BRANCH  18  19
ATOM     19  N   UNL     1      47.290   8.260  14.245  0.00  0.00    +0.000 N 
ATOM     20  C   UNL     1      47.000   8.228  12.904  0.00  0.00    +0.000 C 
ATOM     21  O   UNL     1      47.595   8.937  12.096  0.00  0.00    +0.000 OA
ATOM     22  H   UNL     1      46.641   7.853  14.911  0.00  0.00    +0.000 HD
BRANCH  20  23
ATOM     23  C   UNL     1      45.986   7.264  12.465  0.00  0.00    +0.000 A 
ATOM     24  C   UNL     1      44.868   7.715  11.774  0.00  0.00    +0.000 A 
ATOM     25  S   UNL     1      43.802   6.471  11.306  0.00  0.00    +0.000 S 
ATOM     26  C   UNL     1      44.771   5.288  12.054  0.00  0.00    +0.000 A 
ATOM     27  N   UNL     1      44.401   3.979  12.050  0.00  0.00    +0.000 NA
ATOM     28  C   UNL     1      45.214   3.195  12.676  0.00  0.00    +0.000 A 
ATOM     29  N   UNL     1      46.366   3.601  13.299  0.00  0.00    +0.000 N 
ATOM     30  C   UNL     1      46.794   4.908  13.304  0.00  0.00    +0.000 A 
ATOM     31  O   UNL     1      47.851   5.232  13.835  0.00  0.00    +0.000 OA
ATOM     32  C   UNL     1      45.909   5.834  12.628  0.00  0.00    +0.000 A 
ATOM     33  H   UNL     1      46.966   2.931  13.759  0.00  0.00    +0.000 HD
ENDBRANCH  20  23
ENDBRANCH  18  19
ENDBRANCH   4  18
TORSDOF 6
ENDMDL
MODEL 7
REMARK VINA RESULT:    -6.987      3.099      4.841
REMARK INTER + INTRA:         -10.514
REMARK INTER:                  -9.558
REMARK INTRA:                  -0.956
REMARK UNBOUND:                -1.076
REMARK  Name = 
REMARK  8 active torsions:
REMARK  status: ('A' for Active; 'I' for Inactive)
REMARK    1  A    between atoms: C_1  and  C_2
REMARK    2  A    between atoms: C_6  and  C_7
REMARK    3  A    between atoms: C_7  and  N_8
REMARK    4  A    between atoms: N_8  and  C_9
REMARK    5  A    between atoms: C_12  and  C_13
REMARK    6  A    between atoms: C_13  and  N_14
REMARK    7  A    between atoms: C_15  and  C_17
REMARK    8  A    between atoms: C_29  and  C_30
REMARK                            x       y       z     vdW  Elec       q    Type
REMARK                         _______ _______ _______ _____ _____    ______ ____
ROOT
ATOM      1  C   UNL     1      47.331   6.930  12.413  0.00  0.00    +0.000 A 
ATOM      2  C   UNL     1      47.535   5.870  13.307  0.00  0.00    +0.000 A 
ATOM      3  C   UNL     1      48.102   6.084  14.575  0.00  0.00    +0.000 A 
ATOM      4  C   UNL     1      48.503   7.366  14.967  0.00  0.00    +0.000 A 
ATOM      5  C   UNL     1      48.400   8.405  14.039  0.00  0.00    +0.000 A 
ATOM      6  C   UNL     1      47.835   8.183  12.782  0.00  0.00    +0.000 A 
ENDROOT
BRANCH   1   7
ATOM      7  N   UNL     1      46.763   6.683  11.150  0.00  0.00    +0.000 N 
ATOM      8  H   UNL     1      47.178   5.878  10.694  0.00  0.00    +0.000 HD
BRANCH   7   9
ATOM      9  C   UNL     1      45.301   6.643  11.083  0.00  0.00    +0.000 C 
BRANCH   9  15
ATOM     10  C   UNL     1      44.387   1.969   9.188  0.00  0.00    +0.000 C 
ATOM     11  C   UNL     1      44.284   3.009  10.273  0.00  0.00    +0.000 A 
ATOM     12  C   UNL     1      43.580   2.694  11.445  0.00  0.00    +0.000 A 
ATOM     13  C   UNL     1      43.467   3.620  12.475  0.00  0.00    +0.000 A 
ATOM     14  C   UNL     1      44.062   4.872  12.350  0.00  0.00    +0.000 A 
ATOM     15  C   UNL     1      44.769   5.228  11.186  0.00  0.00    +0.000 A 
ATOM     16  C   UNL     1      44.869   4.293  10.126  0.00  0.00    +0.000 A 
ATOM     17  C   UNL     1      45.571   4.630   8.832  0.00  0.00    +0.000 C 
ENDBRANCH   9  15
ENDBRANCH   7   9
ENDBRANCH   1   7
BRANCH   4  18
ATOM     18  C   UNL     1      49.052   7.647  16.338  0.00  0.00    +0.000 C 
BRANCH  18  19
ATOM     19  N   UNL     1      50.113   6.742  16.696  0.00  0.00    +0.000 N 
ATOM     20  C   UNL     1      49.915   5.805  17.679  0.00  0.00    +0.000 C 
ATOM     21  O   UNL     1      48.830   5.676  18.242  0.00  0.00    +0.000 OA
ATOM     22  H   UNL     1      51.058   6.989  16.418  0.00  0.00    +0.000 HD
BRANCH  20  23
ATOM     23  C   UNL     1      51.041   4.918  17.990  0.00  0.00    +0.000 A 
ATOM     24  C   UNL     1      52.175   5.442  18.599  0.00  0.00    +0.000 A 
ATOM     25  S   UNL     1      53.378   4.280  18.923  0.00  0.00    +0.000 S 
ATOM     26  C   UNL     1      52.448   3.043  18.215  0.00  0.00    +0.000 A 
ATOM     27  N   UNL     1      52.925   1.772  18.134  0.00  0.00    +0.000 NA
ATOM     28  C   UNL     1      52.128   0.941  17.550  0.00  0.00    +0.000 A 
ATOM     29  N   UNL     1      50.895   1.265  17.046  0.00  0.00    +0.000 N 
ATOM     30  C   UNL     1      50.360   2.530  17.130  0.00  0.00    +0.000 A 
ATOM     31  O   UNL     1      49.237   2.778  16.707  0.00  0.00    +0.000 OA
ATOM     32  C   UNL     1      51.223   3.507  17.763  0.00  0.00    +0.000 A 
ATOM     33  H   UNL     1      50.314   0.561  16.613  0.00  0.00    +0.000 HD
ENDBRANCH  20  23
ENDBRANCH  18  19
ENDBRANCH   4  18
TORSDOF 6
ENDMDL
MODEL 8
REMARK VINA RESULT:    -6.902      4.105      8.917
REMARK INTER + INTRA:         -10.399
REMARK INTER:                  -8.768
REMARK INTRA:                  -1.631
REMARK UNBOUND:                -1.076
REMARK  Name = 
REMARK  8 active torsions:
REMARK  status: ('A' for Active; 'I' for Inactive)
REMARK    1  A    between atoms: C_1  and  C_2
REMARK    2  A    between atoms: C_6  and  C_7
REMARK    3  A    between atoms: C_7  and  N_8
REMARK    4  A    between atoms: N_8  and  C_9
REMARK    5  A    between atoms: C_12  and  C_13
REMARK    6  A    between atoms: C_13  and  N_14
REMARK    7  A    between atoms: C_15  and  C_17
REMARK    8  A    between atoms: C_29  and  C_30
REMARK                            x       y       z     vdW  Elec       q    Type
REMARK                         _______ _______ _______ _____ _____    ______ ____
ROOT
ATOM      1  C   UNL     1      50.745   7.315  17.817  0.00  0.00    +0.000 A 
ATOM      2  C   UNL     1      49.678   8.209  17.972  0.00  0.00    +0.000 A 
ATOM      3  C   UNL     1      48.916   8.633  16.869  0.00  0.00    +0.000 A 
ATOM      4  C   UNL     1      49.226   8.190  15.579  0.00  0.00    +0.000 A 
ATOM      5  C   UNL     1      50.355   7.385  15.408  0.00  0.00    +0.000 A 
ATOM      6  C   UNL     1      51.105   6.968  16.509  0.00  0.00    +0.000 A 
ENDROOT
BRANCH   1   7
ATOM      7  N   UNL     1      51.489   6.912  18.940  0.00  0.00    +0.000 N 
ATOM      8  H   UNL     1      51.728   7.691  19.544  0.00  0.00    +0.000 HD
BRANCH   7   9
ATOM      9  C   UNL     1      50.961   5.782  19.708  0.00  0.00    +0.000 C 
BRANCH   9  15
ATOM     10  C   UNL     1      47.370   2.881  17.480  0.00  0.00    +0.000 C 
ATOM     11  C   UNL     1      48.806   3.226  17.779  0.00  0.00    +0.000 A 
ATOM     12  C   UNL     1      49.819   2.407  17.258  0.00  0.00    +0.000 A 
ATOM     13  C   UNL     1      51.157   2.694  17.501  0.00  0.00    +0.000 A 
ATOM     14  C   UNL     1      51.501   3.808  18.261  0.00  0.00    +0.000 A 
ATOM     15  C   UNL     1      50.512   4.648  18.807  0.00  0.00    +0.000 A 
ATOM     16  C   UNL     1      49.146   4.347  18.578  0.00  0.00    +0.000 A 
ATOM     17  C   UNL     1      48.037   5.180  19.176  0.00  0.00    +0.000 C 
ENDBRANCH   9  15
ENDBRANCH   7   9
ENDBRANCH   1   7
BRANCH   4  18
ATOM     18  C   UNL     1      48.397   8.569  14.384  0.00  0.00    +0.000 C 
BRANCH  18  19
ATOM     19  N   UNL     1      47.383   7.590  14.091  0.00  0.00    +0.000 N 
ATOM     20  C   UNL     1      47.606   6.633  13.133  0.00  0.00    +0.000 C 
ATOM     21  O   UNL     1      48.678   6.551  12.538  0.00  0.00    +0.000 OA
ATOM     22  H   UNL     1      46.434   7.788  14.394  0.00  0.00    +0.000 HD
BRANCH  20  23
ATOM     23  C   UNL     1      46.527   5.669  12.890  0.00  0.00    +0.000 A 
ATOM     24  C   UNL     1      46.724   4.331  13.204  0.00  0.00    +0.000 A 
ATOM     25  S   UNL     1      45.368   3.346  12.894  0.00  0.00    +0.000 S 
ATOM     26  C   UNL     1      44.485   4.666  12.281  0.00  0.00    +0.000 A 
ATOM     27  N   UNL     1      43.224   4.498  11.801  0.00  0.00    +0.000 NA
ATOM     28  C   UNL     1      42.681   5.576  11.343  0.00  0.00    +0.000 A 
ATOM     29  N   UNL     1      43.284   6.808  11.328  0.00  0.00    +0.000 N 
ATOM     30  C   UNL     1      44.546   7.030  11.827  0.00  0.00    +0.000 A 
ATOM     31  O   UNL     1      45.041   8.152  11.836  0.00  0.00    +0.000 OA
ATOM     32  C   UNL     1      45.208   5.848  12.340  0.00  0.00    +0.000 A 
ATOM     33  H   UNL     1      42.796   7.615  10.966  0.00  0.00    +0.000 HD
ENDBRANCH  20  23
ENDBRANCH  18  19
ENDBRANCH   4  18
TORSDOF 6
ENDMDL
MODEL 9
REMARK VINA RESULT:    -6.866      4.188      9.150
REMARK INTER + INTRA:         -10.351
REMARK INTER:                  -8.844
REMARK INTRA:                  -1.507
REMARK UNBOUND:                -1.076
REMARK  Name = 
REMARK  8 active torsions:
REMARK  status: ('A' for Active; 'I' for Inactive)
REMARK    1  A    between atoms: C_1  and  C_2
REMARK    2  A    between atoms: C_6  and  C_7
REMARK    3  A    between atoms: C_7  and  N_8
REMARK    4  A    between atoms: N_8  and  C_9
REMARK    5  A    between atoms: C_12  and  C_13
REMARK    6  A    between atoms: C_13  and  N_14
REMARK    7  A    between atoms: C_15  and  C_17
REMARK    8  A    between atoms: C_29  and  C_30
REMARK                            x       y       z     vdW  Elec       q    Type
REMARK                         _______ _______ _______ _____ _____    ______ ____
ROOT
ATOM      1  C   UNL     1      50.934   4.655  18.751  0.00  0.00    +0.000 A 
ATOM      2  C   UNL     1      49.806   5.486  18.738  0.00  0.00    +0.000 A 
ATOM      3  C   UNL     1      48.633   5.113  18.059  0.00  0.00    +0.000 A 
ATOM      4  C   UNL     1      48.574   3.907  17.353  0.00  0.00    +0.000 A 
ATOM      5  C   UNL     1      49.731   3.128  17.274  0.00  0.00    +0.000 A 
ATOM      6  C   UNL     1      50.891   3.506  17.952  0.00  0.00    +0.000 A 
ENDROOT
BRANCH   1   7
ATOM      7  N   UNL     1      52.094   5.058  19.437  0.00  0.00    +0.000 N 
ATOM      8  H   UNL     1      52.835   4.369  19.378  0.00  0.00    +0.000 HD
BRANCH   7   9
ATOM      9  C   UNL     1      52.590   6.407  19.154  0.00  0.00    +0.000 C 
BRANCH   9  15
ATOM     10  C   UNL     1      52.809   8.177  14.348  0.00  0.00    +0.000 C 
ATOM     11  C   UNL     1      53.306   7.299  15.468  0.00  0.00    +0.000 A 
ATOM     12  C   UNL     1      54.384   6.437  15.220  0.00  0.00    +0.000 A 
ATOM     13  C   UNL     1      54.881   5.616  16.226  0.00  0.00    +0.000 A 
ATOM     14  C   UNL     1      54.311   5.652  17.495  0.00  0.00    +0.000 A 
ATOM     15  C   UNL     1      53.222   6.498  17.779  0.00  0.00    +0.000 A 
ATOM     16  C   UNL     1      52.701   7.322  16.750  0.00  0.00    +0.000 A 
ATOM     17  C   UNL     1      51.504   8.215  16.976  0.00  0.00    +0.000 C 
ENDBRANCH   9  15
ENDBRANCH   7   9
ENDBRANCH   1   7
BRANCH   4  18
ATOM     18  C   UNL     1      47.319   3.442  16.669  0.00  0.00    +0.000 C 
BRANCH  18  19
ATOM     19  N   UNL     1      46.788   4.433  15.770  0.00  0.00    +0.000 N 
ATOM     20  C   UNL     1      46.832   4.226  14.414  0.00  0.00    +0.000 C 
ATOM     21  O   UNL     1      47.274   3.186  13.932  0.00  0.00    +0.000 OA
ATOM     22  H   UNL     1      46.645   5.371  16.133  0.00  0.00    +0.000 HD
BRANCH  20  23
ATOM     23  C   UNL     1      46.272   5.280  13.561  0.00  0.00    +0.000 A 
ATOM     24  C   UNL     1      46.990   6.452  13.364  0.00  0.00    +0.000 A 
ATOM     25  S   UNL     1      46.221   7.561  12.324  0.00  0.00    +0.000 S 
ATOM     26  C   UNL     1      44.876   6.535  12.139  0.00  0.00    +0.000 A 
ATOM     27  N   UNL     1      43.812   6.910  11.379  0.00  0.00    +0.000 NA
ATOM     28  C   UNL     1      42.851   6.048  11.347  0.00  0.00    +0.000 A 
ATOM     29  N   UNL     1      42.861   4.843  12.001  0.00  0.00    +0.000 N 
ATOM     30  C   UNL     1      43.925   4.410  12.757  0.00  0.00    +0.000 A 
ATOM     31  O   UNL     1      43.920   3.309  13.296  0.00  0.00    +0.000 OA
ATOM     32  C   UNL     1      45.027   5.348  12.840  0.00  0.00    +0.000 A 
ATOM     33  H   UNL     1      42.080   4.208  11.922  0.00  0.00    +0.000 HD
ENDBRANCH  20  23
ENDBRANCH  18  19
ENDBRANCH   4  18
TORSDOF 6
ENDMDL
