MODEL 1
REMARK VINA RESULT:    -6.731      0.000      0.000
REMARK INTER + INTRA:          -9.904
REMARK INTER:                  -9.092
REMARK INTRA:                  -0.812
REMARK UNBOUND:                -0.812
REMARK  Name = 
REMARK  8 active torsions:
REMARK  status: ('A' for Active; 'I' for Inactive)
REMARK    1  A    between atoms: C_1  and  N_2
REMARK    2  A    between atoms: N_2  and  C_3
REMARK    3  A    between atoms: N_2  and  C_4
REMARK    4  A    between atoms: C_6  and  C_7
REMARK    5  A    between atoms: C_12  and  O_13
REMARK    6  A    between atoms: O_13  and  C_14
REMARK    7  A    between atoms: C_14  and  C_15
REMARK    8  A    between atoms: C_19  and  N_20
REMARK                            x       y       z     vdW  Elec       q    Type
REMARK                         _______ _______ _______ _____ _____    ______ ____
ROOT
ATOM      1  O   UNL     1      47.768   4.622  16.684  0.00  0.00    +0.000 OA
ENDROOT
BRANCH   1   7
ATOM      2  C   UNL     1      50.046   4.521  17.502  0.00  0.00    +0.000 A 
ATOM      3  C   UNL     1      51.152   3.679  17.776  0.00  0.00    +0.000 A 
ATOM      4  C   UNL     1      51.159   2.295  17.496  0.00  0.00    +0.000 A 
ATOM      5  C   UNL     1      50.031   1.715  16.942  0.00  0.00    +0.000 A 
ATOM      6  C   UNL     1      48.925   2.503  16.661  0.00  0.00    +0.000 A 
ATOM      7  C   UNL     1      48.899   3.879  16.956  0.00  0.00    +0.000 A 
BRANCH   4   8
ATOM      8  C   UNL     1      52.386   1.506  17.779  0.00  0.00    +0.000 C 
ATOM      9  N   UNL     1      52.256   0.224  18.234  0.00  0.00    +0.000 N 
ATOM     10  O   UNL     1      53.503   1.978  17.601  0.00  0.00    +0.000 OA
ATOM     11  H   UNL     1      51.388  -0.262  18.394  0.00  0.00    +0.000 HD
ATOM     12  H   UNL     1      53.112  -0.296  18.379  0.00  0.00    +0.000 HD
ENDBRANCH   4   8
BRANCH   2  14
ATOM     13  C   UNL     1      50.743   6.826  16.884  0.00  0.00    +0.000 C 
ATOM     14  N   UNL     1      50.133   5.893  17.831  0.00  0.00    +0.000 N 
ATOM     15  C   UNL     1      50.394   6.218  19.239  0.00  0.00    +0.000 C 
ENDBRANCH   2  14
ENDBRANCH   1   7
BRANCH   1  16
ATOM     16  C   UNL     1      47.103   4.278  15.470  0.00  0.00    +0.000 C 
BRANCH  16  17
ATOM     17  C   UNL     1      47.187   5.342  14.408  0.00  0.00    +0.000 A 
ATOM     18  C   UNL     1      48.234   6.255  14.331  0.00  0.00    +0.000 A 
ATOM     19  C   UNL     1      48.320   7.098  13.229  0.00  0.00    +0.000 A 
ATOM     20  C   UNL     1      47.379   7.009  12.196  0.00  0.00    +0.000 A 
ATOM     21  C   UNL     1      46.315   6.096  12.231  0.00  0.00    +0.000 A 
ATOM     22  C   UNL     1      46.235   5.290  13.370  0.00  0.00    +0.000 A 
BRANCH  21  23
ATOM     23  N   UNL     1      45.422   5.965  11.189  0.00  0.00    +0.000 N 
ATOM     24  C   UNL     1      43.965   6.065  11.360  0.00  0.00    +0.000 C 
ATOM     25  C   UNL     1      43.259   4.811  10.794  0.00  0.00    +0.000 C 
ATOM     26  N   UNL     1      43.624   4.514   9.391  0.00  0.00    +0.000 NA
ATOM     27  C   UNL     1      45.095   4.385   9.306  0.00  0.00    +0.000 C 
ATOM     28  C   UNL     1      45.870   5.618   9.833  0.00  0.00    +0.000 C 
ATOM     29  H   UNL     1      43.349   5.313   8.821  0.00  0.00    +0.000 HD
ENDBRANCH  21  23
ENDBRANCH  16  17
ENDBRANCH   1  16
TORSDOF 6
ENDMDL
MODEL 2
REMARK VINA RESULT:    -6.548      2.899      3.736
REMARK INTER + INTRA:          -9.656
REMARK INTER:                  -8.898
REMARK INTRA:                  -0.758
REMARK UNBOUND:                -0.812
REMARK  Name = 
REMARK  8 active torsions:
REMARK  status: ('A' for Active; 'I' for Inactive)
REMARK    1  A    between atoms: C_1  and  N_2
REMARK    2  A    between atoms: N_2  and  C_3
REMARK    3  A    between atoms: N_2  and  C_4
REMARK    4  A    between atoms: C_6  and  C_7
REMARK    5  A    between atoms: C_12  and  O_13
REMARK    6  A    between atoms: O_13  and  C_14
REMARK    7  A    between atoms: C_14  and  C_15
REMARK    8  A    between atoms: C_19  and  N_20
REMARK                            x       y       z     vdW  Elec       q    Type
REMARK                         _______ _______ _______ _____ _____    ______ ____
ROOT
ATOM      1  O   UNL     1      47.510   5.034  14.296  0.00  0.00    +0.000 OA
ENDROOT
BRANCH   1   7
ATOM      2  C   UNL     1      48.720   6.035  16.140  0.00  0.00    +0.000 A 
ATOM      3  C   UNL     1      48.987   5.978  17.530  0.00  0.00    +0.000 A 
ATOM      4  C   UNL     1      48.461   4.978  18.379  0.00  0.00    +0.000 A 
ATOM      5  C   UNL     1      47.631   4.009  17.843  0.00  0.00    +0.000 A 
ATOM      6  C   UNL     1      47.343   4.030  16.486  0.00  0.00    +0.000 A 
ATOM      7  C   UNL     1      47.842   5.034  15.636  0.00  0.00    +0.000 A 
BRANCH   4   8
ATOM      8  C   UNL     1      48.837   4.979  19.817  0.00  0.00    +0.000 C 
ATOM      9  N   UNL     1      48.531   3.888  20.579  0.00  0.00    +0.000 N 
ATOM     10  O   UNL     1      49.423   5.930  20.322  0.00  0.00    +0.000 OA
ATOM     11  H   UNL     1      48.071   3.051  20.257  0.00  0.00    +0.000 HD
ATOM     12  H   UNL     1      48.836   3.908  21.544  0.00  0.00    +0.000 HD
ENDBRANCH   4   8
BRANCH   2  14
ATOM     13  C   UNL     1      50.731   7.298  15.403  0.00  0.00    +0.000 C 
ATOM     14  N   UNL     1      49.284   7.085  15.378  0.00  0.00    +0.000 N 
ATOM     15  C   UNL     1      48.501   8.321  15.280  0.00  0.00    +0.000 C 
ENDBRANCH   2  14
ENDBRANCH   1   7
BRANCH   1  16
ATOM     16  C   UNL     1      46.796   3.879  13.858  0.00  0.00    +0.000 C 
BRANCH  16  17
ATOM     17  C   UNL     1      45.655   4.187  12.925  0.00  0.00    +0.000 A 
ATOM     18  C   UNL     1      44.677   5.134  13.212  0.00  0.00    +0.000 A 
ATOM     19  C   UNL     1      43.752   5.474  12.231  0.00  0.00    +0.000 A 
ATOM     20  C   UNL     1      43.824   4.890  10.960  0.00  0.00    +0.000 A 
ATOM     21  C   UNL     1      44.799   3.939  10.629  0.00  0.00    +0.000 A 
ATOM     22  C   UNL     1      45.689   3.591  11.648  0.00  0.00    +0.000 A 
BRANCH  21  23
ATOM     23  N   UNL     1      44.908   3.406   9.362  0.00  0.00    +0.000 N 
ATOM     24  C   UNL     1      44.809   1.966   9.083  0.00  0.00    +0.000 C 
ATOM     25  C   UNL     1      46.050   1.472   8.304  0.00  0.00    +0.000 C 
ATOM     26  N   UNL     1      46.321   2.248   7.075  0.00  0.00    +0.000 NA
ATOM     27  C   UNL     1      46.451   3.675   7.439  0.00  0.00    +0.000 C 
ATOM     28  C   UNL     1      45.229   4.248   8.200  0.00  0.00    +0.000 C 
ATOM     29  H   UNL     1      45.510   2.156   6.463  0.00  0.00    +0.000 HD
ENDBRANCH  21  23
ENDBRANCH  16  17
ENDBRANCH   1  16
TORSDOF 6
ENDMDL
MODEL 3
REMARK VINA RESULT:    -6.545      2.297      3.965
REMARK INTER + INTRA:          -9.653
REMARK INTER:                  -8.968
REMARK INTRA:                  -0.686
REMARK UNBOUND:                -0.812
REMARK  Name = 
REMARK  8 active torsions:
REMARK  status: ('A' for Active; 'I' for Inactive)
REMARK    1  A    between atoms: C_1  and  N_2
REMARK    2  A    between atoms: N_2  and  C_3
REMARK    3  A    between atoms: N_2  and  C_4
REMARK    4  A    between atoms: C_6  and  C_7
REMARK    5  A    between atoms: C_12  and  O_13
REMARK    6  A    between atoms: O_13  and  C_14
REMARK    7  A    between atoms: C_14  and  C_15
REMARK    8  A    between atoms: C_19  and  N_20
REMARK                            x       y       z     vdW  Elec       q    Type
REMARK                         _______ _______ _______ _____ _____    ______ ____
ROOT
ATOM      1  O   UNL     1      48.849   5.366  15.905  0.00  0.00    +0.000 OA
ENDROOT
BRANCH   1   7
ATOM      2  C   UNL     1      48.867   4.294  18.077  0.00  0.00    +0.000 A 
ATOM      3  C   UNL     1      48.633   4.462  19.464  0.00  0.00    +0.000 A 
ATOM      4  C   UNL     1      48.148   5.664  20.028  0.00  0.00    +0.000 A 
ATOM      5  C   UNL     1      47.900   6.744  19.198  0.00  0.00    +0.000 A 
ATOM      6  C   UNL     1      48.118   6.621  17.833  0.00  0.00    +0.000 A 
ATOM      7  C   UNL     1      48.622   5.437  17.265  0.00  0.00    +0.000 A 
BRANCH   4   8
ATOM      8  C   UNL     1      47.893   5.726  21.490  0.00  0.00    +0.000 C 
ATOM      9  N   UNL     1      47.405   6.885  22.026  0.00  0.00    +0.000 N 
ATOM     10  O   UNL     1      48.099   4.759  22.215  0.00  0.00    +0.000 OA
ATOM     11  H   UNL     1      47.185   7.725  21.517  0.00  0.00    +0.000 HD
ATOM     12  H   UNL     1      47.207   6.877  23.019  0.00  0.00    +0.000 HD
ENDBRANCH   4   8
BRANCH   2  14
ATOM     13  C   UNL     1      50.807   2.875  17.441  0.00  0.00    +0.000 C 
ATOM     14  N   UNL     1      49.365   3.055  17.613  0.00  0.00    +0.000 N 
ATOM     15  C   UNL     1      48.553   2.350  16.615  0.00  0.00    +0.000 C 
ENDBRANCH   2  14
ENDBRANCH   1   7
BRANCH   1  16
ATOM     16  C   UNL     1      48.905   6.627  15.241  0.00  0.00    +0.000 C 
BRANCH  16  17
ATOM     17  C   UNL     1      48.084   6.688  13.981  0.00  0.00    +0.000 A 
ATOM     18  C   UNL     1      48.491   7.380  12.844  0.00  0.00    +0.000 A 
ATOM     19  C   UNL     1      47.754   7.253  11.672  0.00  0.00    +0.000 A 
ATOM     20  C   UNL     1      46.633   6.415  11.629  0.00  0.00    +0.000 A 
ATOM     21  C   UNL     1      46.196   5.694  12.749  0.00  0.00    +0.000 A 
ATOM     22  C   UNL     1      46.935   5.873  13.921  0.00  0.00    +0.000 A 
BRANCH  21  23
ATOM     23  N   UNL     1      45.128   4.824  12.694  0.00  0.00    +0.000 N 
ATOM     24  C   UNL     1      45.263   3.405  12.329  0.00  0.00    +0.000 C 
ATOM     25  C   UNL     1      44.317   3.048  11.159  0.00  0.00    +0.000 C 
ATOM     26  N   UNL     1      42.906   3.415  11.411  0.00  0.00    +0.000 NA
ATOM     27  C   UNL     1      42.845   4.858  11.727  0.00  0.00    +0.000 C 
ATOM     28  C   UNL     1      43.749   5.285  12.910  0.00  0.00    +0.000 C 
ATOM     29  H   UNL     1      42.593   2.902  12.235  0.00  0.00    +0.000 HD
ENDBRANCH  21  23
ENDBRANCH  16  17
ENDBRANCH   1  16
TORSDOF 6
ENDMDL
MODEL 4
REMARK VINA RESULT:    -6.340      2.567      3.365
REMARK INTER + INTRA:          -9.376
REMARK INTER:                  -8.996
REMARK INTRA:                  -0.380
REMARK UNBOUND:                -0.812
REMARK  Name = 
REMARK  8 active torsions:
REMARK  status: ('A' for Active; 'I' for Inactive)
REMARK    1  A    between atoms: C_1  and  N_2
REMARK    2  A    between atoms: N_2  and  C_3
REMARK    3  A    between atoms: N_2  and  C_4
REMARK    4  A    between atoms: C_6  and  C_7
REMARK    5  A    between atoms: C_12  and  O_13
REMARK    6  A    between atoms: O_13  and  C_14
REMARK    7  A    between atoms: C_14  and  C_15
REMARK    8  A    between atoms: C_19  and  N_20
REMARK                            x       y       z     vdW  Elec       q    Type
REMARK                         _______ _______ _______ _____ _____    ______ ____
ROOT
ATOM      1  O   UNL     1      48.610   7.374  14.103  0.00  0.00    +0.000 OA
ENDROOT
BRANCH   1   7
ATOM      2  C   UNL     1      48.890   6.509  16.348  0.00  0.00    +0.000 A 
ATOM      3  C   UNL     1      48.568   5.459  17.244  0.00  0.00    +0.000 A 
ATOM      4  C   UNL     1      47.809   4.327  16.870  0.00  0.00    +0.000 A 
ATOM      5  C   UNL     1      47.338   4.233  15.572  0.00  0.00    +0.000 A 
ATOM      6  C   UNL     1      47.629   5.240  14.663  0.00  0.00    +0.000 A 
ATOM      7  C   UNL     1      48.364   6.382  15.031  0.00  0.00    +0.000 A 
BRANCH   4   8
ATOM      8  C   UNL     1      47.563   3.259  17.872  0.00  0.00    +0.000 C 
ATOM      9  N   UNL     1      48.384   3.173  18.961  0.00  0.00    +0.000 N 
ATOM     10  O   UNL     1      46.635   2.467  17.745  0.00  0.00    +0.000 OA
ATOM     11  H   UNL     1      49.157   3.784  19.167  0.00  0.00    +0.000 HD
ATOM     12  H   UNL     1      48.162   2.457  19.641  0.00  0.00    +0.000 HD
ENDBRANCH   4   8
BRANCH   2  14
ATOM     13  C   UNL     1      50.858   7.364  17.603  0.00  0.00    +0.000 C 
ATOM     14  N   UNL     1      49.645   7.606  16.823  0.00  0.00    +0.000 N 
ATOM     15  C   UNL     1      48.889   8.790  17.248  0.00  0.00    +0.000 C 
ENDBRANCH   2  14
ENDBRANCH   1   7
BRANCH   1  16
ATOM     16  C   UNL     1      48.307   7.020  12.755  0.00  0.00    +0.000 C 
BRANCH  16  17
ATOM     17  C   UNL     1      46.868   7.244  12.375  0.00  0.00    +0.000 A 
ATOM     18  C   UNL     1      46.307   8.511  12.247  0.00  0.00    +0.000 A 
ATOM     19  C   UNL     1      45.020   8.636  11.736  0.00  0.00    +0.000 A 
ATOM     20  C   UNL     1      44.309   7.500  11.329  0.00  0.00    +0.000 A 
ATOM     21  C   UNL     1      44.842   6.208  11.432  0.00  0.00    +0.000 A 
ATOM     22  C   UNL     1      46.122   6.114  11.985  0.00  0.00    +0.000 A 
BRANCH  21  23
ATOM     23  N   UNL     1      44.169   5.094  10.978  0.00  0.00    +0.000 N 
ATOM     24  C   UNL     1      43.078   4.451  11.726  0.00  0.00    +0.000 C 
ATOM     25  C   UNL     1      43.369   2.947  11.934  0.00  0.00    +0.000 C 
ATOM     26  N   UNL     1      43.667   2.226  10.677  0.00  0.00    +0.000 NA
ATOM     27  C   UNL     1      44.797   2.901  10.004  0.00  0.00    +0.000 C 
ATOM     28  C   UNL     1      44.565   4.410   9.738  0.00  0.00    +0.000 C 
ATOM     29  H   UNL     1      42.851   2.307  10.071  0.00  0.00    +0.000 HD
ENDBRANCH  21  23
ENDBRANCH  16  17
ENDBRANCH   1  16
TORSDOF 6
ENDMDL
MODEL 5
REMARK VINA RESULT:    -6.338      2.059      3.306
REMARK INTER + INTRA:          -9.373
REMARK INTER:                  -8.600
REMARK INTRA:                  -0.773
REMARK UNBOUND:                -0.812
REMARK  Name = 
REMARK  8 active torsions:
REMARK  status: ('A' for Active; 'I' for Inactive)
REMARK    1  A    between atoms: C_1  and  N_2
REMARK    2  A    between atoms: N_2  and  C_3
REMARK    3  A    between atoms: N_2  and  C_4
REMARK    4  A    between atoms: C_6  and  C_7
REMARK    5  A    between atoms: C_12  and  O_13
REMARK    6  A    between atoms: O_13  and  C_14
REMARK    7  A    between atoms: C_14  and  C_15
REMARK    8  A    between atoms: C_19  and  N_20
REMARK                            x       y       z     vdW  Elec       q    Type
REMARK                         _______ _______ _______ _____ _____    ______ ____
ROOT
ATOM      1  O   UNL     1      48.483   4.678  15.887  0.00  0.00    +0.000 OA
ENDROOT
BRANCH   1   7
ATOM      2  C   UNL     1      49.558   4.147  17.991  0.00  0.00    +0.000 A 
ATOM      3  C   UNL     1      49.514   4.307  19.398  0.00  0.00    +0.000 A 
ATOM      4  C   UNL     1      48.477   4.996  20.067  0.00  0.00    +0.000 A 
ATOM      5  C   UNL     1      47.456   5.561  19.323  0.00  0.00    +0.000 A 
ATOM      6  C   UNL     1      47.462   5.429  17.942  0.00  0.00    +0.000 A 
ATOM      7  C   UNL     1      48.501   4.765  17.265  0.00  0.00    +0.000 A 
BRANCH   4   8
ATOM      8  C   UNL     1      48.498   5.071  21.551  0.00  0.00    +0.000 C 
ATOM      9  N   UNL     1      49.700   5.205  22.188  0.00  0.00    +0.000 N 
ATOM     10  O   UNL     1      47.463   5.028  22.206  0.00  0.00    +0.000 OA
ATOM     11  H   UNL     1      50.601   5.270  21.743  0.00  0.00    +0.000 HD
ATOM     12  H   UNL     1      49.672   5.292  23.196  0.00  0.00    +0.000 HD
ENDBRANCH   4   8
BRANCH   2  14
ATOM     13  C   UNL     1      50.545   2.009  17.195  0.00  0.00    +0.000 C 
ATOM     14  N   UNL     1      50.646   3.451  17.416  0.00  0.00    +0.000 N 
ATOM     15  C   UNL     1      51.990   3.904  17.793  0.00  0.00    +0.000 C 
ENDBRANCH   2  14
ENDBRANCH   1   7
BRANCH   1  16
ATOM     16  C   UNL     1      47.185   4.538  15.313  0.00  0.00    +0.000 C 
BRANCH  16  17
ATOM     17  C   UNL     1      46.978   5.357  14.067  0.00  0.00    +0.000 A 
ATOM     18  C   UNL     1      47.760   6.463  13.750  0.00  0.00    +0.000 A 
ATOM     19  C   UNL     1      47.611   7.066  12.505  0.00  0.00    +0.000 A 
ATOM     20  C   UNL     1      46.703   6.547  11.574  0.00  0.00    +0.000 A 
ATOM     21  C   UNL     1      45.904   5.430  11.852  0.00  0.00    +0.000 A 
ATOM     22  C   UNL     1      46.050   4.871  13.124  0.00  0.00    +0.000 A 
BRANCH  21  23
ATOM     23  N   UNL     1      45.052   4.881  10.916  0.00  0.00    +0.000 N 
ATOM     24  C   UNL     1      43.885   4.061  11.272  0.00  0.00    +0.000 C 
ATOM     25  C   UNL     1      43.934   2.696  10.548  0.00  0.00    +0.000 C 
ATOM     26  N   UNL     1      44.091   2.813   9.081  0.00  0.00    +0.000 NA
ATOM     27  C   UNL     1      45.304   3.611   8.801  0.00  0.00    +0.000 C 
ATOM     28  C   UNL     1      45.313   5.006   9.475  0.00  0.00    +0.000 C 
ATOM     29  H   UNL     1      43.288   3.330   8.723  0.00  0.00    +0.000 HD
ENDBRANCH  21  23
ENDBRANCH  16  17
ENDBRANCH   1  16
TORSDOF 6
ENDMDL
MODEL 6
REMARK VINA RESULT:    -6.254      4.964      7.944
REMARK INTER + INTRA:          -9.260
REMARK INTER:                  -8.504
REMARK INTRA:                  -0.755
REMARK UNBOUND:                -0.812
REMARK  Name = 
REMARK  8 active torsions:
REMARK  status: ('A' for Active; 'I' for Inactive)
REMARK    1  A    between atoms: C_1  and  N_2
REMARK    2  A    between atoms: N_2  and  C_3
REMARK    3  A    between atoms: N_2  and  C_4
REMARK    4  A    between atoms: C_6  and  C_7
REMARK    5  A    between atoms: C_12  and  O_13
REMARK    6  A    between atoms: O_13  and  C_14
REMARK    7  A    between atoms: C_14  and  C_15
REMARK    8  A    between atoms: C_19  and  N_20
REMARK                            x       y       z     vdW  Elec       q    Type
REMARK                         _______ _______ _______ _____ _____    ______ ____
ROOT
ATOM      1  O   UNL     1      44.888   8.169  11.010  0.00  0.00    +0.000 OA
ENDROOT
BRANCH   1   7
ATOM      2  C   UNL     1      44.767   5.952  11.978  0.00  0.00    +0.000 A 
ATOM      3  C   UNL     1      45.371   5.032  12.870  0.00  0.00    +0.000 A 
ATOM      4  C   UNL     1      46.505   5.345  13.654  0.00  0.00    +0.000 A 
ATOM      5  C   UNL     1      47.073   6.602  13.543  0.00  0.00    +0.000 A 
ATOM      6  C   UNL     1      46.513   7.531  12.678  0.00  0.00    +0.000 A 
ATOM      7  C   UNL     1      45.399   7.223  11.877  0.00  0.00    +0.000 A 
BRANCH   4   8
ATOM      8  C   UNL     1      47.037   4.325  14.595  0.00  0.00    +0.000 C 
ATOM      9  N   UNL     1      47.192   4.659  15.911  0.00  0.00    +0.000 N 
ATOM     10  O   UNL     1      47.326   3.196  14.215  0.00  0.00    +0.000 OA
ATOM     11  H   UNL     1      46.967   5.548  16.326  0.00  0.00    +0.000 HD
ATOM     12  H   UNL     1      47.521   3.928  16.529  0.00  0.00    +0.000 HD
ENDBRANCH   4   8
BRANCH   2  14
ATOM     13  C   UNL     1      42.325   5.500  11.863  0.00  0.00    +0.000 C 
ATOM     14  N   UNL     1      43.642   5.537  11.228  0.00  0.00    +0.000 N 
ATOM     15  C   UNL     1      43.862   4.468  10.247  0.00  0.00    +0.000 C 
ENDBRANCH   2  14
ENDBRANCH   1   7
BRANCH   1  16
ATOM     16  C   UNL     1      44.540   9.411  11.617  0.00  0.00    +0.000 C 
BRANCH  16  17
ATOM     17  C   UNL     1      43.712  10.308  10.737  0.00  0.00    +0.000 A 
ATOM     18  C   UNL     1      44.105  10.685   9.456  0.00  0.00    +0.000 A 
ATOM     19  C   UNL     1      43.212  11.380   8.649  0.00  0.00    +0.000 A 
ATOM     20  C   UNL     1      41.922  11.672   9.110  0.00  0.00    +0.000 A 
ATOM     21  C   UNL     1      41.485  11.302  10.390  0.00  0.00    +0.000 A 
ATOM     22  C   UNL     1      42.419  10.638  11.190  0.00  0.00    +0.000 A 
BRANCH  21  23
ATOM     23  N   UNL     1      40.198  11.536  10.825  0.00  0.00    +0.000 N 
ATOM     24  C   UNL     1      39.855  12.579  11.803  0.00  0.00    +0.000 C 
ATOM     25  C   UNL     1      39.073  11.978  12.993  0.00  0.00    +0.000 C 
ATOM     26  N   UNL     1      37.881  11.203  12.583  0.00  0.00    +0.000 NA
ATOM     27  C   UNL     1      38.309  10.150  11.638  0.00  0.00    +0.000 C 
ATOM     28  C   UNL     1      39.078  10.682  10.403  0.00  0.00    +0.000 C 
ATOM     29  H   UNL     1      37.256  11.835  12.083  0.00  0.00    +0.000 HD
ENDBRANCH  21  23
ENDBRANCH  16  17
ENDBRANCH   1  16
TORSDOF 6
ENDMDL
MODEL 7
REMARK VINA RESULT:    -6.140      1.964      2.919
REMARK INTER + INTRA:          -9.106
REMARK INTER:                  -8.319
REMARK INTRA:                  -0.787
REMARK UNBOUND:                -0.812
REMARK  Name = 
REMARK  8 active torsions:
REMARK  status: ('A' for Active; 'I' for Inactive)
REMARK    1  A    between atoms: C_1  and  N_2
REMARK    2  A    between atoms: N_2  and  C_3
REMARK    3  A    between atoms: N_2  and  C_4
REMARK    4  A    between atoms: C_6  and  C_7
REMARK    5  A    between atoms: C_12  and  O_13
REMARK    6  A    between atoms: O_13  and  C_14
REMARK    7  A    between atoms: C_14  and  C_15
REMARK    8  A    between atoms: C_19  and  N_20
REMARK                            x       y       z     vdW  Elec       q    Type
REMARK                         _______ _______ _______ _____ _____    ______ ____
ROOT
ATOM      1  O   UNL     1      48.504   7.165  15.269  0.00  0.00    +0.000 OA
ENDROOT
BRANCH   1   7
ATOM      2  C   UNL     1      49.061   5.453  16.889  0.00  0.00    +0.000 A 
ATOM      3  C   UNL     1      50.108   4.808  17.594  0.00  0.00    +0.000 A 
ATOM      4  C   UNL     1      51.464   5.189  17.486  0.00  0.00    +0.000 A 
ATOM      5  C   UNL     1      51.804   6.232  16.642  0.00  0.00    +0.000 A 
ATOM      6  C   UNL     1      50.810   6.888  15.931  0.00  0.00    +0.000 A 
ATOM      7  C   UNL     1      49.460   6.502  16.014  0.00  0.00    +0.000 A 
BRANCH   4   8
ATOM      8  C   UNL     1      52.482   4.479  18.302  0.00  0.00    +0.000 C 
ATOM      9  N   UNL     1      52.236   3.193  18.691  0.00  0.00    +0.000 N 
ATOM     10  O   UNL     1      53.536   5.020  18.619  0.00  0.00    +0.000 OA
ATOM     11  H   UNL     1      51.415   2.654  18.468  0.00  0.00    +0.000 HD
ATOM     12  H   UNL     1      52.969   2.728  19.213  0.00  0.00    +0.000 HD
ENDBRANCH   4   8
BRANCH   2  14
ATOM     13  C   UNL     1      47.081   5.125  18.356  0.00  0.00    +0.000 C 
ATOM     14  N   UNL     1      47.737   4.987  17.056  0.00  0.00    +0.000 N 
ATOM     15  C   UNL     1      47.373   3.764  16.332  0.00  0.00    +0.000 C 
ENDBRANCH   2  14
ENDBRANCH   1   7
BRANCH   1  16
ATOM     16  C   UNL     1      48.373   6.711  13.924  0.00  0.00    +0.000 C 
BRANCH  16  17
ATOM     17  C   UNL     1      47.086   7.128  13.264  0.00  0.00    +0.000 A 
ATOM     18  C   UNL     1      46.801   8.448  12.927  0.00  0.00    +0.000 A 
ATOM     19  C   UNL     1      45.665   8.727  12.176  0.00  0.00    +0.000 A 
ATOM     20  C   UNL     1      44.833   7.688  11.740  0.00  0.00    +0.000 A 
ATOM     21  C   UNL     1      45.091   6.345  12.050  0.00  0.00    +0.000 A 
ATOM     22  C   UNL     1      46.218   6.102  12.839  0.00  0.00    +0.000 A 
BRANCH  21  23
ATOM     23  N   UNL     1      44.307   5.315  11.574  0.00  0.00    +0.000 N 
ATOM     24  C   UNL     1      43.281   4.643  12.384  0.00  0.00    +0.000 C 
ATOM     25  C   UNL     1      43.511   3.114  12.402  0.00  0.00    +0.000 C 
ATOM     26  N   UNL     1      43.616   2.519  11.051  0.00  0.00    +0.000 NA
ATOM     27  C   UNL     1      44.693   3.215  10.314  0.00  0.00    +0.000 C 
ATOM     28  C   UNL     1      44.514   4.751  10.232  0.00  0.00    +0.000 C 
ATOM     29  H   UNL     1      42.739   2.699  10.563  0.00  0.00    +0.000 HD
ENDBRANCH  21  23
ENDBRANCH  16  17
ENDBRANCH   1  16
TORSDOF 6
ENDMDL
MODEL 8
REMARK VINA RESULT:    -6.107      2.345      3.923
REMARK INTER + INTRA:          -9.061
REMARK INTER:                  -8.193
REMARK INTRA:                  -0.869
REMARK UNBOUND:                -0.812
REMARK  Name = 
REMARK  8 active torsions:
REMARK  status: ('A' for Active; 'I' for Inactive)
REMARK    1  A    between atoms: C_1  and  N_2
REMARK    2  A    between atoms: N_2  and  C_3
REMARK    3  A    between atoms: N_2  and  C_4
REMARK    4  A    between atoms: C_6  and  C_7
REMARK    5  A    between atoms: C_12  and  O_13
REMARK    6  A    between atoms: O_13  and  C_14
REMARK    7  A    between atoms: C_14  and  C_15
REMARK    8  A    between atoms: C_19  and  N_20
REMARK                            x       y       z     vdW  Elec       q    Type
REMARK                         _______ _______ _______ _____ _____    ______ ____
ROOT
ATOM      1  O   UNL     1      48.253   5.665  14.846  0.00  0.00    +0.000 OA
ENDROOT
BRANCH   1   7
ATOM      2  C   UNL     1      48.800   5.174  17.153  0.00  0.00    +0.000 A 
ATOM      3  C   UNL     1      49.241   5.710  18.389  0.00  0.00    +0.000 A 
ATOM      4  C   UNL     1      49.488   7.086  18.592  0.00  0.00    +0.000 A 
ATOM      5  C   UNL     1      49.309   7.964  17.537  0.00  0.00    +0.000 A 
ATOM      6  C   UNL     1      48.881   7.480  16.309  0.00  0.00    +0.000 A 
ATOM      7  C   UNL     1      48.654   6.109  16.090  0.00  0.00    +0.000 A 
BRANCH   4   8
ATOM      8  C   UNL     1      49.905   7.556  19.938  0.00  0.00    +0.000 C 
ATOM      9  N   UNL     1      51.211   7.409  20.313  0.00  0.00    +0.000 N 
ATOM     10  O   UNL     1      49.106   8.079  20.707  0.00  0.00    +0.000 OA
ATOM     11  H   UNL     1      51.946   7.013  19.750  0.00  0.00    +0.000 HD
ATOM     12  H   UNL     1      51.466   7.775  21.221  0.00  0.00    +0.000 HD
ENDBRANCH   4   8
BRANCH   2  14
ATOM     13  C   UNL     1      47.287   3.215  17.387  0.00  0.00    +0.000 C 
ATOM     14  N   UNL     1      48.593   3.779  17.049  0.00  0.00    +0.000 N 
ATOM     15  C   UNL     1      49.726   2.917  17.406  0.00  0.00    +0.000 C 
ENDBRANCH   2  14
ENDBRANCH   1   7
BRANCH   1  16
ATOM     16  C   UNL     1      48.375   6.627  13.800  0.00  0.00    +0.000 C 
BRANCH  16  17
ATOM     17  C   UNL     1      47.060   7.035  13.191  0.00  0.00    +0.000 A 
ATOM     18  C   UNL     1      46.750   8.353  12.871  0.00  0.00    +0.000 A 
ATOM     19  C   UNL     1      45.583   8.624  12.165  0.00  0.00    +0.000 A 
ATOM     20  C   UNL     1      44.745   7.578  11.758  0.00  0.00    +0.000 A 
ATOM     21  C   UNL     1      45.026   6.237  12.053  0.00  0.00    +0.000 A 
ATOM     22  C   UNL     1      46.186   6.002  12.796  0.00  0.00    +0.000 A 
BRANCH  21  23
ATOM     23  N   UNL     1      44.235   5.201  11.603  0.00  0.00    +0.000 N 
ATOM     24  C   UNL     1      43.297   4.471  12.468  0.00  0.00    +0.000 C 
ATOM     25  C   UNL     1      43.569   2.950  12.410  0.00  0.00    +0.000 C 
ATOM     26  N   UNL     1      43.579   2.406  11.034  0.00  0.00    +0.000 NA
ATOM     27  C   UNL     1      44.573   3.159  10.239  0.00  0.00    +0.000 C 
ATOM     28  C   UNL     1      44.346   4.691  10.229  0.00  0.00    +0.000 C 
ATOM     29  H   UNL     1      42.660   2.576  10.626  0.00  0.00    +0.000 HD
ENDBRANCH  21  23
ENDBRANCH  16  17
ENDBRANCH   1  16
TORSDOF 6
ENDMDL
MODEL 9
REMARK VINA RESULT:    -5.829      2.513      8.435
REMARK INTER + INTRA:          -8.686
REMARK INTER:                  -7.785
REMARK INTRA:                  -0.901
REMARK UNBOUND:                -0.812
REMARK  Name = 
REMARK  8 active torsions:
REMARK  status: ('A' for Active; 'I' for Inactive)
REMARK    1  A    between atoms: C_1  and  N_2
REMARK    2  A    between atoms: N_2  and  C_3
REMARK    3  A    between atoms: N_2  and  C_4
REMARK    4  A    between atoms: C_6  and  C_7
REMARK    5  A    between atoms: C_12  and  O_13
REMARK    6  A    between atoms: O_13  and  C_14
REMARK    7  A    between atoms: C_14  and  C_15
REMARK    8  A    between atoms: C_19  and  N_20
REMARK                            x       y       z     vdW  Elec       q    Type
REMARK                         _______ _______ _______ _____ _____    ______ ____
ROOT
ATOM      1  O   UNL     1      47.396   4.110  14.296  0.00  0.00    +0.000 OA
ENDROOT
BRANCH   1   7
ATOM      2  C   UNL     1      47.170   6.263  13.210  0.00  0.00    +0.000 A 
ATOM      3  C   UNL     1      46.307   7.117  12.479  0.00  0.00    +0.000 A 
ATOM      4  C   UNL     1      44.965   6.792  12.181  0.00  0.00    +0.000 A 
ATOM      5  C   UNL     1      44.458   5.575  12.603  0.00  0.00    +0.000 A 
ATOM      6  C   UNL     1      45.270   4.708  13.320  0.00  0.00    +0.000 A 
ATOM      7  C   UNL     1      46.614   5.013  13.602  0.00  0.00    +0.000 A 
BRANCH   4   8
ATOM      8  C   UNL     1      44.128   7.776  11.447  0.00  0.00    +0.000 C 
ATOM      9  N   UNL     1      42.862   7.419  11.076  0.00  0.00    +0.000 N 
ATOM     10  O   UNL     1      44.547   8.897  11.182  0.00  0.00    +0.000 OA
ATOM     11  H   UNL     1      42.419   6.535  11.262  0.00  0.00    +0.000 HD
ATOM     12  H   UNL     1      42.308   8.128  10.612  0.00  0.00    +0.000 HD
ENDBRANCH   4   8
BRANCH   2  14
ATOM     13  C   UNL     1      48.857   7.266  14.735  0.00  0.00    +0.000 C 
ATOM     14  N   UNL     1      48.501   6.675  13.445  0.00  0.00    +0.000 N 
ATOM     15  C   UNL     1      49.223   7.253  12.306  0.00  0.00    +0.000 C 
ENDBRANCH   2  14
ENDBRANCH   1   7
BRANCH   1  16
ATOM     16  C   UNL     1      47.009   3.902  15.653  0.00  0.00    +0.000 C 
BRANCH  16  17
ATOM     17  C   UNL     1      48.165   3.641  16.582  0.00  0.00    +0.000 A 
ATOM     18  C   UNL     1      48.890   2.454  16.573  0.00  0.00    +0.000 A 
ATOM     19  C   UNL     1      50.041   2.356  17.348  0.00  0.00    +0.000 A 
ATOM     20  C   UNL     1      50.478   3.449  18.105  0.00  0.00    +0.000 A 
ATOM     21  C   UNL     1      49.780   4.665  18.134  0.00  0.00    +0.000 A 
ATOM     22  C   UNL     1      48.608   4.719  17.375  0.00  0.00    +0.000 A 
BRANCH  21  23
ATOM     23  N   UNL     1      50.240   5.762  18.832  0.00  0.00    +0.000 N 
ATOM     24  C   UNL     1      50.728   5.688  20.217  0.00  0.00    +0.000 C 
ATOM     25  C   UNL     1      49.973   6.694  21.118  0.00  0.00    +0.000 C 
ATOM     26  N   UNL     1      50.001   8.080  20.603  0.00  0.00    +0.000 NA
ATOM     27  C   UNL     1      49.457   8.081  19.228  0.00  0.00    +0.000 C 
ATOM     28  C   UNL     1      50.184   7.115  18.260  0.00  0.00    +0.000 C 
ATOM     29  H   UNL     1      50.976   8.374  20.552  0.00  0.00    +0.000 HD
ENDBRANCH  21  23
ENDBRANCH  16  17
ENDBRANCH   1  16
TORSDOF 6
ENDMDL
