MODEL 1
REMARK VINA RESULT:    -7.889      0.000      0.000
REMARK INTER + INTRA:         -12.081
REMARK INTER:                 -11.117
REMARK INTRA:                  -0.964
REMARK UNBOUND:                -0.964
REMARK  Name = 
REMARK  9 active torsions:
REMARK  status: ('A' for Active; 'I' for Inactive)
REMARK    1  A    between atoms: C_1  and  C_2
REMARK    2  A    between atoms: C_6  and  C_7
REMARK    3  A    between atoms: C_7  and  N_8
REMARK    4  A    between atoms: N_8  and  C_9
REMARK    5  A    between atoms: N_8  and  C_10
REMARK    6  A    between atoms: C_10  and  C_11
REMARK    7  A    between atoms: C_14  and  C_15
REMARK    8  A    between atoms: C_15  and  N_16
REMARK    9  A    between atoms: C_17  and  C_19
REMARK                            x       y       z     vdW  Elec       q    Type
REMARK                         _______ _______ _______ _____ _____    ______ ____
ROOT
ATOM      1  C   UNL     1      45.913   4.583  12.714  0.00  0.00    +0.000 A 
ATOM      2  C   UNL     1      46.267   5.716  11.969  0.00  0.00    +0.000 A 
ATOM      3  C   UNL     1      47.192   6.638  12.471  0.00  0.00    +0.000 A 
ATOM      4  C   UNL     1      47.785   6.439  13.722  0.00  0.00    +0.000 A 
ATOM      5  C   UNL     1      47.433   5.304  14.466  0.00  0.00    +0.000 A 
ATOM      6  C   UNL     1      46.510   4.385  13.966  0.00  0.00    +0.000 A 
ENDROOT
BRANCH   1   7
ATOM      7  C   UNL     1      44.878   3.606  12.197  0.00  0.00    +0.000 C 
BRANCH   7   8
ATOM      8  N   UNL     1      44.151   4.078  11.006  0.00  0.00    +0.000 NA
ATOM      9  C   UNL     1      42.834   4.581  11.416  0.00  0.00    +0.000 C 
BRANCH   8  10
ATOM     10  C   UNL     1      43.998   2.980  10.017  0.00  0.00    +0.000 C 
BRANCH  10  16
ATOM     11  C   UNL     1      47.080   0.260   7.388  0.00  0.00    +0.000 C 
ATOM     12  C   UNL     1      46.549   1.625   7.699  0.00  0.00    +0.000 A 
ATOM     13  C   UNL     1      47.039   2.750   7.045  0.00  0.00    +0.000 A 
ATOM     14  C   UNL     1      46.547   4.001   7.401  0.00  0.00    +0.000 A 
ATOM     15  C   UNL     1      45.579   4.094   8.394  0.00  0.00    +0.000 A 
ATOM     16  C   UNL     1      45.113   2.923   8.987  0.00  0.00    +0.000 A 
ATOM     17  N   UNL     1      45.593   1.696   8.656  0.00  0.00    +0.000 NA
ENDBRANCH  10  16
ENDBRANCH   8  10
ENDBRANCH   7   8
ENDBRANCH   1   7
BRANCH   4  18
ATOM     18  C   UNL     1      48.723   7.464  14.301  0.00  0.00    +0.000 C 
BRANCH  18  19
ATOM     19  N   UNL     1      48.584   7.525  15.735  0.00  0.00    +0.000 N 
ATOM     20  C   UNL     1      49.446   6.858  16.565  0.00  0.00    +0.000 C 
ATOM     21  O   UNL     1      50.402   6.222  16.132  0.00  0.00    +0.000 OA
ATOM     22  H   UNL     1      47.699   7.865  16.098  0.00  0.00    +0.000 HD
BRANCH  20  23
ATOM     23  C   UNL     1      49.207   6.990  18.009  0.00  0.00    +0.000 A 
ATOM     24  C   UNL     1      49.239   8.250  18.594  0.00  0.00    +0.000 A 
ATOM     25  S   UNL     1      48.896   8.240  20.264  0.00  0.00    +0.000 S 
ATOM     26  C   UNL     1      48.743   6.545  20.278  0.00  0.00    +0.000 A 
ATOM     27  N   UNL     1      48.473   5.878  21.432  0.00  0.00    +0.000 NA
ATOM     28  C   UNL     1      48.420   4.595  21.307  0.00  0.00    +0.000 A 
ATOM     29  N   UNL     1      48.603   3.918  20.129  0.00  0.00    +0.000 N 
ATOM     30  C   UNL     1      48.844   4.552  18.932  0.00  0.00    +0.000 A 
ATOM     31  O   UNL     1      48.959   3.918  17.888  0.00  0.00    +0.000 OA
ATOM     32  C   UNL     1      48.931   5.996  19.020  0.00  0.00    +0.000 A 
ATOM     33  H   UNL     1      48.539   2.911  20.097  0.00  0.00    +0.000 HD
ENDBRANCH  20  23
ENDBRANCH  18  19
ENDBRANCH   4  18
TORSDOF 7
ENDMDL
MODEL 2
REMARK VINA RESULT:    -7.886      2.382      2.888
REMARK INTER + INTRA:         -12.077
REMARK INTER:                 -11.234
REMARK INTRA:                  -0.844
REMARK UNBOUND:                -0.964
REMARK  Name = 
REMARK  9 active torsions:
REMARK  status: ('A' for Active; 'I' for Inactive)
REMARK    1  A    between atoms: C_1  and  C_2
REMARK    2  A    between atoms: C_6  and  C_7
REMARK    3  A    between atoms: C_7  and  N_8
REMARK    4  A    between atoms: N_8  and  C_9
REMARK    5  A    between atoms: N_8  and  C_10
REMARK    6  A    between atoms: C_10  and  C_11
REMARK    7  A    between atoms: C_14  and  C_15
REMARK    8  A    between atoms: C_15  and  N_16
REMARK    9  A    between atoms: C_17  and  C_19
REMARK                            x       y       z     vdW  Elec       q    Type
REMARK                         _______ _______ _______ _____ _____    ______ ____
ROOT
ATOM      1  C   UNL     1      46.031   4.492  12.974  0.00  0.00    +0.000 A 
ATOM      2  C   UNL     1      46.497   4.087  14.233  0.00  0.00    +0.000 A 
ATOM      3  C   UNL     1      47.350   4.911  14.975  0.00  0.00    +0.000 A 
ATOM      4  C   UNL     1      47.745   6.157  14.476  0.00  0.00    +0.000 A 
ATOM      5  C   UNL     1      47.276   6.562  13.219  0.00  0.00    +0.000 A 
ATOM      6  C   UNL     1      46.427   5.740  12.477  0.00  0.00    +0.000 A 
ENDROOT
BRANCH   1   7
ATOM      7  C   UNL     1      45.146   3.584  12.146  0.00  0.00    +0.000 C 
BRANCH   7   8
ATOM      8  N   UNL     1      44.379   4.284  11.102  0.00  0.00    +0.000 NA
ATOM      9  C   UNL     1      43.174   4.870  11.703  0.00  0.00    +0.000 C 
BRANCH   8  10
ATOM     10  C   UNL     1      44.007   3.349  10.010  0.00  0.00    +0.000 C 
BRANCH  10  16
ATOM     11  C   UNL     1      46.834   0.169   7.621  0.00  0.00    +0.000 C 
ATOM     12  C   UNL     1      46.431   1.597   7.826  0.00  0.00    +0.000 A 
ATOM     13  C   UNL     1      47.027   2.621   7.097  0.00  0.00    +0.000 A 
ATOM     14  C   UNL     1      46.652   3.935   7.356  0.00  0.00    +0.000 A 
ATOM     15  C   UNL     1      45.692   4.190   8.328  0.00  0.00    +0.000 A 
ATOM     16  C   UNL     1      45.117   3.113   8.999  0.00  0.00    +0.000 A 
ATOM     17  N   UNL     1      45.481   1.826   8.763  0.00  0.00    +0.000 NA
ENDBRANCH  10  16
ENDBRANCH   8  10
ENDBRANCH   7   8
ENDBRANCH   1   7
BRANCH   4  18
ATOM     18  C   UNL     1      48.722   7.016  15.234  0.00  0.00    +0.000 C 
BRANCH  18  19
ATOM     19  N   UNL     1      49.802   6.214  15.755  0.00  0.00    +0.000 N 
ATOM     20  C   UNL     1      49.832   5.822  17.067  0.00  0.00    +0.000 C 
ATOM     21  O   UNL     1      48.920   6.090  17.846  0.00  0.00    +0.000 OA
ATOM     22  H   UNL     1      50.647   6.161  15.195  0.00  0.00    +0.000 HD
BRANCH  20  23
ATOM     23  C   UNL     1      50.982   5.010  17.487  0.00  0.00    +0.000 A 
ATOM     24  C   UNL     1      52.127   5.639  17.960  0.00  0.00    +0.000 A 
ATOM     25  S   UNL     1      53.351   4.559  18.450  0.00  0.00    +0.000 S 
ATOM     26  C   UNL     1      52.417   3.210  17.998  0.00  0.00    +0.000 A 
ATOM     27  N   UNL     1      52.904   1.947  18.136  0.00  0.00    +0.000 NA
ATOM     28  C   UNL     1      52.106   1.021  17.722  0.00  0.00    +0.000 A 
ATOM     29  N   UNL     1      50.862   1.242  17.191  0.00  0.00    +0.000 N 
ATOM     30  C   UNL     1      50.316   2.499  17.064  0.00  0.00    +0.000 A 
ATOM     31  O   UNL     1      49.182   2.658  16.625  0.00  0.00    +0.000 OA
ATOM     32  C   UNL     1      51.179   3.579  17.500  0.00  0.00    +0.000 A 
ATOM     33  H   UNL     1      50.283   0.471  16.893  0.00  0.00    +0.000 HD
ENDBRANCH  20  23
ENDBRANCH  18  19
ENDBRANCH   4  18
TORSDOF 7
ENDMDL
MODEL 3
REMARK VINA RESULT:    -7.685      3.302      8.995
REMARK INTER + INTRA:         -11.794
REMARK INTER:                 -10.139
REMARK INTRA:                  -1.655
REMARK UNBOUND:                -0.964
REMARK  Name = 
REMARK  9 active torsions:
REMARK  status: ('A' for Active; 'I' for Inactive)
REMARK    1  A    between atoms: C_1  and  C_2
REMARK    2  A    between atoms: C_6  and  C_7
REMARK    3  A    between atoms: C_7  and  N_8
REMARK    4  A    between atoms: N_8  and  C_9
REMARK    5  A    between atoms: N_8  and  C_10
REMARK    6  A    between atoms: C_10  and  C_11
REMARK    7  A    between atoms: C_14  and  C_15
REMARK    8  A    between atoms: C_15  and  N_16
REMARK    9  A    between atoms: C_17  and  C_19
REMARK                            x       y       z     vdW  Elec       q    Type
REMARK                         _______ _______ _______ _____ _____    ______ ____
ROOT
ATOM      1  C   UNL     1      48.846   8.026  16.199  0.00  0.00    +0.000 A 
ATOM      2  C   UNL     1      49.123   6.879  15.443  0.00  0.00    +0.000 A 
ATOM      3  C   UNL     1      48.766   6.814  14.092  0.00  0.00    +0.000 A 
ATOM      4  C   UNL     1      48.135   7.898  13.471  0.00  0.00    +0.000 A 
ATOM      5  C   UNL     1      47.862   9.046  14.227  0.00  0.00    +0.000 A 
ATOM      6  C   UNL     1      48.216   9.110  15.576  0.00  0.00    +0.000 A 
ENDROOT
BRANCH   1   7
ATOM      7  C   UNL     1      49.188   8.084  17.674  0.00  0.00    +0.000 C 
BRANCH   7   8
ATOM      8  N   UNL     1      48.128   7.564  18.555  0.00  0.00    +0.000 NA
ATOM      9  C   UNL     1      47.765   8.601  19.530  0.00  0.00    +0.000 C 
BRANCH   8  10
ATOM     10  C   UNL     1      48.585   6.337  19.255  0.00  0.00    +0.000 C 
BRANCH  10  16
ATOM     11  C   UNL     1      50.810   2.433  17.351  0.00  0.00    +0.000 C 
ATOM     12  C   UNL     1      49.534   3.192  17.543  0.00  0.00    +0.000 A 
ATOM     13  C   UNL     1      48.338   2.732  17.002  0.00  0.00    +0.000 A 
ATOM     14  C   UNL     1      47.187   3.496  17.167  0.00  0.00    +0.000 A 
ATOM     15  C   UNL     1      47.261   4.691  17.871  0.00  0.00    +0.000 A 
ATOM     16  C   UNL     1      48.485   5.077  18.411  0.00  0.00    +0.000 A 
ATOM     17  N   UNL     1      49.618   4.346  18.247  0.00  0.00    +0.000 NA
ENDBRANCH  10  16
ENDBRANCH   8  10
ENDBRANCH   7   8
ENDBRANCH   1   7
BRANCH   4  18
ATOM     18  C   UNL     1      47.681   7.807  12.039  0.00  0.00    +0.000 C 
BRANCH  18  19
ATOM     19  N   UNL     1      46.972   6.572  11.810  0.00  0.00    +0.000 N 
ATOM     20  C   UNL     1      45.603   6.517  11.847  0.00  0.00    +0.000 C 
ATOM     21  O   UNL     1      44.918   7.521  12.024  0.00  0.00    +0.000 OA
ATOM     22  H   UNL     1      47.510   5.714  11.868  0.00  0.00    +0.000 HD
BRANCH  20  23
ATOM     23  C   UNL     1      44.988   5.205  11.601  0.00  0.00    +0.000 A 
ATOM     24  C   UNL     1      44.306   4.567  12.629  0.00  0.00    +0.000 A 
ATOM     25  S   UNL     1      43.612   3.079  12.172  0.00  0.00    +0.000 S 
ATOM     26  C   UNL     1      44.242   3.207  10.597  0.00  0.00    +0.000 A 
ATOM     27  N   UNL     1      44.032   2.224   9.679  0.00  0.00    +0.000 NA
ATOM     28  C   UNL     1      44.596   2.432   8.537  0.00  0.00    +0.000 A 
ATOM     29  N   UNL     1      45.344   3.538   8.226  0.00  0.00    +0.000 N 
ATOM     30  C   UNL     1      45.555   4.571   9.110  0.00  0.00    +0.000 A 
ATOM     31  O   UNL     1      46.193   5.567   8.784  0.00  0.00    +0.000 OA
ATOM     32  C   UNL     1      44.956   4.380  10.416  0.00  0.00    +0.000 A 
ATOM     33  H   UNL     1      45.752   3.644   7.308  0.00  0.00    +0.000 HD
ENDBRANCH  20  23
ENDBRANCH  18  19
ENDBRANCH   4  18
TORSDOF 7
ENDMDL
MODEL 4
REMARK VINA RESULT:    -7.426      3.518      8.519
REMARK INTER + INTRA:         -11.429
REMARK INTER:                  -9.900
REMARK INTRA:                  -1.529
REMARK UNBOUND:                -0.964
REMARK  Name = 
REMARK  9 active torsions:
REMARK  status: ('A' for Active; 'I' for Inactive)
REMARK    1  A    between atoms: C_1  and  C_2
REMARK    2  A    between atoms: C_6  and  C_7
REMARK    3  A    between atoms: C_7  and  N_8
REMARK    4  A    between atoms: N_8  and  C_9
REMARK    5  A    between atoms: N_8  and  C_10
REMARK    6  A    between atoms: C_10  and  C_11
REMARK    7  A    between atoms: C_14  and  C_15
REMARK    8  A    between atoms: C_15  and  N_16
REMARK    9  A    between atoms: C_17  and  C_19
REMARK                            x       y       z     vdW  Elec       q    Type
REMARK                         _______ _______ _______ _____ _____    ______ ____
ROOT
ATOM      1  C   UNL     1      48.846   7.616  16.386  0.00  0.00    +0.000 A 
ATOM      2  C   UNL     1      48.408   8.863  15.918  0.00  0.00    +0.000 A 
ATOM      3  C   UNL     1      48.163   9.066  14.557  0.00  0.00    +0.000 A 
ATOM      4  C   UNL     1      48.342   8.025  13.639  0.00  0.00    +0.000 A 
ATOM      5  C   UNL     1      48.777   6.777  14.108  0.00  0.00    +0.000 A 
ATOM      6  C   UNL     1      49.024   6.574  15.466  0.00  0.00    +0.000 A 
ENDROOT
BRANCH   1   7
ATOM      7  C   UNL     1      49.158   7.403  17.853  0.00  0.00    +0.000 C 
BRANCH   7   8
ATOM      8  N   UNL     1      47.991   7.019  18.665  0.00  0.00    +0.000 NA
ATOM      9  C   UNL     1      47.745   8.059  19.672  0.00  0.00    +0.000 C 
BRANCH   8  10
ATOM     10  C   UNL     1      48.220   5.708  19.324  0.00  0.00    +0.000 C 
BRANCH  10  16
ATOM     11  C   UNL     1      51.175   2.311  17.441  0.00  0.00    +0.000 C 
ATOM     12  C   UNL     1      49.802   2.908  17.487  0.00  0.00    +0.000 A 
ATOM     13  C   UNL     1      48.773   2.398  16.702  0.00  0.00    +0.000 A 
ATOM     14  C   UNL     1      47.527   3.016  16.744  0.00  0.00    +0.000 A 
ATOM     15  C   UNL     1      47.342   4.118  17.570  0.00  0.00    +0.000 A 
ATOM     16  C   UNL     1      48.409   4.557  18.350  0.00  0.00    +0.000 A 
ATOM     17  N   UNL     1      49.633   3.970  18.310  0.00  0.00    +0.000 NA
ENDBRANCH  10  16
ENDBRANCH   8  10
ENDBRANCH   7   8
ENDBRANCH   1   7
BRANCH   4  18
ATOM     18  C   UNL     1      48.153   8.257  12.164  0.00  0.00    +0.000 C 
BRANCH  18  19
ATOM     19  N   UNL     1      47.507   7.122  11.552  0.00  0.00    +0.000 N 
ATOM     20  C   UNL     1      46.142   7.002  11.532  0.00  0.00    +0.000 C 
ATOM     21  O   UNL     1      45.407   7.875  11.986  0.00  0.00    +0.000 OA
ATOM     22  H   UNL     1      48.086   6.310  11.362  0.00  0.00    +0.000 HD
BRANCH  20  23
ATOM     23  C   UNL     1      45.595   5.803  10.882  0.00  0.00    +0.000 A 
ATOM     24  C   UNL     1      45.806   5.605   9.524  0.00  0.00    +0.000 A 
ATOM     25  S   UNL     1      45.149   4.148   8.932  0.00  0.00    +0.000 S 
ATOM     26  C   UNL     1      44.513   3.751  10.460  0.00  0.00    +0.000 A 
ATOM     27  N   UNL     1      43.795   2.610  10.641  0.00  0.00    +0.000 NA
ATOM     28  C   UNL     1      43.342   2.451  11.839  0.00  0.00    +0.000 A 
ATOM     29  N   UNL     1      43.548   3.325  12.875  0.00  0.00    +0.000 N 
ATOM     30  C   UNL     1      44.295   4.473  12.746  0.00  0.00    +0.000 A 
ATOM     31  O   UNL     1      44.498   5.211  13.704  0.00  0.00    +0.000 OA
ATOM     32  C   UNL     1      44.815   4.709  11.413  0.00  0.00    +0.000 A 
ATOM     33  H   UNL     1      43.172   3.137  13.793  0.00  0.00    +0.000 HD
ENDBRANCH  20  23
ENDBRANCH  18  19
ENDBRANCH   4  18
TORSDOF 7
ENDMDL
MODEL 5
REMARK VINA RESULT:    -7.176      4.827      9.717
REMARK INTER + INTRA:         -11.077
REMARK INTER:                  -9.985
REMARK INTRA:                  -1.092
REMARK UNBOUND:                -0.964
REMARK  Name = 
REMARK  9 active torsions:
REMARK  status: ('A' for Active; 'I' for Inactive)
REMARK    1  A    between atoms: C_1  and  C_2
REMARK    2  A    between atoms: C_6  and  C_7
REMARK    3  A    between atoms: C_7  and  N_8
REMARK    4  A    between atoms: N_8  and  C_9
REMARK    5  A    between atoms: N_8  and  C_10
REMARK    6  A    between atoms: C_10  and  C_11
REMARK    7  A    between atoms: C_14  and  C_15
REMARK    8  A    between atoms: C_15  and  N_16
REMARK    9  A    between atoms: C_17  and  C_19
REMARK                            x       y       z     vdW  Elec       q    Type
REMARK                         _______ _______ _______ _____ _____    ______ ____
ROOT
ATOM      1  C   UNL     1      51.402   3.825  18.025  0.00  0.00    +0.000 A 
ATOM      2  C   UNL     1      50.470   4.847  18.253  0.00  0.00    +0.000 A 
ATOM      3  C   UNL     1      49.126   4.675  17.906  0.00  0.00    +0.000 A 
ATOM      4  C   UNL     1      48.688   3.476  17.333  0.00  0.00    +0.000 A 
ATOM      5  C   UNL     1      49.620   2.454  17.108  0.00  0.00    +0.000 A 
ATOM      6  C   UNL     1      50.961   2.625  17.453  0.00  0.00    +0.000 A 
ENDROOT
BRANCH   1   7
ATOM      7  C   UNL     1      52.867   4.022  18.356  0.00  0.00    +0.000 C 
BRANCH   7   8
ATOM      8  N   UNL     1      53.361   3.150  19.435  0.00  0.00    +0.000 NA
ATOM      9  C   UNL     1      53.391   3.913  20.690  0.00  0.00    +0.000 C 
BRANCH   8  10
ATOM     10  C   UNL     1      54.716   2.635  19.113  0.00  0.00    +0.000 C 
BRANCH  10  16
ATOM     11  C   UNL     1      54.083  -2.197  19.364  0.00  0.00    +0.000 C 
ATOM     12  C   UNL     1      54.359  -1.001  18.506  0.00  0.00    +0.000 A 
ATOM     13  C   UNL     1      54.557  -1.133  17.136  0.00  0.00    +0.000 A 
ATOM     14  C   UNL     1      54.857   0.001  16.388  0.00  0.00    +0.000 A 
ATOM     15  C   UNL     1      54.945   1.232  17.026  0.00  0.00    +0.000 A 
ATOM     16  C   UNL     1      54.707   1.295  18.397  0.00  0.00    +0.000 A 
ATOM     17  N   UNL     1      54.424   0.193  19.140  0.00  0.00    +0.000 NA
ENDBRANCH  10  16
ENDBRANCH   8  10
ENDBRANCH   7   8
ENDBRANCH   1   7
BRANCH   4  18
ATOM     18  C   UNL     1      47.260   3.313  16.888  0.00  0.00    +0.000 C 
BRANCH  18  19
ATOM     19  N   UNL     1      46.901   4.346  15.949  0.00  0.00    +0.000 N 
ATOM     20  C   UNL     1      46.973   4.139  14.596  0.00  0.00    +0.000 C 
ATOM     21  O   UNL     1      47.296   3.052  14.123  0.00  0.00    +0.000 OA
ATOM     22  H   UNL     1      46.834   5.293  16.309  0.00  0.00    +0.000 HD
BRANCH  20  23
ATOM     23  C   UNL     1      46.584   5.263  13.734  0.00  0.00    +0.000 A 
ATOM     24  C   UNL     1      47.455   6.333  13.572  0.00  0.00    +0.000 A 
ATOM     25  S   UNL     1      46.879   7.532  12.507  0.00  0.00    +0.000 S 
ATOM     26  C   UNL     1      45.420   6.692  12.263  0.00  0.00    +0.000 A 
ATOM     27  N   UNL     1      44.449   7.200  11.457  0.00  0.00    +0.000 NA
ATOM     28  C   UNL     1      43.381   6.478  11.390  0.00  0.00    +0.000 A 
ATOM     29  N   UNL     1      43.199   5.290  12.048  0.00  0.00    +0.000 N 
ATOM     30  C   UNL     1      44.166   4.722  12.846  0.00  0.00    +0.000 A 
ATOM     31  O   UNL     1      43.987   3.635  13.385  0.00  0.00    +0.000 OA
ATOM     32  C   UNL     1      45.381   5.501  12.969  0.00  0.00    +0.000 A 
ATOM     33  H   UNL     1      42.341   4.768  11.946  0.00  0.00    +0.000 HD
ENDBRANCH  20  23
ENDBRANCH  18  19
ENDBRANCH   4  18
TORSDOF 7
ENDMDL
MODEL 6
REMARK VINA RESULT:    -6.881      3.746      9.247
REMARK INTER + INTRA:         -10.662
REMARK INTER:                  -9.177
REMARK INTRA:                  -1.485
REMARK UNBOUND:                -0.964
REMARK  Name = 
REMARK  9 active torsions:
REMARK  status: ('A' for Active; 'I' for Inactive)
REMARK    1  A    between atoms: C_1  and  C_2
REMARK    2  A    between atoms: C_6  and  C_7
REMARK    3  A    between atoms: C_7  and  N_8
REMARK    4  A    between atoms: N_8  and  C_9
REMARK    5  A    between atoms: N_8  and  C_10
REMARK    6  A    between atoms: C_10  and  C_11
REMARK    7  A    between atoms: C_14  and  C_15
REMARK    8  A    between atoms: C_15  and  N_16
REMARK    9  A    between atoms: C_17  and  C_19
REMARK                            x       y       z     vdW  Elec       q    Type
REMARK                         _______ _______ _______ _____ _____    ______ ____
ROOT
ATOM      1  C   UNL     1      49.294   5.701  19.857  0.00  0.00    +0.000 A 
ATOM      2  C   UNL     1      47.939   5.957  19.607  0.00  0.00    +0.000 A 
ATOM      3  C   UNL     1      47.250   5.244  18.621  0.00  0.00    +0.000 A 
ATOM      4  C   UNL     1      47.900   4.257  17.873  0.00  0.00    +0.000 A 
ATOM      5  C   UNL     1      49.254   3.998  18.125  0.00  0.00    +0.000 A 
ATOM      6  C   UNL     1      49.943   4.711  19.108  0.00  0.00    +0.000 A 
ENDROOT
BRANCH   1   7
ATOM      7  C   UNL     1      50.058   6.501  20.891  0.00  0.00    +0.000 C 
BRANCH   7   8
ATOM      8  N   UNL     1      50.994   7.484  20.317  0.00  0.00    +0.000 NA
ATOM      9  C   UNL     1      52.146   7.629  21.215  0.00  0.00    +0.000 C 
BRANCH   8  10
ATOM     10  C   UNL     1      50.323   8.794  20.124  0.00  0.00    +0.000 C 
BRANCH  10  16
ATOM     11  C   UNL     1      49.883   7.252  15.515  0.00  0.00    +0.000 C 
ATOM     12  C   UNL     1      49.403   8.179  16.589  0.00  0.00    +0.000 A 
ATOM     13  C   UNL     1      48.376   9.085  16.347  0.00  0.00    +0.000 A 
ATOM     14  C   UNL     1      47.997   9.957  17.363  0.00  0.00    +0.000 A 
ATOM     15  C   UNL     1      48.647   9.896  18.589  0.00  0.00    +0.000 A 
ATOM     16  C   UNL     1      49.647   8.944  18.771  0.00  0.00    +0.000 A 
ATOM     17  N   UNL     1      50.034   8.094  17.785  0.00  0.00    +0.000 NA
ENDBRANCH  10  16
ENDBRANCH   8  10
ENDBRANCH   7   8
ENDBRANCH   1   7
BRANCH   4  18
ATOM     18  C   UNL     1      47.185   3.539  16.759  0.00  0.00    +0.000 C 
BRANCH  18  19
ATOM     19  N   UNL     1      46.704   4.479  15.777  0.00  0.00    +0.000 N 
ATOM     20  C   UNL     1      46.813   4.228  14.434  0.00  0.00    +0.000 C 
ATOM     21  O   UNL     1      47.275   3.174  14.007  0.00  0.00    +0.000 OA
ATOM     22  H   UNL     1      46.515   5.424  16.098  0.00  0.00    +0.000 HD
BRANCH  20  23
ATOM     23  C   UNL     1      46.290   5.258  13.526  0.00  0.00    +0.000 A 
ATOM     24  C   UNL     1      47.074   6.365  13.226  0.00  0.00    +0.000 A 
ATOM     25  S   UNL     1      46.346   7.442  12.124  0.00  0.00    +0.000 S 
ATOM     26  C   UNL     1      44.934   6.495  12.047  0.00  0.00    +0.000 A 
ATOM     27  N   UNL     1      43.878   6.879  11.281  0.00  0.00    +0.000 NA
ATOM     28  C   UNL     1      42.859   6.089  11.342  0.00  0.00    +0.000 A 
ATOM     29  N   UNL     1      42.805   4.944  12.094  0.00  0.00    +0.000 N 
ATOM     30  C   UNL     1      43.860   4.499  12.857  0.00  0.00    +0.000 A 
ATOM     31  O   UNL     1      43.793   3.447  13.483  0.00  0.00    +0.000 OA
ATOM     32  C   UNL     1      45.025   5.361  12.836  0.00  0.00    +0.000 A 
ATOM     33  H   UNL     1      41.979   4.363  12.091  0.00  0.00    +0.000 HD
ENDBRANCH  20  23
ENDBRANCH  18  19
ENDBRANCH   4  18
TORSDOF 7
ENDMDL
MODEL 7
REMARK VINA RESULT:    -6.837      4.751      7.103
REMARK INTER + INTRA:         -10.599
REMARK INTER:                  -9.510
REMARK INTRA:                  -1.088
REMARK UNBOUND:                -0.964
REMARK  Name = 
REMARK  9 active torsions:
REMARK  status: ('A' for Active; 'I' for Inactive)
REMARK    1  A    between atoms: C_1  and  C_2
REMARK    2  A    between atoms: C_6  and  C_7
REMARK    3  A    between atoms: C_7  and  N_8
REMARK    4  A    between atoms: N_8  and  C_9
REMARK    5  A    between atoms: N_8  and  C_10
REMARK    6  A    between atoms: C_10  and  C_11
REMARK    7  A    between atoms: C_14  and  C_15
REMARK    8  A    between atoms: C_15  and  N_16
REMARK    9  A    between atoms: C_17  and  C_19
REMARK                            x       y       z     vdW  Elec       q    Type
REMARK                         _______ _______ _______ _____ _____    ______ ____
ROOT
ATOM      1  C   UNL     1      45.071   9.072  11.719  0.00  0.00    +0.000 A 
ATOM      2  C   UNL     1      46.051   8.807  12.685  0.00  0.00    +0.000 A 
ATOM      3  C   UNL     1      46.248   7.506  13.160  0.00  0.00    +0.000 A 
ATOM      4  C   UNL     1      45.476   6.447  12.672  0.00  0.00    +0.000 A 
ATOM      5  C   UNL     1      44.498   6.712  11.703  0.00  0.00    +0.000 A 
ATOM      6  C   UNL     1      44.299   8.010  11.231  0.00  0.00    +0.000 A 
ENDROOT
BRANCH   1   7
ATOM      7  C   UNL     1      44.821  10.485  11.235  0.00  0.00    +0.000 C 
BRANCH   7   8
ATOM      8  N   UNL     1      43.484  10.691  10.650  0.00  0.00    +0.000 NA
ATOM      9  C   UNL     1      43.631  11.023   9.227  0.00  0.00    +0.000 C 
BRANCH   8  10
ATOM     10  C   UNL     1      42.764  11.777  11.361  0.00  0.00    +0.000 C 
BRANCH  10  16
ATOM     11  C   UNL     1      38.972  12.483  14.351  0.00  0.00    +0.000 C 
ATOM     12  C   UNL     1      39.516  11.787  13.142  0.00  0.00    +0.000 A 
ATOM     13  C   UNL     1      38.732  10.897  12.415  0.00  0.00    +0.000 A 
ATOM     14  C   UNL     1      39.297  10.239  11.327  0.00  0.00    +0.000 A 
ATOM     15  C   UNL     1      40.622  10.492  10.992  0.00  0.00    +0.000 A 
ATOM     16  C   UNL     1      41.339  11.417  11.747  0.00  0.00    +0.000 A 
ATOM     17  N   UNL     1      40.803  12.058  12.818  0.00  0.00    +0.000 NA
ENDBRANCH  10  16
ENDBRANCH   8  10
ENDBRANCH   7   8
ENDBRANCH   1   7
BRANCH   4  18
ATOM     18  C   UNL     1      45.631   5.058  13.232  0.00  0.00    +0.000 C 
BRANCH  18  19
ATOM     19  N   UNL     1      46.319   5.098  14.499  0.00  0.00    +0.000 N 
ATOM     20  C   UNL     1      47.126   4.068  14.907  0.00  0.00    +0.000 C 
ATOM     21  O   UNL     1      47.341   3.091  14.194  0.00  0.00    +0.000 OA
ATOM     22  H   UNL     1      45.997   5.782  15.177  0.00  0.00    +0.000 HD
BRANCH  20  23
ATOM     23  C   UNL     1      47.774   4.216  16.217  0.00  0.00    +0.000 A 
ATOM     24  C   UNL     1      47.454   3.334  17.241  0.00  0.00    +0.000 A 
ATOM     25  S   UNL     1      48.323   3.610  18.681  0.00  0.00    +0.000 S 
ATOM     26  C   UNL     1      49.123   4.951  18.005  0.00  0.00    +0.000 A 
ATOM     27  N   UNL     1      50.011   5.675  18.738  0.00  0.00    +0.000 NA
ATOM     28  C   UNL     1      50.517   6.686  18.115  0.00  0.00    +0.000 A 
ATOM     29  N   UNL     1      50.222   7.034  16.822  0.00  0.00    +0.000 N 
ATOM     30  C   UNL     1      49.356   6.312  16.034  0.00  0.00    +0.000 A 
ATOM     31  O   UNL     1      49.148   6.625  14.866  0.00  0.00    +0.000 OA
ATOM     32  C   UNL     1      48.746   5.174  16.691  0.00  0.00    +0.000 A 
ATOM     33  H   UNL     1      50.660   7.834  16.390  0.00  0.00    +0.000 HD
ENDBRANCH  20  23
ENDBRANCH  18  19
ENDBRANCH   4  18
TORSDOF 7
ENDMDL
MODEL 8
REMARK VINA RESULT:    -6.617      3.826     10.452
REMARK INTER + INTRA:         -10.290
REMARK INTER:                  -9.234
REMARK INTRA:                  -1.056
REMARK UNBOUND:                -0.964
REMARK  Name = 
REMARK  9 active torsions:
REMARK  status: ('A' for Active; 'I' for Inactive)
REMARK    1  A    between atoms: C_1  and  C_2
REMARK    2  A    between atoms: C_6  and  C_7
REMARK    3  A    between atoms: C_7  and  N_8
REMARK    4  A    between atoms: N_8  and  C_9
REMARK    5  A    between atoms: N_8  and  C_10
REMARK    6  A    between atoms: C_10  and  C_11
REMARK    7  A    between atoms: C_14  and  C_15
REMARK    8  A    between atoms: C_15  and  N_16
REMARK    9  A    between atoms: C_17  and  C_19
REMARK                            x       y       z     vdW  Elec       q    Type
REMARK                         _______ _______ _______ _____ _____    ______ ____
ROOT
ATOM      1  C   UNL     1      48.692   5.764  20.083  0.00  0.00    +0.000 A 
ATOM      2  C   UNL     1      47.586   6.171  19.324  0.00  0.00    +0.000 A 
ATOM      3  C   UNL     1      47.244   5.497  18.147  0.00  0.00    +0.000 A 
ATOM      4  C   UNL     1      47.996   4.400  17.712  0.00  0.00    +0.000 A 
ATOM      5  C   UNL     1      49.101   3.993  18.473  0.00  0.00    +0.000 A 
ATOM      6  C   UNL     1      49.444   4.666  19.646  0.00  0.00    +0.000 A 
ENDROOT
BRANCH   1   7
ATOM      7  C   UNL     1      49.095   6.519  21.333  0.00  0.00    +0.000 C 
BRANCH   7   8
ATOM      8  N   UNL     1      49.892   7.730  21.071  0.00  0.00    +0.000 NA
ATOM      9  C   UNL     1      51.297   7.460  21.402  0.00  0.00    +0.000 C 
BRANCH   8  10
ATOM     10  C   UNL     1      49.385   8.873  21.873  0.00  0.00    +0.000 C 
BRANCH  10  16
ATOM     11  C   UNL     1      44.876  10.700  22.250  0.00  0.00    +0.000 C 
ATOM     12  C   UNL     1      46.105  10.531  21.412  0.00  0.00    +0.000 A 
ATOM     13  C   UNL     1      46.177  11.064  20.129  0.00  0.00    +0.000 A 
ATOM     14  C   UNL     1      47.322  10.841  19.372  0.00  0.00    +0.000 A 
ATOM     15  C   UNL     1      48.363  10.099  19.916  0.00  0.00    +0.000 A 
ATOM     16  C   UNL     1      48.235   9.619  21.217  0.00  0.00    +0.000 A 
ATOM     17  N   UNL     1      47.118   9.821  21.963  0.00  0.00    +0.000 NA
ENDBRANCH  10  16
ENDBRANCH   8  10
ENDBRANCH   7   8
ENDBRANCH   1   7
BRANCH   4  18
ATOM     18  C   UNL     1      47.680   3.718  16.408  0.00  0.00    +0.000 C 
BRANCH  18  19
ATOM     19  N   UNL     1      47.012   4.627  15.510  0.00  0.00    +0.000 N 
ATOM     20  C   UNL     1      46.718   4.270  14.220  0.00  0.00    +0.000 C 
ATOM     21  O   UNL     1      46.963   3.148  13.786  0.00  0.00    +0.000 OA
ATOM     22  H   UNL     1      46.989   5.606  15.778  0.00  0.00    +0.000 HD
BRANCH  20  23
ATOM     23  C   UNL     1      46.038   5.278  13.395  0.00  0.00    +0.000 A 
ATOM     24  C   UNL     1      46.664   6.492  13.144  0.00  0.00    +0.000 A 
ATOM     25  S   UNL     1      45.767   7.532  12.135  0.00  0.00    +0.000 S 
ATOM     26  C   UNL     1      44.483   6.419  12.039  0.00  0.00    +0.000 A 
ATOM     27  N   UNL     1      43.359   6.711  11.330  0.00  0.00    +0.000 NA
ATOM     28  C   UNL     1      42.451   5.794  11.370  0.00  0.00    +0.000 A 
ATOM     29  N   UNL     1      42.568   4.609  12.049  0.00  0.00    +0.000 N 
ATOM     30  C   UNL     1      43.698   4.258  12.750  0.00  0.00    +0.000 A 
ATOM     31  O   UNL     1      43.787   3.170  13.309  0.00  0.00    +0.000 OA
ATOM     32  C   UNL     1      44.745   5.261  12.751  0.00  0.00    +0.000 A 
ATOM     33  H   UNL     1      41.822   3.929  12.033  0.00  0.00    +0.000 HD
ENDBRANCH  20  23
ENDBRANCH  18  19
ENDBRANCH   4  18
TORSDOF 7
ENDMDL
MODEL 9
REMARK VINA RESULT:    -6.540      4.665      9.624
REMARK INTER + INTRA:         -10.181
REMARK INTER:                  -8.854
REMARK INTRA:                  -1.327
REMARK UNBOUND:                -0.964
REMARK  Name = 
REMARK  9 active torsions:
REMARK  status: ('A' for Active; 'I' for Inactive)
REMARK    1  A    between atoms: C_1  and  C_2
REMARK    2  A    between atoms: C_6  and  C_7
REMARK    3  A    between atoms: C_7  and  N_8
REMARK    4  A    between atoms: N_8  and  C_9
REMARK    5  A    between atoms: N_8  and  C_10
REMARK    6  A    between atoms: C_10  and  C_11
REMARK    7  A    between atoms: C_14  and  C_15
REMARK    8  A    between atoms: C_15  and  N_16
REMARK    9  A    between atoms: C_17  and  C_19
REMARK                            x       y       z     vdW  Elec       q    Type
REMARK                         _______ _______ _______ _____ _____    ______ ____
ROOT
ATOM      1  C   UNL     1      51.650   4.154  18.581  0.00  0.00    +0.000 A 
ATOM      2  C   UNL     1      51.352   3.111  17.693  0.00  0.00    +0.000 A 
ATOM      3  C   UNL     1      50.039   2.896  17.263  0.00  0.00    +0.000 A 
ATOM      4  C   UNL     1      49.002   3.725  17.704  0.00  0.00    +0.000 A 
ATOM      5  C   UNL     1      49.301   4.770  18.590  0.00  0.00    +0.000 A 
ATOM      6  C   UNL     1      50.611   4.984  19.021  0.00  0.00    +0.000 A 
ENDROOT
BRANCH   1   7
ATOM      7  C   UNL     1      53.062   4.363  19.087  0.00  0.00    +0.000 C 
BRANCH   7   8
ATOM      8  N   UNL     1      53.501   3.357  20.070  0.00  0.00    +0.000 NA
ATOM      9  C   UNL     1      53.509   3.966  21.407  0.00  0.00    +0.000 C 
BRANCH   8  10
ATOM     10  C   UNL     1      54.853   2.847  19.729  0.00  0.00    +0.000 C 
BRANCH  10  16
ATOM     11  C   UNL     1      54.052  -1.907  18.971  0.00  0.00    +0.000 C 
ATOM     12  C   UNL     1      54.413  -0.576  18.385  0.00  0.00    +0.000 A 
ATOM     13  C   UNL     1      54.680  -0.440  17.027  0.00  0.00    +0.000 A 
ATOM     14  C   UNL     1      55.056   0.807  16.538  0.00  0.00    +0.000 A 
ATOM     15  C   UNL     1      55.150   1.881  17.415  0.00  0.00    +0.000 A 
ATOM     16  C   UNL     1      54.840   1.678  18.758  0.00  0.00    +0.000 A 
ATOM     17  N   UNL     1      54.482   0.464  19.249  0.00  0.00    +0.000 NA
ENDBRANCH  10  16
ENDBRANCH   8  10
ENDBRANCH   7   8
ENDBRANCH   1   7
BRANCH   4  18
ATOM     18  C   UNL     1      47.576   3.454  17.305  0.00  0.00    +0.000 C 
BRANCH  18  19
ATOM     19  N   UNL     1      47.143   4.397  16.304  0.00  0.00    +0.000 N 
ATOM     20  C   UNL     1      47.128   4.069  14.973  0.00  0.00    +0.000 C 
ATOM     21  O   UNL     1      47.433   2.947  14.578  0.00  0.00    +0.000 OA
ATOM     22  H   UNL     1      47.088   5.372  16.581  0.00  0.00    +0.000 HD
BRANCH  20  23
ATOM     23  C   UNL     1      46.669   5.109  14.042  0.00  0.00    +0.000 A 
ATOM     24  C   UNL     1      45.452   4.955  13.391  0.00  0.00    +0.000 A 
ATOM     25  S   UNL     1      45.042   6.267  12.384  0.00  0.00    +0.000 S 
ATOM     26  C   UNL     1      46.501   7.068  12.740  0.00  0.00    +0.000 A 
ATOM     27  N   UNL     1      46.797   8.266  12.168  0.00  0.00    +0.000 NA
ATOM     28  C   UNL     1      47.949   8.743  12.497  0.00  0.00    +0.000 A 
ATOM     29  N   UNL     1      48.830   8.135  13.354  0.00  0.00    +0.000 N 
ATOM     30  C   UNL     1      48.560   6.941  13.980  0.00  0.00    +0.000 A 
ATOM     31  O   UNL     1      49.351   6.446  14.776  0.00  0.00    +0.000 OA
ATOM     32  C   UNL     1      47.282   6.352  13.632  0.00  0.00    +0.000 A 
ATOM     33  H   UNL     1      49.715   8.567  13.577  0.00  0.00    +0.000 HD
ENDBRANCH  20  23
ENDBRANCH  18  19
ENDBRANCH   4  18
TORSDOF 7
ENDMDL
