MODEL 1
REMARK VINA RESULT:    -7.273      0.000      0.000
REMARK INTER + INTRA:          -8.590
REMARK INTER:                  -8.548
REMARK INTRA:                  -0.042
REMARK UNBOUND:                -0.042
REMARK  Name = 
REMARK  3 active torsions:
REMARK  status: ('A' for Active; 'I' for Inactive)
REMARK    1  A    between atoms: C_2  and  C_4
REMARK    2  A    between atoms: C_7  and  C_8
REMARK    3  A    between atoms: C_8  and  N_9
REMARK                            x       y       z     vdW  Elec       q    Type
REMARK                         _______ _______ _______ _____ _____    ______ ____
ROOT
ATOM      1  C   UNL     1      46.586   2.417   7.529  0.00  0.00    +0.000 A 
ATOM      2  C   UNL     1      45.837   1.632   8.413  0.00  0.00    +0.000 A 
ATOM      3  C   UNL     1      44.947   2.233   9.310  0.00  0.00    +0.000 A 
ATOM      4  C   UNL     1      44.797   3.628   9.341  0.00  0.00    +0.000 A 
ATOM      5  C   UNL     1      45.560   4.409   8.459  0.00  0.00    +0.000 A 
ATOM      6  C   UNL     1      46.454   3.810   7.565  0.00  0.00    +0.000 A 
ENDROOT
BRANCH   1   8
ATOM      7  N   UNL     1      48.671   2.528   6.278  0.00  0.00    +0.000 N 
ATOM      8  C   UNL     1      47.544   1.812   6.566  0.00  0.00    +0.000 C 
ATOM      9  O   UNL     1      47.357   0.703   6.077  0.00  0.00    +0.000 OA
ATOM     10  H   UNL     1      49.361   2.074   5.693  0.00  0.00    +0.000 HD
ATOM     11  H   UNL     1      48.980   3.302   6.850  0.00  0.00    +0.000 HD
ENDBRANCH   1   8
BRANCH   4  12
ATOM     12  C   UNL     1      43.793   4.275  10.278  0.00  0.00    +0.000 C 
BRANCH  12  13
ATOM     13  N   UNL     1      44.357   4.772  11.556  0.00  0.00    +0.000 NA
ATOM     14  C   UNL     1      45.283   3.784  12.135  0.00  0.00    +0.000 C 
ATOM     15  C   UNL     1      46.076   4.310  13.333  0.00  0.00    +0.000 C 
ATOM     16  C   UNL     1      46.803   5.599  12.988  0.00  0.00    +0.000 C 
ATOM     17  C   UNL     1      45.792   6.625  12.501  0.00  0.00    +0.000 C 
ATOM     18  C   UNL     1      44.983   6.087  11.318  0.00  0.00    +0.000 C 
ENDBRANCH  12  13
ENDBRANCH   4  12
TORSDOF 3
ENDMDL
MODEL 2
REMARK VINA RESULT:    -6.590      1.050      2.070
REMARK INTER + INTRA:          -7.788
REMARK INTER:                  -7.481
REMARK INTRA:                  -0.307
REMARK UNBOUND:                -0.042
REMARK  Name = 
REMARK  3 active torsions:
REMARK  status: ('A' for Active; 'I' for Inactive)
REMARK    1  A    between atoms: C_2  and  C_4
REMARK    2  A    between atoms: C_7  and  C_8
REMARK    3  A    between atoms: C_8  and  N_9
REMARK                            x       y       z     vdW  Elec       q    Type
REMARK                         _______ _______ _______ _____ _____    ______ ____
ROOT
ATOM      1  C   UNL     1      46.630   2.317   7.453  0.00  0.00    +0.000 A 
ATOM      2  C   UNL     1      46.617   3.713   7.347  0.00  0.00    +0.000 A 
ATOM      3  C   UNL     1      45.900   4.484   8.269  0.00  0.00    +0.000 A 
ATOM      4  C   UNL     1      45.181   3.871   9.307  0.00  0.00    +0.000 A 
ATOM      5  C   UNL     1      45.190   2.471   9.398  0.00  0.00    +0.000 A 
ATOM      6  C   UNL     1      45.902   1.699   8.475  0.00  0.00    +0.000 A 
ENDROOT
BRANCH   1   8
ATOM      7  N   UNL     1      48.485   2.016   5.905  0.00  0.00    +0.000 N 
ATOM      8  C   UNL     1      47.378   1.467   6.488  0.00  0.00    +0.000 C 
ATOM      9  O   UNL     1      47.043   0.312   6.250  0.00  0.00    +0.000 OA
ATOM     10  H   UNL     1      49.039   1.405   5.319  0.00  0.00    +0.000 HD
ATOM     11  H   UNL     1      48.931   2.847   6.269  0.00  0.00    +0.000 HD
ENDBRANCH   1   8
BRANCH   4  12
ATOM     12  C   UNL     1      44.447   4.711  10.336  0.00  0.00    +0.000 C 
BRANCH  12  13
ATOM     13  N   UNL     1      45.137   5.960  10.737  0.00  0.00    +0.000 NA
ATOM     14  C   UNL     1      44.163   6.983  11.153  0.00  0.00    +0.000 C 
ATOM     15  C   UNL     1      44.801   8.218  11.791  0.00  0.00    +0.000 C 
ATOM     16  C   UNL     1      45.709   7.833  12.947  0.00  0.00    +0.000 C 
ATOM     17  C   UNL     1      46.766   6.863  12.445  0.00  0.00    +0.000 C 
ATOM     18  C   UNL     1      46.127   5.639  11.785  0.00  0.00    +0.000 C 
ENDBRANCH  12  13
ENDBRANCH   4  12
TORSDOF 3
ENDMDL
MODEL 3
REMARK VINA RESULT:    -6.205      2.727      6.151
REMARK INTER + INTRA:          -7.335
REMARK INTER:                  -7.070
REMARK INTRA:                  -0.265
REMARK UNBOUND:                -0.042
REMARK  Name = 
REMARK  3 active torsions:
REMARK  status: ('A' for Active; 'I' for Inactive)
REMARK    1  A    between atoms: C_2  and  C_4
REMARK    2  A    between atoms: C_7  and  C_8
REMARK    3  A    between atoms: C_8  and  N_9
REMARK                            x       y       z     vdW  Elec       q    Type
REMARK                         _______ _______ _______ _____ _____    ______ ____
ROOT
ATOM      1  C   UNL     1      45.274   5.231  11.714  0.00  0.00    +0.000 A 
ATOM      2  C   UNL     1      44.557   4.055  11.464  0.00  0.00    +0.000 A 
ATOM      3  C   UNL     1      44.481   3.537  10.166  0.00  0.00    +0.000 A 
ATOM      4  C   UNL     1      45.115   4.191   9.098  0.00  0.00    +0.000 A 
ATOM      5  C   UNL     1      45.821   5.376   9.355  0.00  0.00    +0.000 A 
ATOM      6  C   UNL     1      45.895   5.897  10.651  0.00  0.00    +0.000 A 
ENDROOT
BRANCH   1   8
ATOM      7  N   UNL     1      44.811   7.042  13.273  0.00  0.00    +0.000 N 
ATOM      8  C   UNL     1      45.372   5.812  13.080  0.00  0.00    +0.000 C 
ATOM      9  O   UNL     1      45.898   5.202  14.005  0.00  0.00    +0.000 OA
ATOM     10  H   UNL     1      44.801   7.392  14.223  0.00  0.00    +0.000 HD
ATOM     11  H   UNL     1      44.153   7.444  12.620  0.00  0.00    +0.000 HD
ENDBRANCH   1   8
BRANCH   4  12
ATOM     12  C   UNL     1      45.074   3.600   7.700  0.00  0.00    +0.000 C 
BRANCH  12  13
ATOM     13  N   UNL     1      46.321   2.925   7.267  0.00  0.00    +0.000 NA
ATOM     14  C   UNL     1      46.331   1.519   7.706  0.00  0.00    +0.000 C 
ATOM     15  C   UNL     1      47.474   0.696   7.110  0.00  0.00    +0.000 C 
ATOM     16  C   UNL     1      47.488   0.790   5.593  0.00  0.00    +0.000 C 
ATOM     17  C   UNL     1      47.590   2.251   5.188  0.00  0.00    +0.000 C 
ATOM     18  C   UNL     1      46.460   3.079   5.805  0.00  0.00    +0.000 C 
ENDBRANCH  12  13
ENDBRANCH   4  12
TORSDOF 3
ENDMDL
MODEL 4
REMARK VINA RESULT:    -6.062      3.064      6.092
REMARK INTER + INTRA:          -7.167
REMARK INTER:                  -7.096
REMARK INTRA:                  -0.070
REMARK UNBOUND:                -0.042
REMARK  Name = 
REMARK  3 active torsions:
REMARK  status: ('A' for Active; 'I' for Inactive)
REMARK    1  A    between atoms: C_2  and  C_4
REMARK    2  A    between atoms: C_7  and  C_8
REMARK    3  A    between atoms: C_8  and  N_9
REMARK                            x       y       z     vdW  Elec       q    Type
REMARK                         _______ _______ _______ _____ _____    ______ ____
ROOT
ATOM      1  C   UNL     1      46.917   6.521  13.071  0.00  0.00    +0.000 A 
ATOM      2  C   UNL     1      46.270   7.317  12.119  0.00  0.00    +0.000 A 
ATOM      3  C   UNL     1      45.245   6.781  11.331  0.00  0.00    +0.000 A 
ATOM      4  C   UNL     1      44.856   5.441  11.480  0.00  0.00    +0.000 A 
ATOM      5  C   UNL     1      45.518   4.647  12.429  0.00  0.00    +0.000 A 
ATOM      6  C   UNL     1      46.546   5.179  13.214  0.00  0.00    +0.000 A 
ENDROOT
BRANCH   1   8
ATOM      7  N   UNL     1      47.695   8.072  14.779  0.00  0.00    +0.000 N 
ATOM      8  C   UNL     1      48.014   7.057  13.922  0.00  0.00    +0.000 C 
ATOM      9  O   UNL     1      49.146   6.589  13.888  0.00  0.00    +0.000 OA
ATOM     10  H   UNL     1      48.421   8.372  15.418  0.00  0.00    +0.000 HD
ATOM     11  H   UNL     1      46.739   8.295  15.020  0.00  0.00    +0.000 HD
ENDBRANCH   1   8
BRANCH   4  12
ATOM     12  C   UNL     1      43.709   4.876  10.661  0.00  0.00    +0.000 C 
BRANCH  12  13
ATOM     13  N   UNL     1      44.114   4.066   9.488  0.00  0.00    +0.000 NA
ATOM     14  C   UNL     1      45.335   4.615   8.873  0.00  0.00    +0.000 C 
ATOM     15  C   UNL     1      45.943   3.713   7.798  0.00  0.00    +0.000 C 
ATOM     16  C   UNL     1      46.189   2.311   8.330  0.00  0.00    +0.000 C 
ATOM     17  C   UNL     1      44.879   1.742   8.852  0.00  0.00    +0.000 C 
ATOM     18  C   UNL     1      44.259   2.659   9.909  0.00  0.00    +0.000 C 
ENDBRANCH  12  13
ENDBRANCH   4  12
TORSDOF 3
ENDMDL
MODEL 5
REMARK VINA RESULT:    -6.017      3.196      6.200
REMARK INTER + INTRA:          -7.114
REMARK INTER:                  -7.395
REMARK INTRA:                   0.280
REMARK UNBOUND:                -0.042
REMARK  Name = 
REMARK  3 active torsions:
REMARK  status: ('A' for Active; 'I' for Inactive)
REMARK    1  A    between atoms: C_2  and  C_4
REMARK    2  A    between atoms: C_7  and  C_8
REMARK    3  A    between atoms: C_8  and  N_9
REMARK                            x       y       z     vdW  Elec       q    Type
REMARK                         _______ _______ _______ _____ _____    ______ ____
ROOT
ATOM      1  C   UNL     1      43.426   4.471  11.412  0.00  0.00    +0.000 A 
ATOM      2  C   UNL     1      43.256   3.095  11.608  0.00  0.00    +0.000 A 
ATOM      3  C   UNL     1      43.857   2.179  10.737  0.00  0.00    +0.000 A 
ATOM      4  C   UNL     1      44.632   2.625   9.654  0.00  0.00    +0.000 A 
ATOM      5  C   UNL     1      44.786   4.006   9.458  0.00  0.00    +0.000 A 
ATOM      6  C   UNL     1      44.182   4.923  10.325  0.00  0.00    +0.000 A 
ENDROOT
BRANCH   1   8
ATOM      7  N   UNL     1      42.000   6.418  11.735  0.00  0.00    +0.000 N 
ATOM      8  C   UNL     1      42.797   5.472  12.315  0.00  0.00    +0.000 C 
ATOM      9  O   UNL     1      42.953   5.433  13.531  0.00  0.00    +0.000 OA
ATOM     10  H   UNL     1      41.505   7.039  12.361  0.00  0.00    +0.000 HD
ATOM     11  H   UNL     1      41.644   6.320  10.795  0.00  0.00    +0.000 HD
ENDBRANCH   1   8
BRANCH   4  12
ATOM     12  C   UNL     1      45.325   1.630   8.741  0.00  0.00    +0.000 C 
BRANCH  12  13
ATOM     13  N   UNL     1      46.380   2.204   7.873  0.00  0.00    +0.000 NA
ATOM     14  C   UNL     1      47.240   1.141   7.325  0.00  0.00    +0.000 C 
ATOM     15  C   UNL     1      48.209   1.626   6.246  0.00  0.00    +0.000 C 
ATOM     16  C   UNL     1      47.475   2.355   5.133  0.00  0.00    +0.000 C 
ATOM     17  C   UNL     1      46.691   3.512   5.732  0.00  0.00    +0.000 C 
ATOM     18  C   UNL     1      45.739   3.028   6.829  0.00  0.00    +0.000 C 
ENDBRANCH  12  13
ENDBRANCH   4  12
TORSDOF 3
ENDMDL
MODEL 6
REMARK VINA RESULT:    -5.787      2.692      6.283
REMARK INTER + INTRA:          -6.844
REMARK INTER:                  -6.860
REMARK INTRA:                   0.016
REMARK UNBOUND:                -0.042
REMARK  Name = 
REMARK  3 active torsions:
REMARK  status: ('A' for Active; 'I' for Inactive)
REMARK    1  A    between atoms: C_2  and  C_4
REMARK    2  A    between atoms: C_7  and  C_8
REMARK    3  A    between atoms: C_8  and  N_9
REMARK                            x       y       z     vdW  Elec       q    Type
REMARK                         _______ _______ _______ _____ _____    ______ ____
ROOT
ATOM      1  C   UNL     1      44.423   4.592  11.528  0.00  0.00    +0.000 A 
ATOM      2  C   UNL     1      43.961   3.676  10.574  0.00  0.00    +0.000 A 
ATOM      3  C   UNL     1      44.527   3.645   9.295  0.00  0.00    +0.000 A 
ATOM      4  C   UNL     1      45.558   4.533   8.948  0.00  0.00    +0.000 A 
ATOM      5  C   UNL     1      46.006   5.455   9.906  0.00  0.00    +0.000 A 
ATOM      6  C   UNL     1      45.439   5.490  11.184  0.00  0.00    +0.000 A 
ENDROOT
BRANCH   1   8
ATOM      7  N   UNL     1      42.708   5.402  13.054  0.00  0.00    +0.000 N 
ATOM      8  C   UNL     1      43.840   4.655  12.896  0.00  0.00    +0.000 C 
ATOM      9  O   UNL     1      44.328   4.036  13.835  0.00  0.00    +0.000 OA
ATOM     10  H   UNL     1      42.266   5.369  13.964  0.00  0.00    +0.000 HD
ATOM     11  H   UNL     1      42.142   5.698  12.271  0.00  0.00    +0.000 HD
ENDBRANCH   1   8
BRANCH   4  12
ATOM     12  C   UNL     1      46.206   4.463   7.577  0.00  0.00    +0.000 C 
BRANCH  12  13
ATOM     13  N   UNL     1      46.124   3.142   6.910  0.00  0.00    +0.000 NA
ATOM     14  C   UNL     1      46.629   3.225   5.528  0.00  0.00    +0.000 C 
ATOM     15  C   UNL     1      46.787   1.864   4.847  0.00  0.00    +0.000 C 
ATOM     16  C   UNL     1      47.645   0.927   5.682  0.00  0.00    +0.000 C 
ATOM     17  C   UNL     1      47.024   0.785   7.062  0.00  0.00    +0.000 C 
ATOM     18  C   UNL     1      46.843   2.149   7.732  0.00  0.00    +0.000 C 
ENDBRANCH  12  13
ENDBRANCH   4  12
TORSDOF 3
ENDMDL
MODEL 7
REMARK VINA RESULT:    -5.622      3.478      5.240
REMARK INTER + INTRA:          -6.649
REMARK INTER:                  -6.358
REMARK INTRA:                  -0.292
REMARK UNBOUND:                -0.042
REMARK  Name = 
REMARK  3 active torsions:
REMARK  status: ('A' for Active; 'I' for Inactive)
REMARK    1  A    between atoms: C_2  and  C_4
REMARK    2  A    between atoms: C_7  and  C_8
REMARK    3  A    between atoms: C_8  and  N_9
REMARK                            x       y       z     vdW  Elec       q    Type
REMARK                         _______ _______ _______ _____ _____    ______ ____
ROOT
ATOM      1  C   UNL     1      44.772   3.958  11.469  0.00  0.00    +0.000 A 
ATOM      2  C   UNL     1      45.408   3.923  12.716  0.00  0.00    +0.000 A 
ATOM      3  C   UNL     1      46.138   5.029  13.166  0.00  0.00    +0.000 A 
ATOM      4  C   UNL     1      46.248   6.183  12.374  0.00  0.00    +0.000 A 
ATOM      5  C   UNL     1      45.618   6.204  11.120  0.00  0.00    +0.000 A 
ATOM      6  C   UNL     1      44.892   5.098  10.667  0.00  0.00    +0.000 A 
ENDROOT
BRANCH   1   8
ATOM      7  N   UNL     1      44.475   2.166   9.848  0.00  0.00    +0.000 N 
ATOM      8  C   UNL     1      43.992   2.799  10.958  0.00  0.00    +0.000 C 
ATOM      9  O   UNL     1      42.980   2.400  11.524  0.00  0.00    +0.000 OA
ATOM     10  H   UNL     1      43.992   1.326   9.558  0.00  0.00    +0.000 HD
ATOM     11  H   UNL     1      45.423   2.296   9.522  0.00  0.00    +0.000 HD
ENDBRANCH   1   8
BRANCH   4  12
ATOM     12  C   UNL     1      46.997   7.400  12.885  0.00  0.00    +0.000 C 
BRANCH  12  13
ATOM     13  N   UNL     1      47.997   7.963  11.947  0.00  0.00    +0.000 NA
ATOM     14  C   UNL     1      48.059   9.430  12.070  0.00  0.00    +0.000 C 
ATOM     15  C   UNL     1      49.218  10.065  11.301  0.00  0.00    +0.000 C 
ATOM     16  C   UNL     1      50.546   9.432  11.685  0.00  0.00    +0.000 C 
ATOM     17  C   UNL     1      50.472   7.935  11.435  0.00  0.00    +0.000 C 
ATOM     18  C   UNL     1      49.296   7.305  12.186  0.00  0.00    +0.000 C 
ENDBRANCH  12  13
ENDBRANCH   4  12
TORSDOF 3
ENDMDL
MODEL 8
REMARK VINA RESULT:    -5.463      3.103      7.460
REMARK INTER + INTRA:          -6.462
REMARK INTER:                  -6.179
REMARK INTRA:                  -0.283
REMARK UNBOUND:                -0.042
REMARK  Name = 
REMARK  3 active torsions:
REMARK  status: ('A' for Active; 'I' for Inactive)
REMARK    1  A    between atoms: C_2  and  C_4
REMARK    2  A    between atoms: C_7  and  C_8
REMARK    3  A    between atoms: C_8  and  N_9
REMARK                            x       y       z     vdW  Elec       q    Type
REMARK                         _______ _______ _______ _____ _____    ______ ____
ROOT
ATOM      1  C   UNL     1      45.117   3.106   9.024  0.00  0.00    +0.000 A 
ATOM      2  C   UNL     1      45.537   3.958   7.996  0.00  0.00    +0.000 A 
ATOM      3  C   UNL     1      46.289   3.457   6.927  0.00  0.00    +0.000 A 
ATOM      4  C   UNL     1      46.636   2.098   6.874  0.00  0.00    +0.000 A 
ATOM      5  C   UNL     1      46.221   1.253   7.915  0.00  0.00    +0.000 A 
ATOM      6  C   UNL     1      45.474   1.754   8.986  0.00  0.00    +0.000 A 
ENDROOT
BRANCH   1   8
ATOM      7  N   UNL     1      44.336   2.852  11.316  0.00  0.00    +0.000 N 
ATOM      8  C   UNL     1      44.321   3.607  10.177  0.00  0.00    +0.000 C 
ATOM      9  O   UNL     1      43.708   4.668  10.128  0.00  0.00    +0.000 OA
ATOM     10  H   UNL     1      43.868   3.241  12.125  0.00  0.00    +0.000 HD
ATOM     11  H   UNL     1      45.026   2.132  11.478  0.00  0.00    +0.000 HD
ENDBRANCH   1   8
BRANCH   4  12
ATOM     12  C   UNL     1      47.406   1.545   5.688  0.00  0.00    +0.000 C 
BRANCH  12  13
ATOM     13  N   UNL     1      46.616   0.694   4.767  0.00  0.00    +0.000 NA
ATOM     14  C   UNL     1      46.384   1.386   3.488  0.00  0.00    +0.000 C 
ATOM     15  C   UNL     1      45.772   0.494   2.406  0.00  0.00    +0.000 C 
ATOM     16  C   UNL     1      46.599  -0.764   2.199  0.00  0.00    +0.000 C 
ATOM     17  C   UNL     1      46.718  -1.504   3.522  0.00  0.00    +0.000 C 
ATOM     18  C   UNL     1      47.306  -0.602   4.610  0.00  0.00    +0.000 C 
ENDBRANCH  12  13
ENDBRANCH   4  12
TORSDOF 3
ENDMDL
MODEL 9
REMARK VINA RESULT:    -5.421      5.222      8.231
REMARK INTER + INTRA:          -6.414
REMARK INTER:                  -6.130
REMARK INTRA:                  -0.284
REMARK UNBOUND:                -0.042
REMARK  Name = 
REMARK  3 active torsions:
REMARK  status: ('A' for Active; 'I' for Inactive)
REMARK    1  A    between atoms: C_2  and  C_4
REMARK    2  A    between atoms: C_7  and  C_8
REMARK    3  A    between atoms: C_8  and  N_9
REMARK                            x       y       z     vdW  Elec       q    Type
REMARK                         _______ _______ _______ _____ _____    ______ ____
ROOT
ATOM      1  C   UNL     1      48.414   4.685  17.558  0.00  0.00    +0.000 A 
ATOM      2  C   UNL     1      48.757   5.768  16.740  0.00  0.00    +0.000 A 
ATOM      3  C   UNL     1      48.222   5.877  15.452  0.00  0.00    +0.000 A 
ATOM      4  C   UNL     1      47.341   4.902  14.960  0.00  0.00    +0.000 A 
ATOM      5  C   UNL     1      47.012   3.813  15.781  0.00  0.00    +0.000 A 
ATOM      6  C   UNL     1      47.549   3.700  17.067  0.00  0.00    +0.000 A 
ENDROOT
BRANCH   1   8
ATOM      7  N   UNL     1      48.526   3.473  19.666  0.00  0.00    +0.000 N 
ATOM      8  C   UNL     1      48.968   4.535  18.930  0.00  0.00    +0.000 C 
ATOM      9  O   UNL     1      49.813   5.305  19.374  0.00  0.00    +0.000 OA
ATOM     10  H   UNL     1      48.971   3.324  20.563  0.00  0.00    +0.000 HD
ATOM     11  H   UNL     1      48.046   2.688  19.247  0.00  0.00    +0.000 HD
ENDBRANCH   1   8
BRANCH   4  12
ATOM     12  C   UNL     1      46.721   5.049  13.582  0.00  0.00    +0.000 C 
BRANCH  12  13
ATOM     13  N   UNL     1      45.333   4.542  13.460  0.00  0.00    +0.000 NA
ATOM     14  C   UNL     1      44.412   5.630  13.090  0.00  0.00    +0.000 C 
ATOM     15  C   UNL     1      43.006   5.151  12.727  0.00  0.00    +0.000 C 
ATOM     16  C   UNL     1      43.050   4.086  11.643  0.00  0.00    +0.000 C 
ATOM     17  C   UNL     1      43.921   2.934  12.116  0.00  0.00    +0.000 C 
ATOM     18  C   UNL     1      45.320   3.419  12.502  0.00  0.00    +0.000 C 
ENDBRANCH  12  13
ENDBRANCH   4  12
TORSDOF 3
ENDMDL
