MODEL 1
REMARK VINA RESULT:    -7.468      0.000      0.000
REMARK INTER + INTRA:         -11.973
REMARK INTER:                 -10.742
REMARK INTRA:                  -1.230
REMARK UNBOUND:                -1.230
REMARK  Name = 
REMARK  9 active torsions:
REMARK  status: ('A' for Active; 'I' for Inactive)
REMARK    1  A    between atoms: C_1  and  O_2
REMARK    2  A    between atoms: O_2  and  C_3
REMARK    3  A    between atoms: C_6  and  O_7
REMARK    4  A    between atoms: O_7  and  C_8
REMARK    5  A    between atoms: C_8  and  C_9
REMARK    6  A    between atoms: C_9  and  C_10
REMARK    7  A    between atoms: C_14  and  C_15
REMARK    8  A    between atoms: C_15  and  N_16
REMARK    9  A    between atoms: C_19  and  C_20
REMARK                            x       y       z     vdW  Elec       q    Type
REMARK                         _______ _______ _______ _____ _____    ______ ____
ROOT
ATOM      1  C   UNL     1      47.570   5.942  13.132  0.00  0.00    +0.000 A 
ATOM      2  C   UNL     1      46.989   6.619  12.054  0.00  0.00    +0.000 A 
ATOM      3  C   UNL     1      45.705   6.300  11.610  0.00  0.00    +0.000 A 
ATOM      4  C   UNL     1      44.972   5.285  12.224  0.00  0.00    +0.000 A 
ATOM      5  C   UNL     1      45.539   4.614  13.310  0.00  0.00    +0.000 A 
ATOM      6  C   UNL     1      46.823   4.941  13.787  0.00  0.00    +0.000 A 
ENDROOT
BRANCH   6   7
ATOM      7  C   UNL     1      47.298   4.198  15.001  0.00  0.00    +0.000 C 
ATOM      8  N   UNL     1      47.347   4.862  16.193  0.00  0.00    +0.000 N 
ATOM      9  O   UNL     1      47.620   3.016  14.949  0.00  0.00    +0.000 OA
ATOM     10  H   UNL     1      47.088   5.839  16.261  0.00  0.00    +0.000 HD
ATOM     11  H   UNL     1      47.640   4.362  17.019  0.00  0.00    +0.000 HD
ENDBRANCH   6   7
BRANCH   1  13
ATOM     12  C   UNL     1      49.049   7.475  14.222  0.00  0.00    +0.000 C 
ATOM     13  O   UNL     1      48.838   6.218  13.587  0.00  0.00    +0.000 OA
ENDBRANCH   1  13
BRANCH   4  14
ATOM     14  O   UNL     1      43.715   4.884  11.853  0.00  0.00    +0.000 OA
BRANCH  14  15
ATOM     15  C   UNL     1      43.553   4.513  10.479  0.00  0.00    +0.000 C 
BRANCH  15  16
ATOM     16  C   UNL     1      44.119   3.111  10.248  0.00  0.00    +0.000 C 
BRANCH  16  17
ATOM     17  C   UNL     1      45.073   3.105   9.079  0.00  0.00    +0.000 A 
ATOM     18  C   UNL     1      45.436   4.300   8.446  0.00  0.00    +0.000 A 
ATOM     19  C   UNL     1      46.380   4.297   7.419  0.00  0.00    +0.000 A 
ATOM     20  C   UNL     1      46.993   3.103   7.030  0.00  0.00    +0.000 A 
ATOM     21  C   UNL     1      46.660   1.898   7.662  0.00  0.00    +0.000 A 
ATOM     22  C   UNL     1      45.678   1.908   8.666  0.00  0.00    +0.000 A 
BRANCH  21  23
ATOM     23  C   UNL     1      47.353   0.612   7.291  0.00  0.00    +0.000 C 
BRANCH  23  24
ATOM     24  N   UNL     1      46.565  -0.549   7.701  0.00  0.00    +0.000 NA
ATOM     25  H   UNL     1      45.929  -0.262   8.443  0.00  0.00    +0.000 HD
ATOM     26  H   UNL     1      47.184  -1.251   8.101  0.00  0.00    +0.000 HD
ENDBRANCH  23  24
ENDBRANCH  21  23
ENDBRANCH  16  17
ENDBRANCH  15  16
ENDBRANCH  14  15
ENDBRANCH   4  14
TORSDOF 8
ENDMDL
MODEL 2
REMARK VINA RESULT:    -7.069      1.798      2.518
REMARK INTER + INTRA:         -11.399
REMARK INTER:                 -10.149
REMARK INTRA:                  -1.250
REMARK UNBOUND:                -1.230
REMARK  Name = 
REMARK  9 active torsions:
REMARK  status: ('A' for Active; 'I' for Inactive)
REMARK    1  A    between atoms: C_1  and  O_2
REMARK    2  A    between atoms: O_2  and  C_3
REMARK    3  A    between atoms: C_6  and  O_7
REMARK    4  A    between atoms: O_7  and  C_8
REMARK    5  A    between atoms: C_8  and  C_9
REMARK    6  A    between atoms: C_9  and  C_10
REMARK    7  A    between atoms: C_14  and  C_15
REMARK    8  A    between atoms: C_15  and  N_16
REMARK    9  A    between atoms: C_19  and  C_20
REMARK                            x       y       z     vdW  Elec       q    Type
REMARK                         _______ _______ _______ _____ _____    ______ ____
ROOT
ATOM      1  C   UNL     1      47.061   6.114  13.420  0.00  0.00    +0.000 A 
ATOM      2  C   UNL     1      47.123   4.719  13.508  0.00  0.00    +0.000 A 
ATOM      3  C   UNL     1      46.011   3.927  13.210  0.00  0.00    +0.000 A 
ATOM      4  C   UNL     1      44.804   4.512  12.830  0.00  0.00    +0.000 A 
ATOM      5  C   UNL     1      44.739   5.903  12.725  0.00  0.00    +0.000 A 
ATOM      6  C   UNL     1      45.857   6.715  12.997  0.00  0.00    +0.000 A 
ENDROOT
BRANCH   6   7
ATOM      7  C   UNL     1      45.684   8.190  12.784  0.00  0.00    +0.000 C 
ATOM      8  N   UNL     1      46.215   9.046  13.704  0.00  0.00    +0.000 N 
ATOM      9  O   UNL     1      45.098   8.636  11.803  0.00  0.00    +0.000 OA
ATOM     10  H   UNL     1      46.701   8.703  14.523  0.00  0.00    +0.000 HD
ATOM     11  H   UNL     1      46.125  10.041  13.555  0.00  0.00    +0.000 HD
ENDBRANCH   6   7
BRANCH   1  13
ATOM     12  C   UNL     1      49.186   6.998  12.769  0.00  0.00    +0.000 C 
ATOM     13  O   UNL     1      48.129   6.925  13.720  0.00  0.00    +0.000 OA
ENDBRANCH   1  13
BRANCH   4  14
ATOM     14  O   UNL     1      43.655   3.826  12.536  0.00  0.00    +0.000 OA
BRANCH  14  15
ATOM     15  C   UNL     1      43.328   3.713  11.145  0.00  0.00    +0.000 C 
BRANCH  15  16
ATOM     16  C   UNL     1      44.027   2.493  10.544  0.00  0.00    +0.000 C 
BRANCH  16  17
ATOM     17  C   UNL     1      44.909   2.897   9.389  0.00  0.00    +0.000 A 
ATOM     18  C   UNL     1      45.105   4.248   9.078  0.00  0.00    +0.000 A 
ATOM     19  C   UNL     1      45.986   4.618   8.060  0.00  0.00    +0.000 A 
ATOM     20  C   UNL     1      46.700   3.643   7.359  0.00  0.00    +0.000 A 
ATOM     21  C   UNL     1      46.534   2.287   7.666  0.00  0.00    +0.000 A 
ATOM     22  C   UNL     1      45.615   1.925   8.664  0.00  0.00    +0.000 A 
BRANCH  21  23
ATOM     23  C   UNL     1      47.339   1.228   6.956  0.00  0.00    +0.000 C 
BRANCH  23  24
ATOM     24  N   UNL     1      48.426   1.823   6.182  0.00  0.00    +0.000 NA
ATOM     25  H   UNL     1      48.489   2.812   6.418  0.00  0.00    +0.000 HD
ATOM     26  H   UNL     1      48.200   1.773   5.191  0.00  0.00    +0.000 HD
ENDBRANCH  23  24
ENDBRANCH  21  23
ENDBRANCH  16  17
ENDBRANCH  15  16
ENDBRANCH  14  15
ENDBRANCH   4  14
TORSDOF 8
ENDMDL
MODEL 3
REMARK VINA RESULT:    -6.605      1.737      2.804
REMARK INTER + INTRA:         -10.731
REMARK INTER:                  -9.868
REMARK INTRA:                  -0.863
REMARK UNBOUND:                -1.230
REMARK  Name = 
REMARK  9 active torsions:
REMARK  status: ('A' for Active; 'I' for Inactive)
REMARK    1  A    between atoms: C_1  and  O_2
REMARK    2  A    between atoms: O_2  and  C_3
REMARK    3  A    between atoms: C_6  and  O_7
REMARK    4  A    between atoms: O_7  and  C_8
REMARK    5  A    between atoms: C_8  and  C_9
REMARK    6  A    between atoms: C_9  and  C_10
REMARK    7  A    between atoms: C_14  and  C_15
REMARK    8  A    between atoms: C_15  and  N_16
REMARK    9  A    between atoms: C_19  and  C_20
REMARK                            x       y       z     vdW  Elec       q    Type
REMARK                         _______ _______ _______ _____ _____    ______ ____
ROOT
ATOM      1  C   UNL     1      47.146   5.563  13.890  0.00  0.00    +0.000 A 
ATOM      2  C   UNL     1      46.588   4.308  13.625  0.00  0.00    +0.000 A 
ATOM      3  C   UNL     1      45.631   4.141  12.622  0.00  0.00    +0.000 A 
ATOM      4  C   UNL     1      45.196   5.229  11.867  0.00  0.00    +0.000 A 
ATOM      5  C   UNL     1      45.759   6.482  12.115  0.00  0.00    +0.000 A 
ATOM      6  C   UNL     1      46.744   6.664  13.104  0.00  0.00    +0.000 A 
ENDROOT
BRANCH   6   7
ATOM      7  C   UNL     1      47.322   8.043  13.232  0.00  0.00    +0.000 C 
ATOM      8  N   UNL     1      47.156   8.711  14.410  0.00  0.00    +0.000 N 
ATOM      9  O   UNL     1      47.949   8.567  12.317  0.00  0.00    +0.000 OA
ATOM     10  H   UNL     1      46.640   8.302  15.179  0.00  0.00    +0.000 HD
ATOM     11  H   UNL     1      47.564   9.629  14.513  0.00  0.00    +0.000 HD
ENDBRANCH   6   7
BRANCH   1  13
ATOM     12  C   UNL     1      47.978   4.967  16.052  0.00  0.00    +0.000 C 
ATOM     13  O   UNL     1      48.078   5.769  14.879  0.00  0.00    +0.000 OA
ENDBRANCH   1  13
BRANCH   4  14
ATOM     14  O   UNL     1      44.251   5.173  10.875  0.00  0.00    +0.000 OA
BRANCH  14  15
ATOM     15  C   UNL     1      44.238   3.979  10.085  0.00  0.00    +0.000 C 
BRANCH  15  16
ATOM     16  C   UNL     1      44.726   4.286   8.668  0.00  0.00    +0.000 C 
BRANCH  16  17
ATOM     17  C   UNL     1      45.564   3.152   8.133  0.00  0.00    +0.000 A 
ATOM     18  C   UNL     1      45.536   1.892   8.744  0.00  0.00    +0.000 A 
ATOM     19  C   UNL     1      46.250   0.826   8.196  0.00  0.00    +0.000 A 
ATOM     20  C   UNL     1      46.980   0.999   7.017  0.00  0.00    +0.000 A 
ATOM     21  C   UNL     1      47.007   2.245   6.378  0.00  0.00    +0.000 A 
ATOM     22  C   UNL     1      46.317   3.320   6.961  0.00  0.00    +0.000 A 
BRANCH  21  23
ATOM     23  C   UNL     1      47.744   2.432   5.077  0.00  0.00    +0.000 C 
BRANCH  23  24
ATOM     24  N   UNL     1      47.541   1.290   4.187  0.00  0.00    +0.000 NA
ATOM     25  H   UNL     1      46.715   0.782   4.497  0.00  0.00    +0.000 HD
ATOM     26  H   UNL     1      48.328   0.651   4.275  0.00  0.00    +0.000 HD
ENDBRANCH  23  24
ENDBRANCH  21  23
ENDBRANCH  16  17
ENDBRANCH  15  16
ENDBRANCH  14  15
ENDBRANCH   4  14
TORSDOF 8
ENDMDL
MODEL 4
REMARK VINA RESULT:    -6.549      2.513      6.689
REMARK INTER + INTRA:         -10.651
REMARK INTER:                  -9.628
REMARK INTRA:                  -1.023
REMARK UNBOUND:                -1.230
REMARK  Name = 
REMARK  9 active torsions:
REMARK  status: ('A' for Active; 'I' for Inactive)
REMARK    1  A    between atoms: C_1  and  O_2
REMARK    2  A    between atoms: O_2  and  C_3
REMARK    3  A    between atoms: C_6  and  O_7
REMARK    4  A    between atoms: O_7  and  C_8
REMARK    5  A    between atoms: C_8  and  C_9
REMARK    6  A    between atoms: C_9  and  C_10
REMARK    7  A    between atoms: C_14  and  C_15
REMARK    8  A    between atoms: C_15  and  N_16
REMARK    9  A    between atoms: C_19  and  C_20
REMARK                            x       y       z     vdW  Elec       q    Type
REMARK                         _______ _______ _______ _____ _____    ______ ____
ROOT
ATOM      1  C   UNL     1      46.205   1.610   8.052  0.00  0.00    +0.000 A 
ATOM      2  C   UNL     1      45.232   1.320   9.015  0.00  0.00    +0.000 A 
ATOM      3  C   UNL     1      44.376   2.312   9.496  0.00  0.00    +0.000 A 
ATOM      4  C   UNL     1      44.478   3.624   9.035  0.00  0.00    +0.000 A 
ATOM      5  C   UNL     1      45.436   3.918   8.063  0.00  0.00    +0.000 A 
ATOM      6  C   UNL     1      46.291   2.924   7.548  0.00  0.00    +0.000 A 
ENDROOT
BRANCH   6   7
ATOM      7  C   UNL     1      47.233   3.346   6.459  0.00  0.00    +0.000 C 
ATOM      8  N   UNL     1      48.499   2.838   6.460  0.00  0.00    +0.000 N 
ATOM      9  O   UNL     1      46.886   4.115   5.568  0.00  0.00    +0.000 OA
ATOM     10  H   UNL     1      48.811   2.205   7.186  0.00  0.00    +0.000 HD
ATOM     11  H   UNL     1      49.131   3.097   5.717  0.00  0.00    +0.000 HD
ENDBRANCH   6   7
BRANCH   1  13
ATOM     12  C   UNL     1      46.635  -0.691   7.558  0.00  0.00    +0.000 C 
ATOM     13  O   UNL     1      47.076   0.663   7.567  0.00  0.00    +0.000 OA
ENDBRANCH   1  13
BRANCH   4  14
ATOM     14  O   UNL     1      43.700   4.670   9.456  0.00  0.00    +0.000 OA
BRANCH  14  15
ATOM     15  C   UNL     1      43.420   4.723  10.860  0.00  0.00    +0.000 C 
BRANCH  15  16
ATOM     16  C   UNL     1      43.753   6.112  11.405  0.00  0.00    +0.000 C 
BRANCH  16  17
ATOM     17  C   UNL     1      45.153   6.145  11.967  0.00  0.00    +0.000 A 
ATOM     18  C   UNL     1      46.085   7.085  11.511  0.00  0.00    +0.000 A 
ATOM     19  C   UNL     1      47.351   7.164  12.091  0.00  0.00    +0.000 A 
ATOM     20  C   UNL     1      47.692   6.321  13.152  0.00  0.00    +0.000 A 
ATOM     21  C   UNL     1      46.770   5.387  13.639  0.00  0.00    +0.000 A 
ATOM     22  C   UNL     1      45.513   5.290  13.019  0.00  0.00    +0.000 A 
BRANCH  21  23
ATOM     23  C   UNL     1      47.104   4.510  14.818  0.00  0.00    +0.000 C 
BRANCH  23  24
ATOM     24  N   UNL     1      47.364   3.135  14.397  0.00  0.00    +0.000 NA
ATOM     25  H   UNL     1      46.846   2.506  15.008  0.00  0.00    +0.000 HD
ATOM     26  H   UNL     1      48.351   2.924  14.528  0.00  0.00    +0.000 HD
ENDBRANCH  23  24
ENDBRANCH  21  23
ENDBRANCH  16  17
ENDBRANCH  15  16
ENDBRANCH  14  15
ENDBRANCH   4  14
TORSDOF 8
ENDMDL
MODEL 5
REMARK VINA RESULT:    -6.213      1.851      2.594
REMARK INTER + INTRA:         -10.167
REMARK INTER:                  -9.526
REMARK INTRA:                  -0.641
REMARK UNBOUND:                -1.230
REMARK  Name = 
REMARK  9 active torsions:
REMARK  status: ('A' for Active; 'I' for Inactive)
REMARK    1  A    between atoms: C_1  and  O_2
REMARK    2  A    between atoms: O_2  and  C_3
REMARK    3  A    between atoms: C_6  and  O_7
REMARK    4  A    between atoms: O_7  and  C_8
REMARK    5  A    between atoms: C_8  and  C_9
REMARK    6  A    between atoms: C_9  and  C_10
REMARK    7  A    between atoms: C_14  and  C_15
REMARK    8  A    between atoms: C_15  and  N_16
REMARK    9  A    between atoms: C_19  and  C_20
REMARK                            x       y       z     vdW  Elec       q    Type
REMARK                         _______ _______ _______ _____ _____    ______ ____
ROOT
ATOM      1  C   UNL     1      45.890   7.903  12.608  0.00  0.00    +0.000 A 
ATOM      2  C   UNL     1      44.645   7.731  11.993  0.00  0.00    +0.000 A 
ATOM      3  C   UNL     1      44.199   6.466  11.607  0.00  0.00    +0.000 A 
ATOM      4  C   UNL     1      44.993   5.339  11.814  0.00  0.00    +0.000 A 
ATOM      5  C   UNL     1      46.231   5.500  12.441  0.00  0.00    +0.000 A 
ATOM      6  C   UNL     1      46.685   6.765  12.860  0.00  0.00    +0.000 A 
ENDROOT
BRANCH   6   7
ATOM      7  C   UNL     1      47.999   6.802  13.582  0.00  0.00    +0.000 C 
ATOM      8  N   UNL     1      48.053   7.403  14.806  0.00  0.00    +0.000 N 
ATOM      9  O   UNL     1      49.010   6.293  13.109  0.00  0.00    +0.000 OA
ATOM     10  H   UNL     1      47.233   7.833  15.217  0.00  0.00    +0.000 HD
ATOM     11  H   UNL     1      48.928   7.410  15.309  0.00  0.00    +0.000 HD
ENDBRANCH   6   7
BRANCH   1  13
ATOM     12  C   UNL     1      46.417  10.154  11.994  0.00  0.00    +0.000 C 
ATOM     13  O   UNL     1      46.368   9.134  12.987  0.00  0.00    +0.000 OA
ENDBRANCH   1  13
BRANCH   4  14
ATOM     14  O   UNL     1      44.656   4.060  11.457  0.00  0.00    +0.000 OA
BRANCH  14  15
ATOM     15  C   UNL     1      43.771   3.932  10.337  0.00  0.00    +0.000 C 
BRANCH  15  16
ATOM     16  C   UNL     1      44.461   4.436   9.069  0.00  0.00    +0.000 C 
BRANCH  16  17
ATOM     17  C   UNL     1      45.305   3.348   8.451  0.00  0.00    +0.000 A 
ATOM     18  C   UNL     1      45.302   2.052   8.981  0.00  0.00    +0.000 A 
ATOM     19  C   UNL     1      46.020   1.031   8.357  0.00  0.00    +0.000 A 
ATOM     20  C   UNL     1      46.729   1.288   7.181  0.00  0.00    +0.000 A 
ATOM     21  C   UNL     1      46.731   2.571   6.622  0.00  0.00    +0.000 A 
ATOM     22  C   UNL     1      46.038   3.599   7.281  0.00  0.00    +0.000 A 
BRANCH  21  23
ATOM     23  C   UNL     1      47.446   2.850   5.324  0.00  0.00    +0.000 C 
BRANCH  23  24
ATOM     24  N   UNL     1      48.303   1.728   4.943  0.00  0.00    +0.000 NA
ATOM     25  H   UNL     1      48.600   1.862   3.978  0.00  0.00    +0.000 HD
ATOM     26  H   UNL     1      47.759   0.868   4.965  0.00  0.00    +0.000 HD
ENDBRANCH  23  24
ENDBRANCH  21  23
ENDBRANCH  16  17
ENDBRANCH  15  16
ENDBRANCH  14  15
ENDBRANCH   4  14
TORSDOF 8
ENDMDL
MODEL 6
REMARK VINA RESULT:    -6.056      3.532      7.465
REMARK INTER + INTRA:          -9.942
REMARK INTER:                  -8.527
REMARK INTRA:                  -1.415
REMARK UNBOUND:                -1.230
REMARK  Name = 
REMARK  9 active torsions:
REMARK  status: ('A' for Active; 'I' for Inactive)
REMARK    1  A    between atoms: C_1  and  O_2
REMARK    2  A    between atoms: O_2  and  C_3
REMARK    3  A    between atoms: C_6  and  O_7
REMARK    4  A    between atoms: O_7  and  C_8
REMARK    5  A    between atoms: C_8  and  C_9
REMARK    6  A    between atoms: C_9  and  C_10
REMARK    7  A    between atoms: C_14  and  C_15
REMARK    8  A    between atoms: C_15  and  N_16
REMARK    9  A    between atoms: C_19  and  C_20
REMARK                            x       y       z     vdW  Elec       q    Type
REMARK                         _______ _______ _______ _____ _____    ______ ____
ROOT
ATOM      1  C   UNL     1      44.977   5.826  12.798  0.00  0.00    +0.000 A 
ATOM      2  C   UNL     1      45.022   7.212  12.611  0.00  0.00    +0.000 A 
ATOM      3  C   UNL     1      46.202   7.930  12.816  0.00  0.00    +0.000 A 
ATOM      4  C   UNL     1      47.366   7.281  13.226  0.00  0.00    +0.000 A 
ATOM      5  C   UNL     1      47.333   5.896  13.399  0.00  0.00    +0.000 A 
ATOM      6  C   UNL     1      46.158   5.153  13.173  0.00  0.00    +0.000 A 
ENDROOT
BRANCH   6   7
ATOM      7  C   UNL     1      46.264   3.664  13.327  0.00  0.00    +0.000 C 
ATOM      8  N   UNL     1      45.495   2.871  12.526  0.00  0.00    +0.000 N 
ATOM      9  O   UNL     1      47.031   3.152  14.135  0.00  0.00    +0.000 OA
ATOM     10  H   UNL     1      44.852   3.269  11.853  0.00  0.00    +0.000 HD
ATOM     11  H   UNL     1      45.579   1.868  12.606  0.00  0.00    +0.000 HD
ENDBRANCH   6   7
BRANCH   1  13
ATOM     12  C   UNL     1      43.031   5.380  11.480  0.00  0.00    +0.000 C 
ATOM     13  O   UNL     1      43.830   5.090  12.622  0.00  0.00    +0.000 OA
ENDBRANCH   1  13
BRANCH   4  14
ATOM     14  O   UNL     1      48.566   7.895  13.470  0.00  0.00    +0.000 OA
BRANCH  14  15
ATOM     15  C   UNL     1      49.406   7.269  14.448  0.00  0.00    +0.000 C 
BRANCH  15  16
ATOM     16  C   UNL     1      49.356   8.057  15.757  0.00  0.00    +0.000 C 
BRANCH  16  17
ATOM     17  C   UNL     1      48.812   7.202  16.876  0.00  0.00    +0.000 A 
ATOM     18  C   UNL     1      48.291   7.788  18.035  0.00  0.00    +0.000 A 
ATOM     19  C   UNL     1      47.716   6.997  19.030  0.00  0.00    +0.000 A 
ATOM     20  C   UNL     1      47.631   5.612  18.865  0.00  0.00    +0.000 A 
ATOM     21  C   UNL     1      48.128   5.005  17.705  0.00  0.00    +0.000 A 
ATOM     22  C   UNL     1      48.741   5.809  16.730  0.00  0.00    +0.000 A 
BRANCH  21  23
ATOM     23  C   UNL     1      47.993   3.519  17.490  0.00  0.00    +0.000 C 
BRANCH  23  24
ATOM     24  N   UNL     1      46.589   3.125  17.396  0.00  0.00    +0.000 NA
ATOM     25  H   UNL     1      46.481   2.208  17.826  0.00  0.00    +0.000 HD
ATOM     26  H   UNL     1      46.334   3.021  16.417  0.00  0.00    +0.000 HD
ENDBRANCH  23  24
ENDBRANCH  21  23
ENDBRANCH  16  17
ENDBRANCH  15  16
ENDBRANCH  14  15
ENDBRANCH   4  14
TORSDOF 8
ENDMDL
MODEL 7
REMARK VINA RESULT:    -6.042      4.124      7.518
REMARK INTER + INTRA:          -9.921
REMARK INTER:                  -9.078
REMARK INTRA:                  -0.842
REMARK UNBOUND:                -1.230
REMARK  Name = 
REMARK  9 active torsions:
REMARK  status: ('A' for Active; 'I' for Inactive)
REMARK    1  A    between atoms: C_1  and  O_2
REMARK    2  A    between atoms: O_2  and  C_3
REMARK    3  A    between atoms: C_6  and  O_7
REMARK    4  A    between atoms: O_7  and  C_8
REMARK    5  A    between atoms: C_8  and  C_9
REMARK    6  A    between atoms: C_9  and  C_10
REMARK    7  A    between atoms: C_14  and  C_15
REMARK    8  A    between atoms: C_15  and  N_16
REMARK    9  A    between atoms: C_19  and  C_20
REMARK                            x       y       z     vdW  Elec       q    Type
REMARK                         _______ _______ _______ _____ _____    ______ ____
ROOT
ATOM      1  C   UNL     1      45.911   6.812  12.509  0.00  0.00    +0.000 A 
ATOM      2  C   UNL     1      47.195   6.896  13.057  0.00  0.00    +0.000 A 
ATOM      3  C   UNL     1      47.688   5.896  13.897  0.00  0.00    +0.000 A 
ATOM      4  C   UNL     1      46.903   4.791  14.223  0.00  0.00    +0.000 A 
ATOM      5  C   UNL     1      45.625   4.692  13.667  0.00  0.00    +0.000 A 
ATOM      6  C   UNL     1      45.122   5.679  12.798  0.00  0.00    +0.000 A 
ENDROOT
BRANCH   6   7
ATOM      7  C   UNL     1      43.764   5.429  12.212  0.00  0.00    +0.000 C 
ATOM      8  N   UNL     1      43.603   5.557  10.863  0.00  0.00    +0.000 N 
ATOM      9  O   UNL     1      42.811   5.099  12.910  0.00  0.00    +0.000 OA
ATOM     10  H   UNL     1      44.374   5.832  10.265  0.00  0.00    +0.000 HD
ATOM     11  H   UNL     1      42.699   5.366  10.458  0.00  0.00    +0.000 HD
ENDBRANCH   6   7
BRANCH   1  13
ATOM     12  C   UNL     1      45.364   9.119  12.189  0.00  0.00    +0.000 C 
ATOM     13  O   UNL     1      45.387   7.785  11.691  0.00  0.00    +0.000 OA
ENDBRANCH   1  13
BRANCH   4  14
ATOM     14  O   UNL     1      47.286   3.768  15.049  0.00  0.00    +0.000 OA
BRANCH  14  15
ATOM     15  C   UNL     1      47.023   3.955  16.445  0.00  0.00    +0.000 C 
BRANCH  15  16
ATOM     16  C   UNL     1      47.768   2.897  17.261  0.00  0.00    +0.000 C 
BRANCH  16  17
ATOM     17  C   UNL     1      49.237   3.230  17.355  0.00  0.00    +0.000 A 
ATOM     18  C   UNL     1      49.660   4.556  17.509  0.00  0.00    +0.000 A 
ATOM     19  C   UNL     1      51.014   4.850  17.677  0.00  0.00    +0.000 A 
ATOM     20  C   UNL     1      51.957   3.820  17.721  0.00  0.00    +0.000 A 
ATOM     21  C   UNL     1      51.555   2.485  17.589  0.00  0.00    +0.000 A 
ATOM     22  C   UNL     1      50.194   2.206  17.379  0.00  0.00    +0.000 A 
BRANCH  21  23
ATOM     23  C   UNL     1      52.554   1.361  17.689  0.00  0.00    +0.000 C 
BRANCH  23  24
ATOM     24  N   UNL     1      51.930   0.146  18.210  0.00  0.00    +0.000 NA
ATOM     25  H   UNL     1      51.816   0.247  19.217  0.00  0.00    +0.000 HD
ATOM     26  H   UNL     1      52.558  -0.642  18.065  0.00  0.00    +0.000 HD
ENDBRANCH  23  24
ENDBRANCH  21  23
ENDBRANCH  16  17
ENDBRANCH  15  16
ENDBRANCH  14  15
ENDBRANCH   4  14
TORSDOF 8
ENDMDL
MODEL 8
REMARK VINA RESULT:    -5.989      3.550      7.709
REMARK INTER + INTRA:          -9.845
REMARK INTER:                  -9.113
REMARK INTRA:                  -0.732
REMARK UNBOUND:                -1.230
REMARK  Name = 
REMARK  9 active torsions:
REMARK  status: ('A' for Active; 'I' for Inactive)
REMARK    1  A    between atoms: C_1  and  O_2
REMARK    2  A    between atoms: O_2  and  C_3
REMARK    3  A    between atoms: C_6  and  O_7
REMARK    4  A    between atoms: O_7  and  C_8
REMARK    5  A    between atoms: C_8  and  C_9
REMARK    6  A    between atoms: C_9  and  C_10
REMARK    7  A    between atoms: C_14  and  C_15
REMARK    8  A    between atoms: C_15  and  N_16
REMARK    9  A    between atoms: C_19  and  C_20
REMARK                            x       y       z     vdW  Elec       q    Type
REMARK                         _______ _______ _______ _____ _____    ______ ____
ROOT
ATOM      1  C   UNL     1      44.825   4.612  11.569  0.00  0.00    +0.000 A 
ATOM      2  C   UNL     1      45.124   3.334  12.054  0.00  0.00    +0.000 A 
ATOM      3  C   UNL     1      46.056   3.152  13.078  0.00  0.00    +0.000 A 
ATOM      4  C   UNL     1      46.723   4.242  13.634  0.00  0.00    +0.000 A 
ATOM      5  C   UNL     1      46.418   5.522  13.166  0.00  0.00    +0.000 A 
ATOM      6  C   UNL     1      45.463   5.727  12.152  0.00  0.00    +0.000 A 
ENDROOT
BRANCH   6   7
ATOM      7  C   UNL     1      45.172   7.151  11.781  0.00  0.00    +0.000 C 
ATOM      8  N   UNL     1      43.898   7.483  11.421  0.00  0.00    +0.000 N 
ATOM      9  O   UNL     1      46.041   8.016  11.811  0.00  0.00    +0.000 OA
ATOM     10  H   UNL     1      43.164   6.786  11.385  0.00  0.00    +0.000 HD
ATOM     11  H   UNL     1      43.689   8.444  11.194  0.00  0.00    +0.000 HD
ENDBRANCH   6   7
BRANCH   1  13
ATOM     12  C   UNL     1      44.263   4.333   9.260  0.00  0.00    +0.000 C 
ATOM     13  O   UNL     1      43.926   4.829  10.552  0.00  0.00    +0.000 OA
ENDBRANCH   1  13
BRANCH   4  14
ATOM     14  O   UNL     1      47.664   4.167  14.627  0.00  0.00    +0.000 OA
BRANCH  14  15
ATOM     15  C   UNL     1      47.172   4.259  15.970  0.00  0.00    +0.000 C 
BRANCH  15  16
ATOM     16  C   UNL     1      47.763   3.134  16.819  0.00  0.00    +0.000 C 
BRANCH  16  17
ATOM     17  C   UNL     1      49.218   3.400  17.122  0.00  0.00    +0.000 A 
ATOM     18  C   UNL     1      49.661   4.694  17.416  0.00  0.00    +0.000 A 
ATOM     19  C   UNL     1      50.991   4.921  17.776  0.00  0.00    +0.000 A 
ATOM     20  C   UNL     1      51.886   3.853  17.870  0.00  0.00    +0.000 A 
ATOM     21  C   UNL     1      51.460   2.547  17.599  0.00  0.00    +0.000 A 
ATOM     22  C   UNL     1      50.130   2.337  17.199  0.00  0.00    +0.000 A 
BRANCH  21  23
ATOM     23  C   UNL     1      52.400   1.378  17.750  0.00  0.00    +0.000 C 
BRANCH  23  24
ATOM     24  N   UNL     1      51.680   0.170  18.147  0.00  0.00    +0.000 NA
ATOM     25  H   UNL     1      51.938  -0.062  19.104  0.00  0.00    +0.000 HD
ATOM     26  H   UNL     1      51.984  -0.609  17.566  0.00  0.00    +0.000 HD
ENDBRANCH  23  24
ENDBRANCH  21  23
ENDBRANCH  16  17
ENDBRANCH  15  16
ENDBRANCH  14  15
ENDBRANCH   4  14
TORSDOF 8
ENDMDL
MODEL 9
REMARK VINA RESULT:    -5.854      2.141      3.352
REMARK INTER + INTRA:          -9.651
REMARK INTER:                  -8.780
REMARK INTRA:                  -0.871
REMARK UNBOUND:                -1.230
REMARK  Name = 
REMARK  9 active torsions:
REMARK  status: ('A' for Active; 'I' for Inactive)
REMARK    1  A    between atoms: C_1  and  O_2
REMARK    2  A    between atoms: O_2  and  C_3
REMARK    3  A    between atoms: C_6  and  O_7
REMARK    4  A    between atoms: O_7  and  C_8
REMARK    5  A    between atoms: C_8  and  C_9
REMARK    6  A    between atoms: C_9  and  C_10
REMARK    7  A    between atoms: C_14  and  C_15
REMARK    8  A    between atoms: C_15  and  N_16
REMARK    9  A    between atoms: C_19  and  C_20
REMARK                            x       y       z     vdW  Elec       q    Type
REMARK                         _______ _______ _______ _____ _____    ______ ____
ROOT
ATOM      1  C   UNL     1      48.897   5.801  16.338  0.00  0.00    +0.000 A 
ATOM      2  C   UNL     1      49.166   6.889  15.500  0.00  0.00    +0.000 A 
ATOM      3  C   UNL     1      48.514   7.035  14.274  0.00  0.00    +0.000 A 
ATOM      4  C   UNL     1      47.583   6.088  13.848  0.00  0.00    +0.000 A 
ATOM      5  C   UNL     1      47.297   5.008  14.685  0.00  0.00    +0.000 A 
ATOM      6  C   UNL     1      47.927   4.859  15.936  0.00  0.00    +0.000 A 
ENDROOT
BRANCH   6   7
ATOM      7  C   UNL     1      47.488   3.695  16.775  0.00  0.00    +0.000 C 
ATOM      8  N   UNL     1      48.443   2.870  17.294  0.00  0.00    +0.000 N 
ATOM      9  O   UNL     1      46.305   3.484  17.016  0.00  0.00    +0.000 OA
ATOM     10  H   UNL     1      49.427   3.022  17.107  0.00  0.00    +0.000 HD
ATOM     11  H   UNL     1      48.158   2.100  17.880  0.00  0.00    +0.000 HD
ENDBRANCH   6   7
BRANCH   1  13
ATOM     12  C   UNL     1      50.946   5.454  17.523  0.00  0.00    +0.000 C 
ATOM     13  O   UNL     1      49.531   5.617  17.543  0.00  0.00    +0.000 OA
ENDBRANCH   1  13
BRANCH   4  14
ATOM     14  O   UNL     1      46.904   6.131  12.659  0.00  0.00    +0.000 OA
BRANCH  14  15
ATOM     15  C   UNL     1      45.476   6.189  12.751  0.00  0.00    +0.000 C 
BRANCH  15  16
ATOM     16  C   UNL     1      44.868   6.294  11.352  0.00  0.00    +0.000 C 
BRANCH  16  17
ATOM     17  C   UNL     1      44.820   4.941  10.686  0.00  0.00    +0.000 A 
ATOM     18  C   UNL     1      44.163   3.866  11.297  0.00  0.00    +0.000 A 
ATOM     19  C   UNL     1      44.052   2.640  10.640  0.00  0.00    +0.000 A 
ATOM     20  C   UNL     1      44.574   2.481   9.355  0.00  0.00    +0.000 A 
ATOM     21  C   UNL     1      45.219   3.548   8.716  0.00  0.00    +0.000 A 
ATOM     22  C   UNL     1      45.360   4.764   9.404  0.00  0.00    +0.000 A 
BRANCH  21  23
ATOM     23  C   UNL     1      45.739   3.407   7.308  0.00  0.00    +0.000 C 
BRANCH  23  24
ATOM     24  N   UNL     1      46.915   4.248   7.093  0.00  0.00    +0.000 NA
ATOM     25  H   UNL     1      47.690   3.864   7.631  0.00  0.00    +0.000 HD
ATOM     26  H   UNL     1      46.735   5.179   7.464  0.00  0.00    +0.000 HD
ENDBRANCH  23  24
ENDBRANCH  21  23
ENDBRANCH  16  17
ENDBRANCH  15  16
ENDBRANCH  14  15
ENDBRANCH   4  14
TORSDOF 8
ENDMDL
