MODEL 1
REMARK VINA RESULT:    -8.131      0.000      0.000
REMARK INTER + INTRA:         -12.590
REMARK INTER:                 -11.696
REMARK INTRA:                  -0.894
REMARK UNBOUND:                -0.894
REMARK  Name = 
REMARK  8 active torsions:
REMARK  status: ('A' for Active; 'I' for Inactive)
REMARK    1  A    between atoms: N_1  and  C_2
REMARK    2  A    between atoms: C_7  and  C_8
REMARK    3  A    between atoms: N_10  and  C_11
REMARK    4  A    between atoms: C_11  and  C_12
REMARK    5  A    between atoms: C_15  and  C_16
REMARK    6  A    between atoms: C_16  and  N_17
REMARK    7  A    between atoms: N_17  and  C_18
REMARK    8  A    between atoms: C_18  and  C_19
REMARK                            x       y       z     vdW  Elec       q    Type
REMARK                         _______ _______ _______ _____ _____    ______ ____
ROOT
ATOM      1  C   UNL     1      47.960   6.683  13.745  0.00  0.00    +0.000 C 
ENDROOT
BRANCH   1   2
ATOM      2  C   UNL     1      46.826   6.191  12.885  0.00  0.00    +0.000 A 
ATOM      3  C   UNL     1      46.049   5.104  13.307  0.00  0.00    +0.000 A 
ATOM      4  C   UNL     1      45.001   4.624  12.514  0.00  0.00    +0.000 A 
ATOM      5  C   UNL     1      44.711   5.214  11.274  0.00  0.00    +0.000 A 
ATOM      6  C   UNL     1      45.502   6.289  10.846  0.00  0.00    +0.000 A 
ATOM      7  C   UNL     1      46.542   6.779  11.646  0.00  0.00    +0.000 A 
BRANCH   5   8
ATOM      8  C   UNL     1      43.563   4.717  10.420  0.00  0.00    +0.000 C 
BRANCH   8   9
ATOM      9  N   UNL     1      44.055   4.200   9.147  0.00  0.00    +0.000 NA
ATOM     10  H   UNL     1      44.786   4.818   8.797  0.00  0.00    +0.000 HD
BRANCH   9  11
ATOM     11  C   UNL     1      44.596   2.849   9.263  0.00  0.00    +0.000 C 
BRANCH  11  12
ATOM     12  C   UNL     1      45.640   2.607   8.194  0.00  0.00    +0.000 A 
ATOM     13  C   UNL     1      45.939   3.579   7.229  0.00  0.00    +0.000 A 
ATOM     14  C   UNL     1      46.889   3.323   6.235  0.00  0.00    +0.000 A 
ATOM     15  C   UNL     1      47.546   2.094   6.193  0.00  0.00    +0.000 A 
ATOM     16  C   UNL     1      47.265   1.124   7.152  0.00  0.00    +0.000 A 
ATOM     17  C   UNL     1      46.326   1.382   8.150  0.00  0.00    +0.000 A 
ENDBRANCH  11  12
ENDBRANCH   9  11
ENDBRANCH   8   9
ENDBRANCH   5   8
ENDBRANCH   1   2
BRANCH   1  20
ATOM     18  C   UNL     1      48.968   6.156  15.907  0.00  0.00    +0.000 C 
ATOM     19  O   UNL     1      50.067   6.537  15.509  0.00  0.00    +0.000 OA
ATOM     20  N   UNL     1      47.855   6.183  15.098  0.00  0.00    +0.000 N 
ATOM     21  H   UNL     1      46.952   6.234  15.554  0.00  0.00    +0.000 HD
BRANCH  18  27
ATOM     22  C   UNL     1      47.632   6.075  20.808  0.00  0.00    +0.000 A 
ATOM     23  N   UNL     1      47.374   7.389  20.950  0.00  0.00    +0.000 NA
ATOM     24  C   UNL     1      47.541   8.212  19.904  0.00  0.00    +0.000 A 
ATOM     25  C   UNL     1      47.982   7.811  18.651  0.00  0.00    +0.000 A 
ATOM     26  C   UNL     1      48.314   6.447  18.465  0.00  0.00    +0.000 A 
ATOM     27  C   UNL     1      48.766   5.704  17.292  0.00  0.00    +0.000 A 
ATOM     28  C   UNL     1      48.953   4.368  17.599  0.00  0.00    +0.000 A 
ATOM     29  S   UNL     1      48.586   3.981  19.208  0.00  0.00    +0.000 S 
ATOM     30  C   UNL     1      48.134   5.604  19.574  0.00  0.00    +0.000 A 
BRANCH  22  31
ATOM     31  N   UNL     1      47.375   5.260  21.897  0.00  0.00    +0.000 N 
ATOM     32  H   UNL     1      47.838   4.363  21.826  0.00  0.00    +0.000 HD
ATOM     33  H   UNL     1      46.438   5.289  22.272  0.00  0.00    +0.000 HD
ENDBRANCH  22  31
ENDBRANCH  18  27
ENDBRANCH   1  20
TORSDOF 8
ENDMDL
MODEL 2
REMARK VINA RESULT:    -8.127      1.717      2.080
REMARK INTER + INTRA:         -12.585
REMARK INTER:                 -11.471
REMARK INTRA:                  -1.113
REMARK UNBOUND:                -0.894
REMARK  Name = 
REMARK  8 active torsions:
REMARK  status: ('A' for Active; 'I' for Inactive)
REMARK    1  A    between atoms: N_1  and  C_2
REMARK    2  A    between atoms: C_7  and  C_8
REMARK    3  A    between atoms: N_10  and  C_11
REMARK    4  A    between atoms: C_11  and  C_12
REMARK    5  A    between atoms: C_15  and  C_16
REMARK    6  A    between atoms: C_16  and  N_17
REMARK    7  A    between atoms: N_17  and  C_18
REMARK    8  A    between atoms: C_18  and  C_19
REMARK                            x       y       z     vdW  Elec       q    Type
REMARK                         _______ _______ _______ _____ _____    ______ ____
ROOT
ATOM      1  C   UNL     1      47.340   7.353  13.180  0.00  0.00    +0.000 C 
ENDROOT
BRANCH   1   2
ATOM      2  C   UNL     1      46.368   6.366  12.588  0.00  0.00    +0.000 A 
ATOM      3  C   UNL     1      45.889   5.304  13.366  0.00  0.00    +0.000 A 
ATOM      4  C   UNL     1      44.997   4.370  12.828  0.00  0.00    +0.000 A 
ATOM      5  C   UNL     1      44.570   4.470  11.495  0.00  0.00    +0.000 A 
ATOM      6  C   UNL     1      45.065   5.524  10.714  0.00  0.00    +0.000 A 
ATOM      7  C   UNL     1      45.946   6.467  11.256  0.00  0.00    +0.000 A 
BRANCH   5   8
ATOM      8  C   UNL     1      43.585   3.478  10.912  0.00  0.00    +0.000 C 
BRANCH   8   9
ATOM      9  N   UNL     1      43.915   3.183   9.521  0.00  0.00    +0.000 NA
ATOM     10  H   UNL     1      44.404   3.981   9.118  0.00  0.00    +0.000 HD
BRANCH   9  11
ATOM     11  C   UNL     1      44.758   1.998   9.385  0.00  0.00    +0.000 C 
BRANCH  11  12
ATOM     12  C   UNL     1      45.764   2.193   8.271  0.00  0.00    +0.000 A 
ATOM     13  C   UNL     1      45.891   3.422   7.606  0.00  0.00    +0.000 A 
ATOM     14  C   UNL     1      46.809   3.570   6.561  0.00  0.00    +0.000 A 
ATOM     15  C   UNL     1      47.604   2.495   6.168  0.00  0.00    +0.000 A 
ATOM     16  C   UNL     1      47.494   1.273   6.827  0.00  0.00    +0.000 A 
ATOM     17  C   UNL     1      46.587   1.126   7.876  0.00  0.00    +0.000 A 
ENDBRANCH  11  12
ENDBRANCH   9  11
ENDBRANCH   8   9
ENDBRANCH   5   8
ENDBRANCH   1   2
BRANCH   1  20
ATOM     18  C   UNL     1      49.043   6.911  14.874  0.00  0.00    +0.000 C 
ATOM     19  O   UNL     1      49.937   7.139  14.061  0.00  0.00    +0.000 OA
ATOM     20  N   UNL     1      47.714   6.985  14.528  0.00  0.00    +0.000 N 
ATOM     21  H   UNL     1      47.051   7.170  15.271  0.00  0.00    +0.000 HD
BRANCH  18  27
ATOM     22  C   UNL     1      49.329   4.476  19.324  0.00  0.00    +0.000 A 
ATOM     23  N   UNL     1      48.468   3.480  19.044  0.00  0.00    +0.000 NA
ATOM     24  C   UNL     1      47.864   3.446  17.847  0.00  0.00    +0.000 A 
ATOM     25  C   UNL     1      48.051   4.387  16.845  0.00  0.00    +0.000 A 
ATOM     26  C   UNL     1      48.910   5.481  17.108  0.00  0.00    +0.000 A 
ATOM     27  C   UNL     1      49.342   6.604  16.281  0.00  0.00    +0.000 A 
ATOM     28  C   UNL     1      50.209   7.425  16.980  0.00  0.00    +0.000 A 
ATOM     29  S   UNL     1      50.534   6.888  18.555  0.00  0.00    +0.000 S 
ATOM     30  C   UNL     1      49.530   5.498  18.369  0.00  0.00    +0.000 A 
BRANCH  22  31
ATOM     31  N   UNL     1      49.979   4.425  20.545  0.00  0.00    +0.000 N 
ATOM     32  H   UNL     1      50.736   3.755  20.553  0.00  0.00    +0.000 HD
ATOM     33  H   UNL     1      49.399   4.504  21.368  0.00  0.00    +0.000 HD
ENDBRANCH  22  31
ENDBRANCH  18  27
ENDBRANCH   1  20
TORSDOF 8
ENDMDL
MODEL 3
REMARK VINA RESULT:    -7.765      1.229      2.146
REMARK INTER + INTRA:         -12.063
REMARK INTER:                 -11.026
REMARK INTRA:                  -1.037
REMARK UNBOUND:                -0.894
REMARK  Name = 
REMARK  8 active torsions:
REMARK  status: ('A' for Active; 'I' for Inactive)
REMARK    1  A    between atoms: N_1  and  C_2
REMARK    2  A    between atoms: C_7  and  C_8
REMARK    3  A    between atoms: N_10  and  C_11
REMARK    4  A    between atoms: C_11  and  C_12
REMARK    5  A    between atoms: C_15  and  C_16
REMARK    6  A    between atoms: C_16  and  N_17
REMARK    7  A    between atoms: N_17  and  C_18
REMARK    8  A    between atoms: C_18  and  C_19
REMARK                            x       y       z     vdW  Elec       q    Type
REMARK                         _______ _______ _______ _____ _____    ______ ____
ROOT
ATOM      1  C   UNL     1      48.180   6.569  13.411  0.00  0.00    +0.000 C 
ENDROOT
BRANCH   1   2
ATOM      2  C   UNL     1      46.989   5.895  12.782  0.00  0.00    +0.000 A 
ATOM      3  C   UNL     1      46.504   6.343  11.546  0.00  0.00    +0.000 A 
ATOM      4  C   UNL     1      45.390   5.739  10.954  0.00  0.00    +0.000 A 
ATOM      5  C   UNL     1      44.727   4.678  11.589  0.00  0.00    +0.000 A 
ATOM      6  C   UNL     1      45.204   4.243  12.834  0.00  0.00    +0.000 A 
ATOM      7  C   UNL     1      46.327   4.838  13.420  0.00  0.00    +0.000 A 
BRANCH   5   8
ATOM      8  C   UNL     1      43.535   4.001  10.945  0.00  0.00    +0.000 C 
BRANCH   8   9
ATOM      9  N   UNL     1      43.836   3.634   9.565  0.00  0.00    +0.000 NA
ATOM     10  H   UNL     1      44.441   4.344   9.156  0.00  0.00    +0.000 HD
BRANCH   9  11
ATOM     11  C   UNL     1      44.497   2.336   9.461  0.00  0.00    +0.000 C 
BRANCH  11  12
ATOM     12  C   UNL     1      45.580   2.380   8.405  0.00  0.00    +0.000 A 
ATOM     13  C   UNL     1      46.353   1.250   8.100  0.00  0.00    +0.000 A 
ATOM     14  C   UNL     1      47.367   1.323   7.139  0.00  0.00    +0.000 A 
ATOM     15  C   UNL     1      47.620   2.523   6.476  0.00  0.00    +0.000 A 
ATOM     16  C   UNL     1      46.852   3.649   6.762  0.00  0.00    +0.000 A 
ATOM     17  C   UNL     1      45.835   3.576   7.713  0.00  0.00    +0.000 A 
ENDBRANCH  11  12
ENDBRANCH   9  11
ENDBRANCH   8   9
ENDBRANCH   5   8
ENDBRANCH   1   2
BRANCH   1  20
ATOM     18  C   UNL     1      48.980   6.837  15.704  0.00  0.00    +0.000 C 
ATOM     19  O   UNL     1      50.121   6.530  15.361  0.00  0.00    +0.000 OA
ATOM     20  N   UNL     1      47.941   6.879  14.803  0.00  0.00    +0.000 N 
ATOM     21  H   UNL     1      47.158   7.481  15.027  0.00  0.00    +0.000 HD
BRANCH  18  27
ATOM     22  C   UNL     1      48.410   6.701  20.750  0.00  0.00    +0.000 A 
ATOM     23  N   UNL     1      48.546   5.371  20.914  0.00  0.00    +0.000 NA
ATOM     24  C   UNL     1      48.745   4.591  19.843  0.00  0.00    +0.000 A 
ATOM     25  C   UNL     1      48.815   5.051  18.536  0.00  0.00    +0.000 A 
ATOM     26  C   UNL     1      48.630   6.436  18.305  0.00  0.00    +0.000 A 
ATOM     27  C   UNL     1      48.673   7.237  17.085  0.00  0.00    +0.000 A 
ATOM     28  C   UNL     1      48.438   8.571  17.364  0.00  0.00    +0.000 A 
ATOM     29  S   UNL     1      48.198   8.890  19.012  0.00  0.00    +0.000 S 
ATOM     30  C   UNL     1      48.419   7.235  19.442  0.00  0.00    +0.000 A 
BRANCH  22  31
ATOM     31  N   UNL     1      48.278   7.469  21.894  0.00  0.00    +0.000 N 
ATOM     32  H   UNL     1      48.815   7.104  22.669  0.00  0.00    +0.000 HD
ATOM     33  H   UNL     1      47.360   7.846  22.081  0.00  0.00    +0.000 HD
ENDBRANCH  22  31
ENDBRANCH  18  27
ENDBRANCH   1  20
TORSDOF 8
ENDMDL
MODEL 4
REMARK VINA RESULT:    -7.626      1.353      2.192
REMARK INTER + INTRA:         -11.863
REMARK INTER:                 -10.923
REMARK INTRA:                  -0.940
REMARK UNBOUND:                -0.894
REMARK  Name = 
REMARK  8 active torsions:
REMARK  status: ('A' for Active; 'I' for Inactive)
REMARK    1  A    between atoms: N_1  and  C_2
REMARK    2  A    between atoms: C_7  and  C_8
REMARK    3  A    between atoms: N_10  and  C_11
REMARK    4  A    between atoms: C_11  and  C_12
REMARK    5  A    between atoms: C_15  and  C_16
REMARK    6  A    between atoms: C_16  and  N_17
REMARK    7  A    between atoms: N_17  and  C_18
REMARK    8  A    between atoms: C_18  and  C_19
REMARK                            x       y       z     vdW  Elec       q    Type
REMARK                         _______ _______ _______ _____ _____    ______ ____
ROOT
ATOM      1  C   UNL     1      48.322   6.705  13.765  0.00  0.00    +0.000 C 
ENDROOT
BRANCH   1   2
ATOM      2  C   UNL     1      47.120   6.138  13.058  0.00  0.00    +0.000 A 
ATOM      3  C   UNL     1      46.820   6.544  11.751  0.00  0.00    +0.000 A 
ATOM      4  C   UNL     1      45.699   6.038  11.085  0.00  0.00    +0.000 A 
ATOM      5  C   UNL     1      44.844   5.120  11.713  0.00  0.00    +0.000 A 
ATOM      6  C   UNL     1      45.136   4.729  13.028  0.00  0.00    +0.000 A 
ATOM      7  C   UNL     1      46.265   5.224  13.690  0.00  0.00    +0.000 A 
BRANCH   5   8
ATOM      8  C   UNL     1      43.642   4.548  10.991  0.00  0.00    +0.000 C 
BRANCH   8   9
ATOM      9  N   UNL     1      44.014   4.087   9.658  0.00  0.00    +0.000 NA
ATOM     10  H   UNL     1      44.684   4.740   9.254  0.00  0.00    +0.000 HD
BRANCH   9  11
ATOM     11  C   UNL     1      44.610   2.753   9.673  0.00  0.00    +0.000 C 
BRANCH  11  12
ATOM     12  C   UNL     1      45.582   2.598   8.523  0.00  0.00    +0.000 A 
ATOM     13  C   UNL     1      46.190   1.367   8.238  0.00  0.00    +0.000 A 
ATOM     14  C   UNL     1      47.106   1.254   7.187  0.00  0.00    +0.000 A 
ATOM     15  C   UNL     1      47.425   2.369   6.414  0.00  0.00    +0.000 A 
ATOM     16  C   UNL     1      46.821   3.595   6.680  0.00  0.00    +0.000 A 
ATOM     17  C   UNL     1      45.900   3.707   7.721  0.00  0.00    +0.000 A 
ENDBRANCH  11  12
ENDBRANCH   9  11
ENDBRANCH   8   9
ENDBRANCH   5   8
ENDBRANCH   1   2
BRANCH   1  20
ATOM     18  C   UNL     1      48.826   6.620  16.154  0.00  0.00    +0.000 C 
ATOM     19  O   UNL     1      49.812   5.916  15.940  0.00  0.00    +0.000 OA
ATOM     20  N   UNL     1      48.015   7.059  15.134  0.00  0.00    +0.000 N 
ATOM     21  H   UNL     1      47.483   7.906  15.296  0.00  0.00    +0.000 HD
BRANCH  18  27
ATOM     22  C   UNL     1      47.333   9.569  20.012  0.00  0.00    +0.000 A 
ATOM     23  N   UNL     1      47.335  10.745  19.356  0.00  0.00    +0.000 NA
ATOM     24  C   UNL     1      47.697  10.781  18.065  0.00  0.00    +0.000 A 
ATOM     25  C   UNL     1      48.094   9.673  17.329  0.00  0.00    +0.000 A 
ATOM     26  C   UNL     1      48.155   8.421  17.987  0.00  0.00    +0.000 A 
ATOM     27  C   UNL     1      48.491   7.082  17.509  0.00  0.00    +0.000 A 
ATOM     28  C   UNL     1      48.400   6.158  18.534  0.00  0.00    +0.000 A 
ATOM     29  S   UNL     1      47.908   6.826  20.012  0.00  0.00    +0.000 S 
ATOM     30  C   UNL     1      47.774   8.408  19.339  0.00  0.00    +0.000 A 
BRANCH  22  31
ATOM     31  N   UNL     1      46.882   9.577  21.321  0.00  0.00    +0.000 N 
ATOM     32  H   UNL     1      47.007  10.476  21.767  0.00  0.00    +0.000 HD
ATOM     33  H   UNL     1      47.056   8.744  21.863  0.00  0.00    +0.000 HD
ENDBRANCH  22  31
ENDBRANCH  18  27
ENDBRANCH   1  20
TORSDOF 8
ENDMDL
MODEL 5
REMARK VINA RESULT:    -7.400      2.901      4.686
REMARK INTER + INTRA:         -11.538
REMARK INTER:                 -10.888
REMARK INTRA:                  -0.650
REMARK UNBOUND:                -0.894
REMARK  Name = 
REMARK  8 active torsions:
REMARK  status: ('A' for Active; 'I' for Inactive)
REMARK    1  A    between atoms: N_1  and  C_2
REMARK    2  A    between atoms: C_7  and  C_8
REMARK    3  A    between atoms: N_10  and  C_11
REMARK    4  A    between atoms: C_11  and  C_12
REMARK    5  A    between atoms: C_15  and  C_16
REMARK    6  A    between atoms: C_16  and  N_17
REMARK    7  A    between atoms: N_17  and  C_18
REMARK    8  A    between atoms: C_18  and  C_19
REMARK                            x       y       z     vdW  Elec       q    Type
REMARK                         _______ _______ _______ _____ _____    ______ ____
ROOT
ATOM      1  C   UNL     1      44.057   4.183  11.813  0.00  0.00    +0.000 C 
ENDROOT
BRANCH   1   2
ATOM      2  C   UNL     1      44.651   3.899  10.459  0.00  0.00    +0.000 A 
ATOM      3  C   UNL     1      45.325   4.912   9.764  0.00  0.00    +0.000 A 
ATOM      4  C   UNL     1      45.870   4.670   8.499  0.00  0.00    +0.000 A 
ATOM      5  C   UNL     1      45.746   3.410   7.893  0.00  0.00    +0.000 A 
ATOM      6  C   UNL     1      45.055   2.404   8.582  0.00  0.00    +0.000 A 
ATOM      7  C   UNL     1      44.522   2.641   9.855  0.00  0.00    +0.000 A 
BRANCH   5   8
ATOM      8  C   UNL     1      46.354   3.132   6.534  0.00  0.00    +0.000 C 
BRANCH   8   9
ATOM      9  N   UNL     1      46.879   1.771   6.474  0.00  0.00    +0.000 NA
ATOM     10  H   UNL     1      46.099   1.115   6.449  0.00  0.00    +0.000 HD
BRANCH   9  11
ATOM     11  C   UNL     1      47.720   1.546   5.301  0.00  0.00    +0.000 C 
BRANCH  11  12
ATOM     12  C   UNL     1      46.972   0.736   4.265  0.00  0.00    +0.000 A 
ATOM     13  C   UNL     1      47.080  -0.661   4.208  0.00  0.00    +0.000 A 
ATOM     14  C   UNL     1      46.400  -1.386   3.224  0.00  0.00    +0.000 A 
ATOM     15  C   UNL     1      45.609  -0.724   2.287  0.00  0.00    +0.000 A 
ATOM     16  C   UNL     1      45.485   0.662   2.338  0.00  0.00    +0.000 A 
ATOM     17  C   UNL     1      46.155   1.386   3.325  0.00  0.00    +0.000 A 
ENDBRANCH  11  12
ENDBRANCH   9  11
ENDBRANCH   8   9
ENDBRANCH   5   8
ENDBRANCH   1   2
BRANCH   1  20
ATOM     18  C   UNL     1      45.981   4.251  13.317  0.00  0.00    +0.000 C 
ATOM     19  O   UNL     1      46.116   3.032  13.229  0.00  0.00    +0.000 OA
ATOM     20  N   UNL     1      44.978   4.918  12.653  0.00  0.00    +0.000 N 
ATOM     21  H   UNL     1      45.131   5.897  12.444  0.00  0.00    +0.000 HD
BRANCH  18  27
ATOM     22  C   UNL     1      49.154   5.811  16.966  0.00  0.00    +0.000 A 
ATOM     23  N   UNL     1      48.857   4.870  17.882  0.00  0.00    +0.000 NA
ATOM     24  C   UNL     1      47.929   3.944  17.601  0.00  0.00    +0.000 A 
ATOM     25  C   UNL     1      47.218   3.878  16.410  0.00  0.00    +0.000 A 
ATOM     26  C   UNL     1      47.459   4.874  15.433  0.00  0.00    +0.000 A 
ATOM     27  C   UNL     1      46.921   5.076  14.090  0.00  0.00    +0.000 A 
ATOM     28  C   UNL     1      47.474   6.199  13.503  0.00  0.00    +0.000 A 
ATOM     29  S   UNL     1      48.613   6.988  14.479  0.00  0.00    +0.000 S 
ATOM     30  C   UNL     1      48.433   5.836  15.750  0.00  0.00    +0.000 A 
BRANCH  22  31
ATOM     31  N   UNL     1      50.169   6.699  17.278  0.00  0.00    +0.000 N 
ATOM     32  H   UNL     1      49.823   7.543  17.716  0.00  0.00    +0.000 HD
ATOM     33  H   UNL     1      50.921   6.778  16.609  0.00  0.00    +0.000 HD
ENDBRANCH  22  31
ENDBRANCH  18  27
ENDBRANCH   1  20
TORSDOF 8
ENDMDL
MODEL 6
REMARK VINA RESULT:    -7.201      2.467      3.207
REMARK INTER + INTRA:         -11.253
REMARK INTER:                 -10.111
REMARK INTRA:                  -1.142
REMARK UNBOUND:                -0.894
REMARK  Name = 
REMARK  8 active torsions:
REMARK  status: ('A' for Active; 'I' for Inactive)
REMARK    1  A    between atoms: N_1  and  C_2
REMARK    2  A    between atoms: C_7  and  C_8
REMARK    3  A    between atoms: N_10  and  C_11
REMARK    4  A    between atoms: C_11  and  C_12
REMARK    5  A    between atoms: C_15  and  C_16
REMARK    6  A    between atoms: C_16  and  N_17
REMARK    7  A    between atoms: N_17  and  C_18
REMARK    8  A    between atoms: C_18  and  C_19
REMARK                            x       y       z     vdW  Elec       q    Type
REMARK                         _______ _______ _______ _____ _____    ______ ____
ROOT
ATOM      1  C   UNL     1      49.387   8.255  12.818  0.00  0.00    +0.000 C 
ENDROOT
BRANCH   1   2
ATOM      2  C   UNL     1      48.008   7.705  12.563  0.00  0.00    +0.000 A 
ATOM      3  C   UNL     1      46.920   8.578  12.438  0.00  0.00    +0.000 A 
ATOM      4  C   UNL     1      45.630   8.085  12.215  0.00  0.00    +0.000 A 
ATOM      5  C   UNL     1      45.396   6.705  12.122  0.00  0.00    +0.000 A 
ATOM      6  C   UNL     1      46.484   5.832  12.265  0.00  0.00    +0.000 A 
ATOM      7  C   UNL     1      47.777   6.326  12.474  0.00  0.00    +0.000 A 
BRANCH   5   8
ATOM      8  C   UNL     1      44.007   6.162  11.856  0.00  0.00    +0.000 C 
BRANCH   8   9
ATOM      9  N   UNL     1      43.889   5.703  10.476  0.00  0.00    +0.000 NA
ATOM     10  H   UNL     1      44.736   5.954   9.968  0.00  0.00    +0.000 HD
BRANCH   9  11
ATOM     11  C   UNL     1      43.694   4.258  10.380  0.00  0.00    +0.000 C 
BRANCH  11  12
ATOM     12  C   UNL     1      44.694   3.656   9.417  0.00  0.00    +0.000 A 
ATOM     13  C   UNL     1      45.457   4.458   8.556  0.00  0.00    +0.000 A 
ATOM     14  C   UNL     1      46.356   3.876   7.656  0.00  0.00    +0.000 A 
ATOM     15  C   UNL     1      46.498   2.490   7.605  0.00  0.00    +0.000 A 
ATOM     16  C   UNL     1      45.754   1.683   8.461  0.00  0.00    +0.000 A 
ATOM     17  C   UNL     1      44.865   2.262   9.367  0.00  0.00    +0.000 A 
ENDBRANCH  11  12
ENDBRANCH   9  11
ENDBRANCH   8   9
ENDBRANCH   5   8
ENDBRANCH   1   2
BRANCH   1  20
ATOM     18  C   UNL     1      50.225   7.823  15.072  0.00  0.00    +0.000 C 
ATOM     19  O   UNL     1      49.719   8.867  15.480  0.00  0.00    +0.000 OA
ATOM     20  N   UNL     1      50.120   7.434  13.757  0.00  0.00    +0.000 N 
ATOM     21  H   UNL     1      50.199   6.444  13.559  0.00  0.00    +0.000 HD
BRANCH  18  27
ATOM     22  C   UNL     1      51.181   3.913  18.173  0.00  0.00    +0.000 A 
ATOM     23  N   UNL     1      49.910   3.504  18.350  0.00  0.00    +0.000 NA
ATOM     24  C   UNL     1      48.913   4.170  17.752  0.00  0.00    +0.000 A 
ATOM     25  C   UNL     1      49.084   5.289  16.948  0.00  0.00    +0.000 A 
ATOM     26  C   UNL     1      50.397   5.788  16.770  0.00  0.00    +0.000 A 
ATOM     27  C   UNL     1      50.921   6.899  15.980  0.00  0.00    +0.000 A 
ATOM     28  C   UNL     1      52.295   6.993  16.114  0.00  0.00    +0.000 A 
ATOM     29  S   UNL     1      52.964   5.800  17.115  0.00  0.00    +0.000 S 
ATOM     30  C   UNL     1      51.427   5.076  17.408  0.00  0.00    +0.000 A 
BRANCH  22  31
ATOM     31  N   UNL     1      52.178   3.148  18.754  0.00  0.00    +0.000 N 
ATOM     32  H   UNL     1      52.247   3.297  19.752  0.00  0.00    +0.000 HD
ATOM     33  H   UNL     1      53.030   3.040  18.224  0.00  0.00    +0.000 HD
ENDBRANCH  22  31
ENDBRANCH  18  27
ENDBRANCH   1  20
TORSDOF 8
ENDMDL
MODEL 7
REMARK VINA RESULT:    -6.915      2.811      3.668
REMARK INTER + INTRA:         -10.841
REMARK INTER:                  -9.839
REMARK INTRA:                  -1.002
REMARK UNBOUND:                -0.894
REMARK  Name = 
REMARK  8 active torsions:
REMARK  status: ('A' for Active; 'I' for Inactive)
REMARK    1  A    between atoms: N_1  and  C_2
REMARK    2  A    between atoms: C_7  and  C_8
REMARK    3  A    between atoms: N_10  and  C_11
REMARK    4  A    between atoms: C_11  and  C_12
REMARK    5  A    between atoms: C_15  and  C_16
REMARK    6  A    between atoms: C_16  and  N_17
REMARK    7  A    between atoms: N_17  and  C_18
REMARK    8  A    between atoms: C_18  and  C_19
REMARK                            x       y       z     vdW  Elec       q    Type
REMARK                         _______ _______ _______ _____ _____    ______ ____
ROOT
ATOM      1  C   UNL     1      45.763   8.270  12.811  0.00  0.00    +0.000 C 
ENDROOT
BRANCH   1   2
ATOM      2  C   UNL     1      45.304   6.917  12.336  0.00  0.00    +0.000 A 
ATOM      3  C   UNL     1      44.768   6.000  13.250  0.00  0.00    +0.000 A 
ATOM      4  C   UNL     1      44.350   4.733  12.829  0.00  0.00    +0.000 A 
ATOM      5  C   UNL     1      44.468   4.348  11.484  0.00  0.00    +0.000 A 
ATOM      6  C   UNL     1      45.021   5.261  10.576  0.00  0.00    +0.000 A 
ATOM      7  C   UNL     1      45.426   6.534  10.994  0.00  0.00    +0.000 A 
BRANCH   5   8
ATOM      8  C   UNL     1      43.995   2.988  11.014  0.00  0.00    +0.000 C 
BRANCH   8   9
ATOM      9  N   UNL     1      43.913   2.946   9.558  0.00  0.00    +0.000 NA
ATOM     10  H   UNL     1      44.433   3.734   9.173  0.00  0.00    +0.000 HD
BRANCH   9  11
ATOM     11  C   UNL     1      44.452   1.708   9.001  0.00  0.00    +0.000 C 
BRANCH  11  12
ATOM     12  C   UNL     1      45.651   2.005   8.126  0.00  0.00    +0.000 A 
ATOM     13  C   UNL     1      46.604   1.019   7.830  0.00  0.00    +0.000 A 
ATOM     14  C   UNL     1      47.717   1.323   7.040  0.00  0.00    +0.000 A 
ATOM     15  C   UNL     1      47.891   2.613   6.542  0.00  0.00    +0.000 A 
ATOM     16  C   UNL     1      46.947   3.599   6.820  0.00  0.00    +0.000 A 
ATOM     17  C   UNL     1      45.831   3.294   7.599  0.00  0.00    +0.000 A 
ENDBRANCH  11  12
ENDBRANCH   9  11
ENDBRANCH   8   9
ENDBRANCH   5   8
ENDBRANCH   1   2
BRANCH   1  20
ATOM     18  C   UNL     1      48.193   8.348  13.043  0.00  0.00    +0.000 C 
ATOM     19  O   UNL     1      48.319   8.578  11.842  0.00  0.00    +0.000 OA
ATOM     20  N   UNL     1      46.957   8.172  13.621  0.00  0.00    +0.000 N 
ATOM     21  H   UNL     1      46.876   8.368  14.611  0.00  0.00    +0.000 HD
BRANCH  18  27
ATOM     22  C   UNL     1      51.452   6.859  16.646  0.00  0.00    +0.000 A 
ATOM     23  N   UNL     1      50.675   5.921  17.220  0.00  0.00    +0.000 NA
ATOM     24  C   UNL     1      49.441   5.704  16.744  0.00  0.00    +0.000 A 
ATOM     25  C   UNL     1      48.873   6.397  15.683  0.00  0.00    +0.000 A 
ATOM     26  C   UNL     1      49.632   7.427  15.077  0.00  0.00    +0.000 A 
ATOM     27  C   UNL     1      49.354   8.307  13.944  0.00  0.00    +0.000 A 
ATOM     28  C   UNL     1      50.418   9.159  13.713  0.00  0.00    +0.000 A 
ATOM     29  S   UNL     1      51.722   8.926  14.770  0.00  0.00    +0.000 S 
ATOM     30  C   UNL     1      50.921   7.638  15.593  0.00  0.00    +0.000 A 
BRANCH  22  31
ATOM     31  N   UNL     1      52.742   6.993  17.128  0.00  0.00    +0.000 N 
ATOM     32  H   UNL     1      53.146   6.107  17.403  0.00  0.00    +0.000 HD
ATOM     33  H   UNL     1      52.928   7.804  17.700  0.00  0.00    +0.000 HD
ENDBRANCH  22  31
ENDBRANCH  18  27
ENDBRANCH   1  20
TORSDOF 8
ENDMDL
MODEL 8
REMARK VINA RESULT:    -6.780      2.276      2.909
REMARK INTER + INTRA:         -10.647
REMARK INTER:                  -9.859
REMARK INTRA:                  -0.788
REMARK UNBOUND:                -0.894
REMARK  Name = 
REMARK  8 active torsions:
REMARK  status: ('A' for Active; 'I' for Inactive)
REMARK    1  A    between atoms: N_1  and  C_2
REMARK    2  A    between atoms: C_7  and  C_8
REMARK    3  A    between atoms: N_10  and  C_11
REMARK    4  A    between atoms: C_11  and  C_12
REMARK    5  A    between atoms: C_15  and  C_16
REMARK    6  A    between atoms: C_16  and  N_17
REMARK    7  A    between atoms: N_17  and  C_18
REMARK    8  A    between atoms: C_18  and  C_19
REMARK                            x       y       z     vdW  Elec       q    Type
REMARK                         _______ _______ _______ _____ _____    ______ ____
ROOT
ATOM      1  C   UNL     1      48.494   7.693  13.863  0.00  0.00    +0.000 C 
ENDROOT
BRANCH   1   2
ATOM      2  C   UNL     1      47.386   6.969  13.144  0.00  0.00    +0.000 A 
ATOM      3  C   UNL     1      46.703   7.601  12.097  0.00  0.00    +0.000 A 
ATOM      4  C   UNL     1      45.661   6.949  11.428  0.00  0.00    +0.000 A 
ATOM      5  C   UNL     1      45.271   5.653  11.797  0.00  0.00    +0.000 A 
ATOM      6  C   UNL     1      45.944   5.031  12.858  0.00  0.00    +0.000 A 
ATOM      7  C   UNL     1      46.996   5.677  13.518  0.00  0.00    +0.000 A 
BRANCH   5   8
ATOM      8  C   UNL     1      44.161   4.930  11.062  0.00  0.00    +0.000 C 
BRANCH   8   9
ATOM      9  N   UNL     1      44.535   4.689   9.673  0.00  0.00    +0.000 NA
ATOM     10  H   UNL     1      45.512   4.948   9.541  0.00  0.00    +0.000 HD
BRANCH   9  11
ATOM     11  C   UNL     1      44.364   3.292   9.281  0.00  0.00    +0.000 C 
BRANCH  11  12
ATOM     12  C   UNL     1      45.520   2.843   8.413  0.00  0.00    +0.000 A 
ATOM     13  C   UNL     1      46.216   3.746   7.596  0.00  0.00    +0.000 A 
ATOM     14  C   UNL     1      47.264   3.302   6.782  0.00  0.00    +0.000 A 
ATOM     15  C   UNL     1      47.625   1.956   6.776  0.00  0.00    +0.000 A 
ATOM     16  C   UNL     1      46.948   1.052   7.591  0.00  0.00    +0.000 A 
ATOM     17  C   UNL     1      45.910   1.494   8.410  0.00  0.00    +0.000 A 
ENDBRANCH  11  12
ENDBRANCH   9  11
ENDBRANCH   8   9
ENDBRANCH   5   8
ENDBRANCH   1   2
BRANCH   1  20
ATOM     18  C   UNL     1      49.009   7.277  16.215  0.00  0.00    +0.000 C 
ATOM     19  O   UNL     1      48.472   8.334  16.539  0.00  0.00    +0.000 OA
ATOM     20  N   UNL     1      49.078   6.872  14.902  0.00  0.00    +0.000 N 
ATOM     21  H   UNL     1      49.165   5.879  14.727  0.00  0.00    +0.000 HD
BRANCH  18  27
ATOM     22  C   UNL     1      52.292   4.598  19.018  0.00  0.00    +0.000 A 
ATOM     23  N   UNL     1      53.391   4.814  18.271  0.00  0.00    +0.000 NA
ATOM     24  C   UNL     1      53.297   5.555  17.157  0.00  0.00    +0.000 A 
ATOM     25  C   UNL     1      52.122   6.126  16.689  0.00  0.00    +0.000 A 
ATOM     26  C   UNL     1      50.929   5.887  17.413  0.00  0.00    +0.000 A 
ATOM     27  C   UNL     1      49.559   6.354  17.219  0.00  0.00    +0.000 A 
ATOM     28  C   UNL     1      48.726   5.856  18.204  0.00  0.00    +0.000 A 
ATOM     29  S   UNL     1      49.523   4.888  19.345  0.00  0.00    +0.000 S 
ATOM     30  C   UNL     1      51.050   5.106  18.575  0.00  0.00    +0.000 A 
BRANCH  22  31
ATOM     31  N   UNL     1      52.457   3.888  20.195  0.00  0.00    +0.000 N 
ATOM     32  H   UNL     1      53.256   4.205  20.729  0.00  0.00    +0.000 HD
ATOM     33  H   UNL     1      52.270   2.896  20.154  0.00  0.00    +0.000 HD
ENDBRANCH  22  31
ENDBRANCH  18  27
ENDBRANCH   1  20
TORSDOF 8
ENDMDL
MODEL 9
REMARK VINA RESULT:    -6.644      2.979      9.067
REMARK INTER + INTRA:         -10.451
REMARK INTER:                  -9.061
REMARK INTRA:                  -1.390
REMARK UNBOUND:                -0.894
REMARK  Name = 
REMARK  8 active torsions:
REMARK  status: ('A' for Active; 'I' for Inactive)
REMARK    1  A    between atoms: N_1  and  C_2
REMARK    2  A    between atoms: C_7  and  C_8
REMARK    3  A    between atoms: N_10  and  C_11
REMARK    4  A    between atoms: C_11  and  C_12
REMARK    5  A    between atoms: C_15  and  C_16
REMARK    6  A    between atoms: C_16  and  N_17
REMARK    7  A    between atoms: N_17  and  C_18
REMARK    8  A    between atoms: C_18  and  C_19
REMARK                            x       y       z     vdW  Elec       q    Type
REMARK                         _______ _______ _______ _____ _____    ______ ____
ROOT
ATOM      1  C   UNL     1      47.819   8.274  12.253  0.00  0.00    +0.000 C 
ENDROOT
BRANCH   1   2
ATOM      2  C   UNL     1      48.479   8.241  13.606  0.00  0.00    +0.000 A 
ATOM      3  C   UNL     1      49.580   7.404  13.827  0.00  0.00    +0.000 A 
ATOM      4  C   UNL     1      50.196   7.349  15.082  0.00  0.00    +0.000 A 
ATOM      5  C   UNL     1      49.718   8.124  16.150  0.00  0.00    +0.000 A 
ATOM      6  C   UNL     1      48.605   8.947  15.931  0.00  0.00    +0.000 A 
ATOM      7  C   UNL     1      47.997   9.012  14.672  0.00  0.00    +0.000 A 
BRANCH   5   8
ATOM      8  C   UNL     1      50.394   8.090  17.506  0.00  0.00    +0.000 C 
BRANCH   8   9
ATOM      9  N   UNL     1      49.789   7.071  18.357  0.00  0.00    +0.000 NA
ATOM     10  H   UNL     1      48.846   6.874  18.022  0.00  0.00    +0.000 HD
BRANCH   9  11
ATOM     11  C   UNL     1      50.553   5.826  18.370  0.00  0.00    +0.000 C 
BRANCH  11  12
ATOM     12  C   UNL     1      49.731   4.699  17.782  0.00  0.00    +0.000 A 
ATOM     13  C   UNL     1      50.262   3.410  17.625  0.00  0.00    +0.000 A 
ATOM     14  C   UNL     1      49.492   2.391  17.054  0.00  0.00    +0.000 A 
ATOM     15  C   UNL     1      48.189   2.650  16.632  0.00  0.00    +0.000 A 
ATOM     16  C   UNL     1      47.647   3.923  16.791  0.00  0.00    +0.000 A 
ATOM     17  C   UNL     1      48.410   4.937  17.369  0.00  0.00    +0.000 A 
ENDBRANCH  11  12
ENDBRANCH   9  11
ENDBRANCH   8   9
ENDBRANCH   5   8
ENDBRANCH   1   2
BRANCH   1  20
ATOM     18  C   UNL     1      45.847   6.833  12.231  0.00  0.00    +0.000 C 
ATOM     19  O   UNL     1      45.174   7.714  12.762  0.00  0.00    +0.000 OA
ATOM     20  N   UNL     1      47.180   7.014  11.943  0.00  0.00    +0.000 N 
ATOM     21  H   UNL     1      47.573   6.455  11.196  0.00  0.00    +0.000 HD
BRANCH  18  27
ATOM     22  C   UNL     1      44.653   2.734   9.476  0.00  0.00    +0.000 A 
ATOM     23  N   UNL     1      45.142   3.158   8.295  0.00  0.00    +0.000 NA
ATOM     24  C   UNL     1      45.703   4.372   8.210  0.00  0.00    +0.000 A 
ATOM     25  C   UNL     1      45.816   5.263   9.269  0.00  0.00    +0.000 A 
ATOM     26  C   UNL     1      45.274   4.884  10.520  0.00  0.00    +0.000 A 
ATOM     27  C   UNL     1      45.252   5.553  11.818  0.00  0.00    +0.000 A 
ATOM     28  C   UNL     1      44.606   4.775  12.762  0.00  0.00    +0.000 A 
ATOM     29  S   UNL     1      44.062   3.287  12.160  0.00  0.00    +0.000 S 
ATOM     30  C   UNL     1      44.688   3.608  10.586  0.00  0.00    +0.000 A 
BRANCH  22  31
ATOM     31  N   UNL     1      44.150   1.446   9.526  0.00  0.00    +0.000 N 
ATOM     32  H   UNL     1      44.748   0.817  10.045  0.00  0.00    +0.000 HD
ATOM     33  H   UNL     1      43.704   1.103   8.688  0.00  0.00    +0.000 HD
ENDBRANCH  22  31
ENDBRANCH  18  27
ENDBRANCH   1  20
TORSDOF 8
ENDMDL
