MODEL 1
REMARK VINA RESULT:    -8.245      0.000      0.000
REMARK INTER + INTRA:         -12.876
REMARK INTER:                 -11.860
REMARK INTRA:                  -1.017
REMARK UNBOUND:                -1.017
REMARK  Name = 
REMARK  9 active torsions:
REMARK  status: ('A' for Active; 'I' for Inactive)
REMARK    1  A    between atoms: C_1  and  C_2
REMARK    2  A    between atoms: C_6  and  C_7
REMARK    3  A    between atoms: C_7  and  C_8
REMARK    4  A    between atoms: C_8  and  N_9
REMARK    5  A    between atoms: N_9  and  C_10
REMARK    6  A    between atoms: C_13  and  C_14
REMARK    7  A    between atoms: C_14  and  N_15
REMARK    8  A    between atoms: C_16  and  C_18
REMARK    9  A    between atoms: C_25  and  O_26
REMARK                            x       y       z     vdW  Elec       q    Type
REMARK                         _______ _______ _______ _____ _____    ______ ____
ROOT
ATOM      1  C   UNL     1      44.591   6.111  11.010  0.00  0.00    +0.000 A 
ATOM      2  C   UNL     1      44.358   7.443  11.376  0.00  0.00    +0.000 A 
ATOM      3  C   UNL     1      45.227   8.136  12.223  0.00  0.00    +0.000 A 
ATOM      4  C   UNL     1      46.353   7.507  12.758  0.00  0.00    +0.000 A 
ATOM      5  C   UNL     1      46.569   6.158  12.452  0.00  0.00    +0.000 A 
ATOM      6  C   UNL     1      45.698   5.474  11.586  0.00  0.00    +0.000 A 
ENDROOT
BRANCH   1   7
ATOM      7  N   UNL     1      43.718   5.367  10.198  0.00  0.00    +0.000 N 
ATOM      8  H   UNL     1      42.814   5.243  10.649  0.00  0.00    +0.000 HD
BRANCH   7   9
ATOM      9  C   UNL     1      44.247   4.156   9.554  0.00  0.00    +0.000 C 
BRANCH   9  10
ATOM     10  C   UNL     1      45.137   4.477   8.350  0.00  0.00    +0.000 C 
BRANCH  10  16
ATOM     11  C   UNL     1      47.830   2.106   4.801  0.00  0.00    +0.000 C 
ATOM     12  C   UNL     1      47.123   2.076   6.125  0.00  0.00    +0.000 A 
ATOM     13  C   UNL     1      47.099   0.910   6.898  0.00  0.00    +0.000 A 
ATOM     14  C   UNL     1      46.444   0.896   8.129  0.00  0.00    +0.000 A 
ATOM     15  C   UNL     1      45.800   2.044   8.596  0.00  0.00    +0.000 A 
ATOM     16  C   UNL     1      45.801   3.219   7.834  0.00  0.00    +0.000 A 
ATOM     17  C   UNL     1      46.477   3.225   6.603  0.00  0.00    +0.000 A 
ENDBRANCH  10  16
ENDBRANCH   9  10
ENDBRANCH   7   9
ENDBRANCH   1   7
BRANCH   4  18
ATOM     18  C   UNL     1      47.264   8.261  13.689  0.00  0.00    +0.000 C 
BRANCH  18  19
ATOM     19  N   UNL     1      47.639   7.445  14.815  0.00  0.00    +0.000 N 
ATOM     20  C   UNL     1      48.886   6.884  14.910  0.00  0.00    +0.000 C 
ATOM     21  O   UNL     1      49.702   6.945  13.995  0.00  0.00    +0.000 OA
ATOM     22  H   UNL     1      47.067   7.520  15.648  0.00  0.00    +0.000 HD
BRANCH  20  23
ATOM     23  C   UNL     1      49.180   6.167  16.156  0.00  0.00    +0.000 A 
ATOM     24  C   UNL     1      50.254   6.559  16.943  0.00  0.00    +0.000 A 
ATOM     25  S   UNL     1      50.444   5.614  18.349  0.00  0.00    +0.000 S 
ATOM     26  C   UNL     1      49.074   4.685  17.969  0.00  0.00    +0.000 A 
ATOM     27  N   UNL     1      48.668   3.707  18.799  0.00  0.00    +0.000 NA
ATOM     28  C   UNL     1      47.576   3.077  18.361  0.00  0.00    +0.000 A 
ATOM     29  N   UNL     1      46.899   3.312  17.228  0.00  0.00    +0.000 NA
ATOM     30  C   UNL     1      47.357   4.294  16.450  0.00  0.00    +0.000 A 
ATOM     31  C   UNL     1      48.481   5.054  16.771  0.00  0.00    +0.000 A 
BRANCH  30  32
ATOM     32  O   UNL     1      46.633   4.470  15.307  0.00  0.00    +0.000 OA
ATOM     33  H   UNL     1      47.324   4.809  14.706  0.00  0.00    +0.000 HD
ENDBRANCH  30  32
ENDBRANCH  20  23
ENDBRANCH  18  19
ENDBRANCH   4  18
TORSDOF 8
ENDMDL
MODEL 2
REMARK VINA RESULT:    -8.002      2.154      2.856
REMARK INTER + INTRA:         -12.528
REMARK INTER:                 -11.430
REMARK INTRA:                  -1.098
REMARK UNBOUND:                -1.017
REMARK  Name = 
REMARK  9 active torsions:
REMARK  status: ('A' for Active; 'I' for Inactive)
REMARK    1  A    between atoms: C_1  and  C_2
REMARK    2  A    between atoms: C_6  and  C_7
REMARK    3  A    between atoms: C_7  and  C_8
REMARK    4  A    between atoms: C_8  and  N_9
REMARK    5  A    between atoms: N_9  and  C_10
REMARK    6  A    between atoms: C_13  and  C_14
REMARK    7  A    between atoms: C_14  and  N_15
REMARK    8  A    between atoms: C_16  and  C_18
REMARK    9  A    between atoms: C_25  and  O_26
REMARK                            x       y       z     vdW  Elec       q    Type
REMARK                         _______ _______ _______ _____ _____    ______ ____
ROOT
ATOM      1  C   UNL     1      44.716   5.364  12.432  0.00  0.00    +0.000 A 
ATOM      2  C   UNL     1      45.496   4.432  13.127  0.00  0.00    +0.000 A 
ATOM      3  C   UNL     1      46.692   4.794  13.753  0.00  0.00    +0.000 A 
ATOM      4  C   UNL     1      47.163   6.106  13.684  0.00  0.00    +0.000 A 
ATOM      5  C   UNL     1      46.427   7.038  12.942  0.00  0.00    +0.000 A 
ATOM      6  C   UNL     1      45.218   6.668  12.329  0.00  0.00    +0.000 A 
ENDROOT
BRANCH   1   7
ATOM      7  N   UNL     1      43.534   5.029  11.751  0.00  0.00    +0.000 N 
ATOM      8  H   UNL     1      42.946   4.419  12.314  0.00  0.00    +0.000 HD
BRANCH   7   9
ATOM      9  C   UNL     1      43.646   4.631  10.339  0.00  0.00    +0.000 C 
BRANCH   9  10
ATOM     10  C   UNL     1      44.019   3.155  10.178  0.00  0.00    +0.000 C 
BRANCH  10  16
ATOM     11  C   UNL     1      47.004   0.171   7.412  0.00  0.00    +0.000 C 
ATOM     12  C   UNL     1      46.508   1.545   7.754  0.00  0.00    +0.000 A 
ATOM     13  C   UNL     1      46.988   2.670   7.075  0.00  0.00    +0.000 A 
ATOM     14  C   UNL     1      46.515   3.941   7.397  0.00  0.00    +0.000 A 
ATOM     15  C   UNL     1      45.563   4.103   8.406  0.00  0.00    +0.000 A 
ATOM     16  C   UNL     1      45.077   2.992   9.107  0.00  0.00    +0.000 A 
ATOM     17  C   UNL     1      45.550   1.715   8.764  0.00  0.00    +0.000 A 
ENDBRANCH  10  16
ENDBRANCH   9  10
ENDBRANCH   7   9
ENDBRANCH   1   7
BRANCH   4  18
ATOM     18  C   UNL     1      48.466   6.473  14.344  0.00  0.00    +0.000 C 
BRANCH  18  19
ATOM     19  N   UNL     1      48.257   6.850  15.718  0.00  0.00    +0.000 N 
ATOM     20  C   UNL     1      48.691   6.062  16.752  0.00  0.00    +0.000 C 
ATOM     21  O   UNL     1      49.167   4.945  16.568  0.00  0.00    +0.000 OA
ATOM     22  H   UNL     1      48.033   7.822  15.900  0.00  0.00    +0.000 HD
BRANCH  20  23
ATOM     23  C   UNL     1      48.516   6.610  18.102  0.00  0.00    +0.000 A 
ATOM     24  C   UNL     1      48.281   7.966  18.273  0.00  0.00    +0.000 A 
ATOM     25  S   UNL     1      48.105   8.423  19.906  0.00  0.00    +0.000 S 
ATOM     26  C   UNL     1      48.295   6.817  20.426  0.00  0.00    +0.000 A 
ATOM     27  N   UNL     1      48.218   6.516  21.735  0.00  0.00    +0.000 NA
ATOM     28  C   UNL     1      48.383   5.213  21.977  0.00  0.00    +0.000 A 
ATOM     29  N   UNL     1      48.616   4.243  21.083  0.00  0.00    +0.000 NA
ATOM     30  C   UNL     1      48.682   4.610  19.803  0.00  0.00    +0.000 A 
ATOM     31  C   UNL     1      48.523   5.930  19.384  0.00  0.00    +0.000 A 
BRANCH  30  32
ATOM     32  O   UNL     1      48.938   3.577  18.949  0.00  0.00    +0.000 OA
ATOM     33  H   UNL     1      48.784   4.012  18.088  0.00  0.00    +0.000 HD
ENDBRANCH  30  32
ENDBRANCH  20  23
ENDBRANCH  18  19
ENDBRANCH   4  18
TORSDOF 8
ENDMDL
MODEL 3
REMARK VINA RESULT:    -7.983      2.812      5.441
REMARK INTER + INTRA:         -12.500
REMARK INTER:                 -11.821
REMARK INTRA:                  -0.679
REMARK UNBOUND:                -1.017
REMARK  Name = 
REMARK  9 active torsions:
REMARK  status: ('A' for Active; 'I' for Inactive)
REMARK    1  A    between atoms: C_1  and  C_2
REMARK    2  A    between atoms: C_6  and  C_7
REMARK    3  A    between atoms: C_7  and  C_8
REMARK    4  A    between atoms: C_8  and  N_9
REMARK    5  A    between atoms: N_9  and  C_10
REMARK    6  A    between atoms: C_13  and  C_14
REMARK    7  A    between atoms: C_14  and  N_15
REMARK    8  A    between atoms: C_16  and  C_18
REMARK    9  A    between atoms: C_25  and  O_26
REMARK                            x       y       z     vdW  Elec       q    Type
REMARK                         _______ _______ _______ _____ _____    ______ ____
ROOT
ATOM      1  C   UNL     1      46.255   2.001   7.798  0.00  0.00    +0.000 A 
ATOM      2  C   UNL     1      46.285   3.389   7.615  0.00  0.00    +0.000 A 
ATOM      3  C   UNL     1      45.490   4.250   8.377  0.00  0.00    +0.000 A 
ATOM      4  C   UNL     1      44.613   3.745   9.338  0.00  0.00    +0.000 A 
ATOM      5  C   UNL     1      44.525   2.356   9.493  0.00  0.00    +0.000 A 
ATOM      6  C   UNL     1      45.340   1.499   8.733  0.00  0.00    +0.000 A 
ENDROOT
BRANCH   1   7
ATOM      7  N   UNL     1      47.004   1.101   7.021  0.00  0.00    +0.000 N 
ATOM      8  H   UNL     1      47.496   0.432   7.608  0.00  0.00    +0.000 HD
BRANCH   7   9
ATOM      9  C   UNL     1      47.810   1.653   5.922  0.00  0.00    +0.000 C 
BRANCH   9  10
ATOM     10  C   UNL     1      46.949   2.123   4.747  0.00  0.00    +0.000 C 
BRANCH  10  16
ATOM     11  C   UNL     1      47.085  -2.828   3.780  0.00  0.00    +0.000 C 
ATOM     12  C   UNL     1      46.587  -1.456   3.433  0.00  0.00    +0.000 A 
ATOM     13  C   UNL     1      45.726  -1.259   2.349  0.00  0.00    +0.000 A 
ATOM     14  C   UNL     1      45.266   0.021   2.039  0.00  0.00    +0.000 A 
ATOM     15  C   UNL     1      45.667   1.117   2.806  0.00  0.00    +0.000 A 
ATOM     16  C   UNL     1      46.538   0.945   3.889  0.00  0.00    +0.000 A 
ATOM     17  C   UNL     1      46.983  -0.350   4.200  0.00  0.00    +0.000 A 
ENDBRANCH  10  16
ENDBRANCH   9  10
ENDBRANCH   7   9
ENDBRANCH   1   7
BRANCH   4  18
ATOM     18  C   UNL     1      43.746   4.685  10.133  0.00  0.00    +0.000 C 
BRANCH  18  19
ATOM     19  N   UNL     1      44.520   5.782  10.654  0.00  0.00    +0.000 N 
ATOM     20  C   UNL     1      44.935   5.810  11.960  0.00  0.00    +0.000 C 
ATOM     21  O   UNL     1      44.572   4.972  12.780  0.00  0.00    +0.000 OA
ATOM     22  H   UNL     1      44.976   6.385   9.979  0.00  0.00    +0.000 HD
BRANCH  20  23
ATOM     23  C   UNL     1      45.810   6.926  12.338  0.00  0.00    +0.000 A 
ATOM     24  C   UNL     1      45.534   8.207  11.880  0.00  0.00    +0.000 A 
ATOM     25  S   UNL     1      46.655   9.373  12.418  0.00  0.00    +0.000 S 
ATOM     26  C   UNL     1      47.513   8.209  13.310  0.00  0.00    +0.000 A 
ATOM     27  N   UNL     1      48.586   8.570  14.037  0.00  0.00    +0.000 NA
ATOM     28  C   UNL     1      49.143   7.542  14.682  0.00  0.00    +0.000 A 
ATOM     29  N   UNL     1      48.756   6.260  14.656  0.00  0.00    +0.000 NA
ATOM     30  C   UNL     1      47.686   5.970  13.914  0.00  0.00    +0.000 A 
ATOM     31  C   UNL     1      46.986   6.933  13.187  0.00  0.00    +0.000 A 
BRANCH  30  32
ATOM     32  O   UNL     1      47.357   4.647  13.919  0.00  0.00    +0.000 OA
ATOM     33  H   UNL     1      47.995   4.305  14.575  0.00  0.00    +0.000 HD
ENDBRANCH  30  32
ENDBRANCH  20  23
ENDBRANCH  18  19
ENDBRANCH   4  18
TORSDOF 8
ENDMDL
MODEL 4
REMARK VINA RESULT:    -7.971      1.909      3.718
REMARK INTER + INTRA:         -12.482
REMARK INTER:                 -11.232
REMARK INTRA:                  -1.250
REMARK UNBOUND:                -1.017
REMARK  Name = 
REMARK  9 active torsions:
REMARK  status: ('A' for Active; 'I' for Inactive)
REMARK    1  A    between atoms: C_1  and  C_2
REMARK    2  A    between atoms: C_6  and  C_7
REMARK    3  A    between atoms: C_7  and  C_8
REMARK    4  A    between atoms: C_8  and  N_9
REMARK    5  A    between atoms: N_9  and  C_10
REMARK    6  A    between atoms: C_13  and  C_14
REMARK    7  A    between atoms: C_14  and  N_15
REMARK    8  A    between atoms: C_16  and  C_18
REMARK    9  A    between atoms: C_25  and  O_26
REMARK                            x       y       z     vdW  Elec       q    Type
REMARK                         _______ _______ _______ _____ _____    ______ ____
ROOT
ATOM      1  C   UNL     1      44.797   4.760  11.115  0.00  0.00    +0.000 A 
ATOM      2  C   UNL     1      45.061   3.494  11.653  0.00  0.00    +0.000 A 
ATOM      3  C   UNL     1      45.754   3.336  12.856  0.00  0.00    +0.000 A 
ATOM      4  C   UNL     1      46.232   4.446  13.554  0.00  0.00    +0.000 A 
ATOM      5  C   UNL     1      46.030   5.716  13.001  0.00  0.00    +0.000 A 
ATOM      6  C   UNL     1      45.319   5.867  11.798  0.00  0.00    +0.000 A 
ENDROOT
BRANCH   1   7
ATOM      7  N   UNL     1      44.145   4.958   9.887  0.00  0.00    +0.000 N 
ATOM      8  H   UNL     1      43.140   5.055  10.016  0.00  0.00    +0.000 HD
BRANCH   7   9
ATOM      9  C   UNL     1      44.532   4.096   8.759  0.00  0.00    +0.000 C 
BRANCH   9  10
ATOM     10  C   UNL     1      45.931   4.423   8.229  0.00  0.00    +0.000 C 
BRANCH  10  16
ATOM     11  C   UNL     1      46.873  -0.503   7.668  0.00  0.00    +0.000 C 
ATOM     12  C   UNL     1      46.895   0.889   7.110  0.00  0.00    +0.000 A 
ATOM     13  C   UNL     1      47.366   1.136   5.816  0.00  0.00    +0.000 A 
ATOM     14  C   UNL     1      47.376   2.435   5.307  0.00  0.00    +0.000 A 
ATOM     15  C   UNL     1      46.923   3.500   6.088  0.00  0.00    +0.000 A 
ATOM     16  C   UNL     1      46.457   3.278   7.390  0.00  0.00    +0.000 A 
ATOM     17  C   UNL     1      46.438   1.964   7.886  0.00  0.00    +0.000 A 
ENDBRANCH  10  16
ENDBRANCH   9  10
ENDBRANCH   7   9
ENDBRANCH   1   7
BRANCH   4  18
ATOM     18  C   UNL     1      46.998   4.256  14.837  0.00  0.00    +0.000 C 
BRANCH  18  19
ATOM     19  N   UNL     1      47.617   5.487  15.254  0.00  0.00    +0.000 N 
ATOM     20  C   UNL     1      48.640   5.503  16.166  0.00  0.00    +0.000 C 
ATOM     21  O   UNL     1      49.000   4.492  16.762  0.00  0.00    +0.000 OA
ATOM     22  H   UNL     1      47.470   6.299  14.665  0.00  0.00    +0.000 HD
BRANCH  20  23
ATOM     23  C   UNL     1      49.259   6.808  16.423  0.00  0.00    +0.000 A 
ATOM     24  C   UNL     1      49.353   7.285  17.723  0.00  0.00    +0.000 A 
ATOM     25  S   UNL     1      50.099   8.814  17.830  0.00  0.00    +0.000 S 
ATOM     26  C   UNL     1      50.354   8.862  16.152  0.00  0.00    +0.000 A 
ATOM     27  N   UNL     1      50.985   9.911  15.593  0.00  0.00    +0.000 NA
ATOM     28  C   UNL     1      51.111   9.794  14.269  0.00  0.00    +0.000 A 
ATOM     29  N   UNL     1      50.678   8.788  13.496  0.00  0.00    +0.000 NA
ATOM     30  C   UNL     1      50.059   7.781  14.114  0.00  0.00    +0.000 A 
ATOM     31  C   UNL     1      49.856   7.749  15.493  0.00  0.00    +0.000 A 
BRANCH  30  32
ATOM     32  O   UNL     1      49.629   6.800  13.268  0.00  0.00    +0.000 OA
ATOM     33  H   UNL     1      48.808   6.522  13.718  0.00  0.00    +0.000 HD
ENDBRANCH  30  32
ENDBRANCH  20  23
ENDBRANCH  18  19
ENDBRANCH   4  18
TORSDOF 8
ENDMDL
MODEL 5
REMARK VINA RESULT:    -7.828      2.049      2.489
REMARK INTER + INTRA:         -12.276
REMARK INTER:                 -11.285
REMARK INTRA:                  -0.991
REMARK UNBOUND:                -1.017
REMARK  Name = 
REMARK  9 active torsions:
REMARK  status: ('A' for Active; 'I' for Inactive)
REMARK    1  A    between atoms: C_1  and  C_2
REMARK    2  A    between atoms: C_6  and  C_7
REMARK    3  A    between atoms: C_7  and  C_8
REMARK    4  A    between atoms: C_8  and  N_9
REMARK    5  A    between atoms: N_9  and  C_10
REMARK    6  A    between atoms: C_13  and  C_14
REMARK    7  A    between atoms: C_14  and  N_15
REMARK    8  A    between atoms: C_16  and  C_18
REMARK    9  A    between atoms: C_25  and  O_26
REMARK                            x       y       z     vdW  Elec       q    Type
REMARK                         _______ _______ _______ _____ _____    ______ ____
ROOT
ATOM      1  C   UNL     1      44.793   5.394  11.566  0.00  0.00    +0.000 A 
ATOM      2  C   UNL     1      45.265   4.720  12.699  0.00  0.00    +0.000 A 
ATOM      3  C   UNL     1      46.348   5.199  13.442  0.00  0.00    +0.000 A 
ATOM      4  C   UNL     1      47.016   6.363  13.058  0.00  0.00    +0.000 A 
ATOM      5  C   UNL     1      46.596   7.017  11.893  0.00  0.00    +0.000 A 
ATOM      6  C   UNL     1      45.496   6.537  11.161  0.00  0.00    +0.000 A 
ENDROOT
BRANCH   1   7
ATOM      7  N   UNL     1      43.738   4.920  10.767  0.00  0.00    +0.000 N 
ATOM      8  H   UNL     1      42.879   4.836  11.306  0.00  0.00    +0.000 HD
BRANCH   7   9
ATOM      9  C   UNL     1      44.011   3.781   9.878  0.00  0.00    +0.000 C 
BRANCH   9  10
ATOM     10  C   UNL     1      44.681   4.210   8.570  0.00  0.00    +0.000 C 
BRANCH  10  16
ATOM     11  C   UNL     1      47.754   2.412   4.993  0.00  0.00    +0.000 C 
ATOM     12  C   UNL     1      46.999   2.205   6.274  0.00  0.00    +0.000 A 
ATOM     13  C   UNL     1      47.065   0.985   6.956  0.00  0.00    +0.000 A 
ATOM     14  C   UNL     1      46.363   0.808   8.148  0.00  0.00    +0.000 A 
ATOM     15  C   UNL     1      45.584   1.844   8.666  0.00  0.00    +0.000 A 
ATOM     16  C   UNL     1      45.495   3.069   7.995  0.00  0.00    +0.000 A 
ATOM     17  C   UNL     1      46.217   3.242   6.803  0.00  0.00    +0.000 A 
ENDBRANCH  10  16
ENDBRANCH   9  10
ENDBRANCH   7   9
ENDBRANCH   1   7
BRANCH   4  18
ATOM     18  C   UNL     1      48.196   6.851  13.856  0.00  0.00    +0.000 C 
BRANCH  18  19
ATOM     19  N   UNL     1      48.083   6.453  15.236  0.00  0.00    +0.000 N 
ATOM     20  C   UNL     1      49.182   6.372  16.051  0.00  0.00    +0.000 C 
ATOM     21  O   UNL     1      50.324   6.515  15.625  0.00  0.00    +0.000 OA
ATOM     22  H   UNL     1      47.161   6.499  15.654  0.00  0.00    +0.000 HD
BRANCH  20  23
ATOM     23  C   UNL     1      48.921   6.063  17.461  0.00  0.00    +0.000 A 
ATOM     24  C   UNL     1      49.301   4.834  17.983  0.00  0.00    +0.000 A 
ATOM     25  S   UNL     1      48.918   4.651  19.634  0.00  0.00    +0.000 S 
ATOM     26  C   UNL     1      48.273   6.221  19.708  0.00  0.00    +0.000 A 
ATOM     27  N   UNL     1      47.794   6.701  20.871  0.00  0.00    +0.000 NA
ATOM     28  C   UNL     1      47.329   7.948  20.763  0.00  0.00    +0.000 A 
ATOM     29  N   UNL     1      47.291   8.710  19.661  0.00  0.00    +0.000 NA
ATOM     30  C   UNL     1      47.781   8.172  18.543  0.00  0.00    +0.000 A 
ATOM     31  C   UNL     1      48.311   6.884  18.491  0.00  0.00    +0.000 A 
BRANCH  30  32
ATOM     32  O   UNL     1      47.696   8.994  17.457  0.00  0.00    +0.000 OA
ATOM     33  H   UNL     1      48.044   8.406  16.759  0.00  0.00    +0.000 HD
ENDBRANCH  30  32
ENDBRANCH  20  23
ENDBRANCH  18  19
ENDBRANCH   4  18
TORSDOF 8
ENDMDL
MODEL 6
REMARK VINA RESULT:    -7.820      3.840      6.283
REMARK INTER + INTRA:         -12.266
REMARK INTER:                 -11.652
REMARK INTRA:                  -0.614
REMARK UNBOUND:                -1.017
REMARK  Name = 
REMARK  9 active torsions:
REMARK  status: ('A' for Active; 'I' for Inactive)
REMARK    1  A    between atoms: C_1  and  C_2
REMARK    2  A    between atoms: C_6  and  C_7
REMARK    3  A    between atoms: C_7  and  C_8
REMARK    4  A    between atoms: C_8  and  N_9
REMARK    5  A    between atoms: N_9  and  C_10
REMARK    6  A    between atoms: C_13  and  C_14
REMARK    7  A    between atoms: C_14  and  N_15
REMARK    8  A    between atoms: C_16  and  C_18
REMARK    9  A    between atoms: C_25  and  O_26
REMARK                            x       y       z     vdW  Elec       q    Type
REMARK                         _______ _______ _______ _____ _____    ______ ____
ROOT
ATOM      1  C   UNL     1      46.258   1.949   7.753  0.00  0.00    +0.000 A 
ATOM      2  C   UNL     1      46.231   3.329   7.519  0.00  0.00    +0.000 A 
ATOM      3  C   UNL     1      45.461   4.193   8.303  0.00  0.00    +0.000 A 
ATOM      4  C   UNL     1      44.667   3.698   9.339  0.00  0.00    +0.000 A 
ATOM      5  C   UNL     1      44.634   2.314   9.548  0.00  0.00    +0.000 A 
ATOM      6  C   UNL     1      45.424   1.454   8.764  0.00  0.00    +0.000 A 
ENDROOT
BRANCH   1   7
ATOM      7  N   UNL     1      46.982   1.044   6.958  0.00  0.00    +0.000 N 
ATOM      8  H   UNL     1      47.441   0.339   7.531  0.00  0.00    +0.000 HD
BRANCH   7   9
ATOM      9  C   UNL     1      47.822   1.595   5.885  0.00  0.00    +0.000 C 
BRANCH   9  10
ATOM     10  C   UNL     1      47.001   2.035   4.670  0.00  0.00    +0.000 C 
BRANCH  10  16
ATOM     11  C   UNL     1      47.063  -2.952   3.898  0.00  0.00    +0.000 C 
ATOM     12  C   UNL     1      46.590  -1.586   3.494  0.00  0.00    +0.000 A 
ATOM     13  C   UNL     1      45.738  -1.418   2.397  0.00  0.00    +0.000 A 
ATOM     14  C   UNL     1      45.301  -0.144   2.035  0.00  0.00    +0.000 A 
ATOM     15  C   UNL     1      45.716   0.975   2.761  0.00  0.00    +0.000 A 
ATOM     16  C   UNL     1      46.577   0.831   3.856  0.00  0.00    +0.000 A 
ATOM     17  C   UNL     1      46.999  -0.458   4.220  0.00  0.00    +0.000 A 
ENDBRANCH  10  16
ENDBRANCH   9  10
ENDBRANCH   7   9
ENDBRANCH   1   7
BRANCH   4  18
ATOM     18  C   UNL     1      43.825   4.641  10.157  0.00  0.00    +0.000 C 
BRANCH  18  19
ATOM     19  N   UNL     1      44.593   5.786  10.574  0.00  0.00    +0.000 N 
ATOM     20  C   UNL     1      45.167   5.850  11.817  0.00  0.00    +0.000 C 
ATOM     21  O   UNL     1      44.960   5.000  12.678  0.00  0.00    +0.000 OA
ATOM     22  H   UNL     1      44.923   6.408   9.846  0.00  0.00    +0.000 HD
BRANCH  20  23
ATOM     23  C   UNL     1      46.015   7.019  12.079  0.00  0.00    +0.000 A 
ATOM     24  C   UNL     1      47.301   6.844  12.570  0.00  0.00    +0.000 A 
ATOM     25  S   UNL     1      48.138   8.309  12.814  0.00  0.00    +0.000 S 
ATOM     26  C   UNL     1      46.823   9.213  12.232  0.00  0.00    +0.000 A 
ATOM     27  N   UNL     1      46.907  10.554  12.151  0.00  0.00    +0.000 NA
ATOM     28  C   UNL     1      45.794  11.114  11.670  0.00  0.00    +0.000 A 
ATOM     29  N   UNL     1      44.667  10.493  11.295  0.00  0.00    +0.000 NA
ATOM     30  C   UNL     1      44.651   9.164  11.403  0.00  0.00    +0.000 A 
ATOM     31  C   UNL     1      45.735   8.429  11.879  0.00  0.00    +0.000 A 
BRANCH  30  32
ATOM     32  O   UNL     1      43.470   8.597  11.021  0.00  0.00    +0.000 OA
ATOM     33  H   UNL     1      43.591   7.686  11.351  0.00  0.00    +0.000 HD
ENDBRANCH  30  32
ENDBRANCH  20  23
ENDBRANCH  18  19
ENDBRANCH   4  18
TORSDOF 8
ENDMDL
MODEL 7
REMARK VINA RESULT:    -7.762      2.273      2.872
REMARK INTER + INTRA:         -12.182
REMARK INTER:                 -10.983
REMARK INTRA:                  -1.199
REMARK UNBOUND:                -1.017
REMARK  Name = 
REMARK  9 active torsions:
REMARK  status: ('A' for Active; 'I' for Inactive)
REMARK    1  A    between atoms: C_1  and  C_2
REMARK    2  A    between atoms: C_6  and  C_7
REMARK    3  A    between atoms: C_7  and  C_8
REMARK    4  A    between atoms: C_8  and  N_9
REMARK    5  A    between atoms: N_9  and  C_10
REMARK    6  A    between atoms: C_13  and  C_14
REMARK    7  A    between atoms: C_14  and  N_15
REMARK    8  A    between atoms: C_16  and  C_18
REMARK    9  A    between atoms: C_25  and  O_26
REMARK                            x       y       z     vdW  Elec       q    Type
REMARK                         _______ _______ _______ _____ _____    ______ ____
ROOT
ATOM      1  C   UNL     1      44.976   4.878  11.343  0.00  0.00    +0.000 A 
ATOM      2  C   UNL     1      45.693   5.845  12.059  0.00  0.00    +0.000 A 
ATOM      3  C   UNL     1      46.480   5.509  13.164  0.00  0.00    +0.000 A 
ATOM      4  C   UNL     1      46.556   4.187  13.608  0.00  0.00    +0.000 A 
ATOM      5  C   UNL     1      45.799   3.217  12.942  0.00  0.00    +0.000 A 
ATOM      6  C   UNL     1      45.022   3.562  11.822  0.00  0.00    +0.000 A 
ENDROOT
BRANCH   1   7
ATOM      7  N   UNL     1      44.139   5.183  10.257  0.00  0.00    +0.000 N 
ATOM      8  H   UNL     1      43.189   5.374  10.567  0.00  0.00    +0.000 HD
BRANCH   7   9
ATOM      9  C   UNL     1      44.227   4.328   9.063  0.00  0.00    +0.000 C 
BRANCH   9  10
ATOM     10  C   UNL     1      45.534   4.535   8.293  0.00  0.00    +0.000 C 
BRANCH  10  16
ATOM     11  C   UNL     1      47.751   1.919   4.591  0.00  0.00    +0.000 C 
ATOM     12  C   UNL     1      47.127   1.954   5.955  0.00  0.00    +0.000 A 
ATOM     13  C   UNL     1      47.031   0.794   6.729  0.00  0.00    +0.000 A 
ATOM     14  C   UNL     1      46.453   0.840   7.998  0.00  0.00    +0.000 A 
ATOM     15  C   UNL     1      45.959   2.046   8.502  0.00  0.00    +0.000 A 
ATOM     16  C   UNL     1      46.034   3.218   7.739  0.00  0.00    +0.000 A 
ATOM     17  C   UNL     1      46.632   3.161   6.469  0.00  0.00    +0.000 A 
ENDBRANCH  10  16
ENDBRANCH   9  10
ENDBRANCH   7   9
ENDBRANCH   1   7
BRANCH   4  18
ATOM     18  C   UNL     1      47.390   3.847  14.816  0.00  0.00    +0.000 C 
BRANCH  18  19
ATOM     19  N   UNL     1      47.508   4.982  15.695  0.00  0.00    +0.000 N 
ATOM     20  C   UNL     1      48.492   5.052  16.646  0.00  0.00    +0.000 C 
ATOM     21  O   UNL     1      49.245   4.112  16.880  0.00  0.00    +0.000 OA
ATOM     22  H   UNL     1      47.027   5.830  15.419  0.00  0.00    +0.000 HD
BRANCH  20  23
ATOM     23  C   UNL     1      48.572   6.307  17.402  0.00  0.00    +0.000 A 
ATOM     24  C   UNL     1      48.778   7.506  16.735  0.00  0.00    +0.000 A 
ATOM     25  S   UNL     1      48.844   8.857  17.772  0.00  0.00    +0.000 S 
ATOM     26  C   UNL     1      48.559   7.885  19.136  0.00  0.00    +0.000 A 
ATOM     27  N   UNL     1      48.468   8.442  20.357  0.00  0.00    +0.000 NA
ATOM     28  C   UNL     1      48.236   7.546  21.319  0.00  0.00    +0.000 A 
ATOM     29  N   UNL     1      48.107   6.219  21.181  0.00  0.00    +0.000 NA
ATOM     30  C   UNL     1      48.210   5.732  19.944  0.00  0.00    +0.000 A 
ATOM     31  C   UNL     1      48.442   6.537  18.830  0.00  0.00    +0.000 A 
BRANCH  30  32
ATOM     32  O   UNL     1      48.086   4.375  19.876  0.00  0.00    +0.000 OA
ATOM     33  H   UNL     1      47.944   4.254  18.918  0.00  0.00    +0.000 HD
ENDBRANCH  30  32
ENDBRANCH  20  23
ENDBRANCH  18  19
ENDBRANCH   4  18
TORSDOF 8
ENDMDL
MODEL 8
REMARK VINA RESULT:    -7.711      1.277      1.766
REMARK INTER + INTRA:         -12.109
REMARK INTER:                 -11.081
REMARK INTRA:                  -1.028
REMARK UNBOUND:                -1.017
REMARK  Name = 
REMARK  9 active torsions:
REMARK  status: ('A' for Active; 'I' for Inactive)
REMARK    1  A    between atoms: C_1  and  C_2
REMARK    2  A    between atoms: C_6  and  C_7
REMARK    3  A    between atoms: C_7  and  C_8
REMARK    4  A    between atoms: C_8  and  N_9
REMARK    5  A    between atoms: N_9  and  C_10
REMARK    6  A    between atoms: C_13  and  C_14
REMARK    7  A    between atoms: C_14  and  N_15
REMARK    8  A    between atoms: C_16  and  C_18
REMARK    9  A    between atoms: C_25  and  O_26
REMARK                            x       y       z     vdW  Elec       q    Type
REMARK                         _______ _______ _______ _____ _____    ______ ____
ROOT
ATOM      1  C   UNL     1      44.600   4.880  11.876  0.00  0.00    +0.000 A 
ATOM      2  C   UNL     1      44.496   6.237  11.548  0.00  0.00    +0.000 A 
ATOM      3  C   UNL     1      45.403   7.183  12.033  0.00  0.00    +0.000 A 
ATOM      4  C   UNL     1      46.438   6.803  12.891  0.00  0.00    +0.000 A 
ATOM      5  C   UNL     1      46.521   5.461  13.278  0.00  0.00    +0.000 A 
ATOM      6  C   UNL     1      45.613   4.514  12.772  0.00  0.00    +0.000 A 
ENDROOT
BRANCH   1   7
ATOM      7  N   UNL     1      43.681   3.908  11.445  0.00  0.00    +0.000 N 
ATOM      8  H   UNL     1      43.223   3.460  12.236  0.00  0.00    +0.000 HD
BRANCH   7   9
ATOM      9  C   UNL     1      44.112   2.980  10.388  0.00  0.00    +0.000 C 
BRANCH   9  10
ATOM     10  C   UNL     1      44.395   3.695   9.065  0.00  0.00    +0.000 C 
BRANCH  10  16
ATOM     11  C   UNL     1      46.801  -0.531   7.713  0.00  0.00    +0.000 C 
ATOM     12  C   UNL     1      46.681   0.964   7.656  0.00  0.00    +0.000 A 
ATOM     13  C   UNL     1      47.581   1.728   6.906  0.00  0.00    +0.000 A 
ATOM     14  C   UNL     1      47.456   3.116   6.856  0.00  0.00    +0.000 A 
ATOM     15  C   UNL     1      46.434   3.755   7.561  0.00  0.00    +0.000 A 
ATOM     16  C   UNL     1      45.527   3.012   8.327  0.00  0.00    +0.000 A 
ATOM     17  C   UNL     1      45.655   1.614   8.358  0.00  0.00    +0.000 A 
ENDBRANCH  10  16
ENDBRANCH   9  10
ENDBRANCH   7   9
ENDBRANCH   1   7
BRANCH   4  18
ATOM     18  C   UNL     1      47.391   7.840  13.424  0.00  0.00    +0.000 C 
BRANCH  18  19
ATOM     19  N   UNL     1      47.680   7.605  14.816  0.00  0.00    +0.000 N 
ATOM     20  C   UNL     1      48.926   7.217  15.234  0.00  0.00    +0.000 C 
ATOM     21  O   UNL     1      49.822   6.933  14.445  0.00  0.00    +0.000 OA
ATOM     22  H   UNL     1      47.031   7.991  15.492  0.00  0.00    +0.000 HD
BRANCH  20  23
ATOM     23  C   UNL     1      49.120   7.118  16.685  0.00  0.00    +0.000 A 
ATOM     24  C   UNL     1      49.472   8.245  17.414  0.00  0.00    +0.000 A 
ATOM     25  S   UNL     1      49.656   7.943  19.082  0.00  0.00    +0.000 S 
ATOM     26  C   UNL     1      49.229   6.311  18.883  0.00  0.00    +0.000 A 
ATOM     27  N   UNL     1      49.165   5.494  19.950  0.00  0.00    +0.000 NA
ATOM     28  C   UNL     1      48.811   4.248  19.626  0.00  0.00    +0.000 A 
ATOM     29  N   UNL     1      48.544   3.769  18.403  0.00  0.00    +0.000 NA
ATOM     30  C   UNL     1      48.628   4.632  17.390  0.00  0.00    +0.000 A 
ATOM     31  C   UNL     1      48.976   5.971  17.562  0.00  0.00    +0.000 A 
BRANCH  30  32
ATOM     32  O   UNL     1      48.360   4.077  16.173  0.00  0.00    +0.000 OA
ATOM     33  H   UNL     1      48.305   3.132  16.414  0.00  0.00    +0.000 HD
ENDBRANCH  30  32
ENDBRANCH  20  23
ENDBRANCH  18  19
ENDBRANCH   4  18
TORSDOF 8
ENDMDL
MODEL 9
REMARK VINA RESULT:    -7.284      3.240      8.396
REMARK INTER + INTRA:         -11.494
REMARK INTER:                  -9.978
REMARK INTRA:                  -1.517
REMARK UNBOUND:                -1.017
REMARK  Name = 
REMARK  9 active torsions:
REMARK  status: ('A' for Active; 'I' for Inactive)
REMARK    1  A    between atoms: C_1  and  C_2
REMARK    2  A    between atoms: C_6  and  C_7
REMARK    3  A    between atoms: C_7  and  C_8
REMARK    4  A    between atoms: C_8  and  N_9
REMARK    5  A    between atoms: N_9  and  C_10
REMARK    6  A    between atoms: C_13  and  C_14
REMARK    7  A    between atoms: C_14  and  N_15
REMARK    8  A    between atoms: C_16  and  C_18
REMARK    9  A    between atoms: C_25  and  O_26
REMARK                            x       y       z     vdW  Elec       q    Type
REMARK                         _______ _______ _______ _____ _____    ______ ____
ROOT
ATOM      1  C   UNL     1      49.531   8.124  16.409  0.00  0.00    +0.000 A 
ATOM      2  C   UNL     1      48.397   8.860  16.044  0.00  0.00    +0.000 A 
ATOM      3  C   UNL     1      47.818   8.740  14.777  0.00  0.00    +0.000 A 
ATOM      4  C   UNL     1      48.374   7.891  13.818  0.00  0.00    +0.000 A 
ATOM      5  C   UNL     1      49.543   7.193  14.145  0.00  0.00    +0.000 A 
ATOM      6  C   UNL     1      50.109   7.309  15.426  0.00  0.00    +0.000 A 
ENDROOT
BRANCH   1   7
ATOM      7  N   UNL     1      50.168   8.251  17.655  0.00  0.00    +0.000 N 
ATOM      8  H   UNL     1      50.987   8.850  17.589  0.00  0.00    +0.000 HD
BRANCH   7   9
ATOM      9  C   UNL     1      50.372   7.029  18.448  0.00  0.00    +0.000 C 
BRANCH   9  10
ATOM     10  C   UNL     1      49.051   6.364  18.844  0.00  0.00    +0.000 C 
BRANCH  10  16
ATOM     11  C   UNL     1      50.833   1.912  17.270  0.00  0.00    +0.000 C 
ATOM     12  C   UNL     1      49.713   2.910  17.329  0.00  0.00    +0.000 A 
ATOM     13  C   UNL     1      48.487   2.648  16.709  0.00  0.00    +0.000 A 
ATOM     14  C   UNL     1      47.452   3.580  16.775  0.00  0.00    +0.000 A 
ATOM     15  C   UNL     1      47.635   4.786  17.456  0.00  0.00    +0.000 A 
ATOM     16  C   UNL     1      48.857   5.074  18.074  0.00  0.00    +0.000 A 
ATOM     17  C   UNL     1      49.887   4.122  18.013  0.00  0.00    +0.000 A 
ENDBRANCH  10  16
ENDBRANCH   9  10
ENDBRANCH   7   9
ENDBRANCH   1   7
BRANCH   4  18
ATOM     18  C   UNL     1      47.752   7.793  12.450  0.00  0.00    +0.000 C 
BRANCH  18  19
ATOM     19  N   UNL     1      46.977   6.586  12.323  0.00  0.00    +0.000 N 
ATOM     20  C   UNL     1      45.669   6.613  11.913  0.00  0.00    +0.000 C 
ATOM     21  O   UNL     1      45.057   7.663  11.749  0.00  0.00    +0.000 OA
ATOM     22  H   UNL     1      47.489   5.712  12.280  0.00  0.00    +0.000 HD
BRANCH  20  23
ATOM     23  C   UNL     1      45.025   5.309  11.718  0.00  0.00    +0.000 A 
ATOM     24  C   UNL     1      44.337   4.713  12.766  0.00  0.00    +0.000 A 
ATOM     25  S   UNL     1      43.655   3.205  12.358  0.00  0.00    +0.000 S 
ATOM     26  C   UNL     1      44.223   3.325  10.762  0.00  0.00    +0.000 A 
ATOM     27  N   UNL     1      43.948   2.355   9.871  0.00  0.00    +0.000 NA
ATOM     28  C   UNL     1      44.459   2.602   8.662  0.00  0.00    +0.000 A 
ATOM     29  N   UNL     1      45.188   3.662   8.289  0.00  0.00    +0.000 NA
ATOM     30  C   UNL     1      45.426   4.586   9.221  0.00  0.00    +0.000 A 
ATOM     31  C   UNL     1      44.954   4.480  10.529  0.00  0.00    +0.000 A 
BRANCH  30  32
ATOM     32  O   UNL     1      46.186   5.629   8.779  0.00  0.00    +0.000 OA
ATOM     33  H   UNL     1      46.732   5.801   9.570  0.00  0.00    +0.000 HD
ENDBRANCH  30  32
ENDBRANCH  20  23
ENDBRANCH  18  19
ENDBRANCH   4  18
TORSDOF 8
ENDMDL
