MODEL 1
REMARK VINA RESULT:    -8.254      0.000      0.000
REMARK INTER + INTRA:         -12.294
REMARK INTER:                 -11.149
REMARK INTRA:                  -1.145
REMARK UNBOUND:                -1.145
REMARK  Name = 
REMARK  6 active torsions:
REMARK  status: ('A' for Active; 'I' for Inactive)
REMARK    1  A    between atoms: C_2  and  C_19
REMARK    2  A    between atoms: N_3  and  C_4
REMARK    3  A    between atoms: C_4  and  C_5
REMARK    4  A    between atoms: C_8  and  C_9
REMARK    5  A    between atoms: C_9  and  C_10
REMARK    6  A    between atoms: C_10  and  C_11
REMARK                            x       y       z     vdW  Elec       q    Type
REMARK                         _______ _______ _______ _____ _____    ______ ____
ROOT
ATOM      1  O   UNL     1      49.154   6.516  13.391  0.00  0.00    +0.000 OA
ATOM      2  C   UNL     1      48.555   6.731  14.442  0.00  0.00    +0.000 C 
ATOM      3  N   UNL     1      47.335   7.363  14.466  0.00  0.00    +0.000 N 
ATOM      4  H   UNL     1      46.973   7.716  15.346  0.00  0.00    +0.000 HD
ENDROOT
BRANCH   2   5
ATOM      5  C   UNL     1      49.096   6.285  15.729  0.00  0.00    +0.000 A 
ATOM      6  C   UNL     1      50.194   6.935  16.276  0.00  0.00    +0.000 A 
ATOM      7  S   UNL     1      50.694   6.291  17.774  0.00  0.00    +0.000 S 
ATOM      8  C   UNL     1      49.428   5.155  17.769  0.00  0.00    +0.000 A 
ATOM      9  N   UNL     1      49.254   4.296  18.809  0.00  0.00    +0.000 NA
ATOM     10  C   UNL     1      48.234   3.514  18.690  0.00  0.00    +0.000 A 
ATOM     11  N   UNL     1      47.382   3.500  17.616  0.00  0.00    +0.000 N 
ATOM     12  C   UNL     1      47.544   4.319  16.524  0.00  0.00    +0.000 A 
ATOM     13  O   UNL     1      46.801   4.237  15.551  0.00  0.00    +0.000 OA
ATOM     14  C   UNL     1      48.658   5.242  16.623  0.00  0.00    +0.000 A 
ATOM     15  H   UNL     1      46.612   2.849  17.576  0.00  0.00    +0.000 HD
ENDBRANCH   2   5
BRANCH   3  16
ATOM     16  C   UNL     1      46.790   7.921  13.255  0.00  0.00    +0.000 C 
BRANCH  16  17
ATOM     17  C   UNL     1      46.094   6.887  12.412  0.00  0.00    +0.000 A 
ATOM     18  C   UNL     1      46.431   6.737  11.063  0.00  0.00    +0.000 A 
ATOM     19  C   UNL     1      45.833   5.742  10.283  0.00  0.00    +0.000 A 
ATOM     20  C   UNL     1      44.887   4.867  10.832  0.00  0.00    +0.000 A 
ATOM     21  C   UNL     1      44.506   5.063  12.169  0.00  0.00    +0.000 A 
ATOM     22  C   UNL     1      45.101   6.062  12.950  0.00  0.00    +0.000 A 
BRANCH  20  23
ATOM     23  C   UNL     1      44.229   3.765  10.022  0.00  0.00    +0.000 C 
BRANCH  23  24
ATOM     24  C   UNL     1      44.449   3.863   8.504  0.00  0.00    +0.000 C 
BRANCH  24  25
ATOM     25  C   UNL     1      45.525   2.944   7.994  0.00  0.00    +0.000 A 
ATOM     26  C   UNL     1      46.401   3.338   6.979  0.00  0.00    +0.000 A 
ATOM     27  C   UNL     1      47.356   2.441   6.507  0.00  0.00    +0.000 A 
ATOM     28  C   UNL     1      47.410   1.178   7.072  0.00  0.00    +0.000 A 
ATOM     29  N   UNL     1      46.593   0.766   8.065  0.00  0.00    +0.000 NA
ATOM     30  C   UNL     1      45.672   1.655   8.500  0.00  0.00    +0.000 A 
ENDBRANCH  24  25
ENDBRANCH  23  24
ENDBRANCH  20  23
ENDBRANCH  16  17
ENDBRANCH   3  16
TORSDOF 6
ENDMDL
MODEL 2
REMARK VINA RESULT:    -8.085      1.531      1.707
REMARK INTER + INTRA:         -12.066
REMARK INTER:                 -11.064
REMARK INTRA:                  -1.002
REMARK UNBOUND:                -1.145
REMARK  Name = 
REMARK  6 active torsions:
REMARK  status: ('A' for Active; 'I' for Inactive)
REMARK    1  A    between atoms: C_2  and  C_19
REMARK    2  A    between atoms: N_3  and  C_4
REMARK    3  A    between atoms: C_4  and  C_5
REMARK    4  A    between atoms: C_8  and  C_9
REMARK    5  A    between atoms: C_9  and  C_10
REMARK    6  A    between atoms: C_10  and  C_11
REMARK                            x       y       z     vdW  Elec       q    Type
REMARK                         _______ _______ _______ _____ _____    ______ ____
ROOT
ATOM      1  O   UNL     1      50.284   6.784  15.366  0.00  0.00    +0.000 OA
ATOM      2  C   UNL     1      49.127   6.844  15.776  0.00  0.00    +0.000 C 
ATOM      3  N   UNL     1      48.053   6.839  14.920  0.00  0.00    +0.000 N 
ATOM      4  H   UNL     1      47.136   7.105  15.268  0.00  0.00    +0.000 HD
ENDROOT
BRANCH   2   5
ATOM      5  C   UNL     1      48.833   6.885  17.211  0.00  0.00    +0.000 A 
ATOM      6  C   UNL     1      48.392   8.068  17.790  0.00  0.00    +0.000 A 
ATOM      7  S   UNL     1      48.095   7.940  19.464  0.00  0.00    +0.000 S 
ATOM      8  C   UNL     1      48.495   6.288  19.465  0.00  0.00    +0.000 A 
ATOM      9  N   UNL     1      48.413   5.547  20.603  0.00  0.00    +0.000 NA
ATOM     10  C   UNL     1      48.711   4.301  20.450  0.00  0.00    +0.000 A 
ATOM     11  N   UNL     1      49.101   3.729  19.267  0.00  0.00    +0.000 N 
ATOM     12  C   UNL     1      49.241   4.447  18.102  0.00  0.00    +0.000 A 
ATOM     13  O   UNL     1      49.653   3.919  17.075  0.00  0.00    +0.000 OA
ATOM     14  C   UNL     1      48.885   5.849  18.212  0.00  0.00    +0.000 A 
ATOM     15  H   UNL     1      49.338   2.750  19.219  0.00  0.00    +0.000 HD
ENDBRANCH   2   5
BRANCH   3  16
ATOM     16  C   UNL     1      48.265   6.905  13.497  0.00  0.00    +0.000 C 
BRANCH  16  17
ATOM     17  C   UNL     1      47.199   6.176  12.726  0.00  0.00    +0.000 A 
ATOM     18  C   UNL     1      46.792   6.645  11.473  0.00  0.00    +0.000 A 
ATOM     19  C   UNL     1      45.843   5.945  10.720  0.00  0.00    +0.000 A 
ATOM     20  C   UNL     1      45.280   4.755  11.198  0.00  0.00    +0.000 A 
ATOM     21  C   UNL     1      45.644   4.323  12.483  0.00  0.00    +0.000 A 
ATOM     22  C   UNL     1      46.591   5.026  13.239  0.00  0.00    +0.000 A 
BRANCH  20  23
ATOM     23  C   UNL     1      44.260   3.959  10.404  0.00  0.00    +0.000 C 
BRANCH  23  24
ATOM     24  C   UNL     1      44.409   4.064   8.877  0.00  0.00    +0.000 C 
BRANCH  24  25
ATOM     25  C   UNL     1      45.433   3.120   8.309  0.00  0.00    +0.000 A 
ATOM     26  C   UNL     1      46.367   3.542   7.359  0.00  0.00    +0.000 A 
ATOM     27  C   UNL     1      47.271   2.626   6.828  0.00  0.00    +0.000 A 
ATOM     28  C   UNL     1      47.217   1.315   7.271  0.00  0.00    +0.000 A 
ATOM     29  N   UNL     1      46.342   0.873   8.199  0.00  0.00    +0.000 NA
ATOM     30  C   UNL     1      45.472   1.783   8.694  0.00  0.00    +0.000 A 
ENDBRANCH  24  25
ENDBRANCH  23  24
ENDBRANCH  20  23
ENDBRANCH  16  17
ENDBRANCH   3  16
TORSDOF 6
ENDMDL
MODEL 3
REMARK VINA RESULT:    -7.595      2.031      2.261
REMARK INTER + INTRA:         -11.404
REMARK INTER:                 -10.476
REMARK INTRA:                  -0.928
REMARK UNBOUND:                -1.145
REMARK  Name = 
REMARK  6 active torsions:
REMARK  status: ('A' for Active; 'I' for Inactive)
REMARK    1  A    between atoms: C_2  and  C_19
REMARK    2  A    between atoms: N_3  and  C_4
REMARK    3  A    between atoms: C_4  and  C_5
REMARK    4  A    between atoms: C_8  and  C_9
REMARK    5  A    between atoms: C_9  and  C_10
REMARK    6  A    between atoms: C_10  and  C_11
REMARK                            x       y       z     vdW  Elec       q    Type
REMARK                         _______ _______ _______ _____ _____    ______ ____
ROOT
ATOM      1  O   UNL     1      49.479   7.874  15.502  0.00  0.00    +0.000 OA
ATOM      2  C   UNL     1      48.760   6.918  15.785  0.00  0.00    +0.000 C 
ATOM      3  N   UNL     1      47.893   6.369  14.872  0.00  0.00    +0.000 N 
ATOM      4  H   UNL     1      47.167   5.733  15.192  0.00  0.00    +0.000 HD
ENDROOT
BRANCH   2   5
ATOM      5  C   UNL     1      48.820   6.288  17.106  0.00  0.00    +0.000 A 
ATOM      6  C   UNL     1      49.354   5.013  17.237  0.00  0.00    +0.000 A 
ATOM      7  S   UNL     1      49.349   4.431  18.840  0.00  0.00    +0.000 S 
ATOM      8  C   UNL     1      48.683   5.883  19.423  0.00  0.00    +0.000 A 
ATOM      9  N   UNL     1      48.454   6.065  20.751  0.00  0.00    +0.000 NA
ATOM     10  C   UNL     1      47.980   7.226  21.056  0.00  0.00    +0.000 A 
ATOM     11  N   UNL     1      47.696   8.217  20.152  0.00  0.00    +0.000 N 
ATOM     12  C   UNL     1      47.870   8.062  18.796  0.00  0.00    +0.000 A 
ATOM     13  O   UNL     1      47.547   8.945  18.008  0.00  0.00    +0.000 OA
ATOM     14  C   UNL     1      48.434   6.784  18.403  0.00  0.00    +0.000 A 
ATOM     15  H   UNL     1      47.309   9.098  20.455  0.00  0.00    +0.000 HD
ENDBRANCH   2   5
BRANCH   3  16
ATOM     16  C   UNL     1      47.702   6.997  13.590  0.00  0.00    +0.000 C 
BRANCH  16  17
ATOM     17  C   UNL     1      46.776   6.211  12.701  0.00  0.00    +0.000 A 
ATOM     18  C   UNL     1      46.575   6.604  11.374  0.00  0.00    +0.000 A 
ATOM     19  C   UNL     1      45.762   5.850  10.521  0.00  0.00    +0.000 A 
ATOM     20  C   UNL     1      45.135   4.681  10.970  0.00  0.00    +0.000 A 
ATOM     21  C   UNL     1      45.289   4.326  12.319  0.00  0.00    +0.000 A 
ATOM     22  C   UNL     1      46.099   5.083  13.176  0.00  0.00    +0.000 A 
BRANCH  20  23
ATOM     23  C   UNL     1      44.259   3.828  10.069  0.00  0.00    +0.000 C 
BRANCH  23  24
ATOM     24  C   UNL     1      44.529   3.994   8.565  0.00  0.00    +0.000 C 
BRANCH  24  25
ATOM     25  C   UNL     1      45.586   3.061   8.040  0.00  0.00    +0.000 A 
ATOM     26  C   UNL     1      46.515   3.476   7.083  0.00  0.00    +0.000 A 
ATOM     27  C   UNL     1      47.451   2.568   6.592  0.00  0.00    +0.000 A 
ATOM     28  C   UNL     1      47.432   1.273   7.083  0.00  0.00    +0.000 A 
ATOM     29  N   UNL     1      46.562   0.839   8.019  0.00  0.00    +0.000 NA
ATOM     30  C   UNL     1      45.661   1.740   8.474  0.00  0.00    +0.000 A 
ENDBRANCH  24  25
ENDBRANCH  23  24
ENDBRANCH  20  23
ENDBRANCH  16  17
ENDBRANCH   3  16
TORSDOF 6
ENDMDL
MODEL 4
REMARK VINA RESULT:    -7.369      1.759      2.423
REMARK INTER + INTRA:         -11.099
REMARK INTER:                 -10.357
REMARK INTRA:                  -0.742
REMARK UNBOUND:                -1.145
REMARK  Name = 
REMARK  6 active torsions:
REMARK  status: ('A' for Active; 'I' for Inactive)
REMARK    1  A    between atoms: C_2  and  C_19
REMARK    2  A    between atoms: N_3  and  C_4
REMARK    3  A    between atoms: C_4  and  C_5
REMARK    4  A    between atoms: C_8  and  C_9
REMARK    5  A    between atoms: C_9  and  C_10
REMARK    6  A    between atoms: C_10  and  C_11
REMARK                            x       y       z     vdW  Elec       q    Type
REMARK                         _______ _______ _______ _____ _____    ______ ____
ROOT
ATOM      1  O   UNL     1      49.481   7.914  15.523  0.00  0.00    +0.000 OA
ATOM      2  C   UNL     1      49.009   6.793  15.696  0.00  0.00    +0.000 C 
ATOM      3  N   UNL     1      48.131   6.230  14.801  0.00  0.00    +0.000 N 
ATOM      4  H   UNL     1      47.598   5.409  15.074  0.00  0.00    +0.000 HD
ENDROOT
BRANCH   2   5
ATOM      5  C   UNL     1      49.391   5.978  16.852  0.00  0.00    +0.000 A 
ATOM      6  C   UNL     1      48.409   5.368  17.620  0.00  0.00    +0.000 A 
ATOM      7  S   UNL     1      49.026   4.459  18.924  0.00  0.00    +0.000 S 
ATOM      8  C   UNL     1      50.630   4.806  18.478  0.00  0.00    +0.000 A 
ATOM      9  N   UNL     1      51.678   4.290  19.174  0.00  0.00    +0.000 NA
ATOM     10  C   UNL     1      52.837   4.606  18.704  0.00  0.00    +0.000 A 
ATOM     11  N   UNL     1      53.046   5.407  17.611  0.00  0.00    +0.000 N 
ATOM     12  C   UNL     1      52.019   5.986  16.903  0.00  0.00    +0.000 A 
ATOM     13  O   UNL     1      52.240   6.749  15.969  0.00  0.00    +0.000 OA
ATOM     14  C   UNL     1      50.692   5.634  17.371  0.00  0.00    +0.000 A 
ATOM     15  H   UNL     1      53.981   5.631  17.305  0.00  0.00    +0.000 HD
ENDBRANCH   2   5
BRANCH   3  16
ATOM     16  C   UNL     1      47.629   7.008  13.698  0.00  0.00    +0.000 C 
BRANCH  16  17
ATOM     17  C   UNL     1      46.734   6.204  12.793  0.00  0.00    +0.000 A 
ATOM     18  C   UNL     1      46.408   6.684  11.521  0.00  0.00    +0.000 A 
ATOM     19  C   UNL     1      45.625   5.921  10.648  0.00  0.00    +0.000 A 
ATOM     20  C   UNL     1      45.153   4.657  11.022  0.00  0.00    +0.000 A 
ATOM     21  C   UNL     1      45.430   4.208  12.322  0.00  0.00    +0.000 A 
ATOM     22  C   UNL     1      46.210   4.973  13.199  0.00  0.00    +0.000 A 
BRANCH  20  23
ATOM     23  C   UNL     1      44.314   3.793  10.096  0.00  0.00    +0.000 C 
BRANCH  23  24
ATOM     24  C   UNL     1      44.592   3.997   8.598  0.00  0.00    +0.000 C 
BRANCH  24  25
ATOM     25  C   UNL     1      45.607   3.037   8.041  0.00  0.00    +0.000 A 
ATOM     26  C   UNL     1      46.504   3.421   7.042  0.00  0.00    +0.000 A 
ATOM     27  C   UNL     1      47.400   2.488   6.524  0.00  0.00    +0.000 A 
ATOM     28  C   UNL     1      47.374   1.200   7.030  0.00  0.00    +0.000 A 
ATOM     29  N   UNL     1      46.534   0.795   8.006  0.00  0.00    +0.000 NA
ATOM     30  C   UNL     1      45.673   1.719   8.487  0.00  0.00    +0.000 A 
ENDBRANCH  24  25
ENDBRANCH  23  24
ENDBRANCH  20  23
ENDBRANCH  16  17
ENDBRANCH   3  16
TORSDOF 6
ENDMDL
MODEL 5
REMARK VINA RESULT:    -7.150      2.740      4.681
REMARK INTER + INTRA:         -10.803
REMARK INTER:                  -9.981
REMARK INTRA:                  -0.823
REMARK UNBOUND:                -1.145
REMARK  Name = 
REMARK  6 active torsions:
REMARK  status: ('A' for Active; 'I' for Inactive)
REMARK    1  A    between atoms: C_2  and  C_19
REMARK    2  A    between atoms: N_3  and  C_4
REMARK    3  A    between atoms: C_4  and  C_5
REMARK    4  A    between atoms: C_8  and  C_9
REMARK    5  A    between atoms: C_9  and  C_10
REMARK    6  A    between atoms: C_10  and  C_11
REMARK                            x       y       z     vdW  Elec       q    Type
REMARK                         _______ _______ _______ _____ _____    ______ ____
ROOT
ATOM      1  O   UNL     1      49.136   6.267  12.626  0.00  0.00    +0.000 OA
ATOM      2  C   UNL     1      48.578   7.215  13.174  0.00  0.00    +0.000 C 
ATOM      3  N   UNL     1      47.657   7.033  14.177  0.00  0.00    +0.000 N 
ATOM      4  H   UNL     1      47.062   7.808  14.455  0.00  0.00    +0.000 HD
ENDROOT
BRANCH   2   5
ATOM      5  C   UNL     1      48.899   8.598  12.810  0.00  0.00    +0.000 A 
ATOM      6  C   UNL     1      50.224   8.973  12.633  0.00  0.00    +0.000 A 
ATOM      7  S   UNL     1      50.419  10.614  12.211  0.00  0.00    +0.000 S 
ATOM      8  C   UNL     1      48.737  10.867  12.200  0.00  0.00    +0.000 A 
ATOM      9  N   UNL     1      48.214  12.079  11.872  0.00  0.00    +0.000 NA
ATOM     10  C   UNL     1      46.924  12.119  11.869  0.00  0.00    +0.000 A 
ATOM     11  N   UNL     1      46.108  11.063  12.183  0.00  0.00    +0.000 N 
ATOM     12  C   UNL     1      46.593   9.833  12.563  0.00  0.00    +0.000 A 
ATOM     13  O   UNL     1      45.837   8.927  12.899  0.00  0.00    +0.000 OA
ATOM     14  C   UNL     1      48.039   9.725  12.549  0.00  0.00    +0.000 A 
ATOM     15  H   UNL     1      45.105  11.166  12.180  0.00  0.00    +0.000 HD
ENDBRANCH   2   5
BRANCH   3  16
ATOM     16  C   UNL     1      47.214   5.706  14.516  0.00  0.00    +0.000 C 
BRANCH  16  17
ATOM     17  C   UNL     1      46.350   5.100  13.443  0.00  0.00    +0.000 A 
ATOM     18  C   UNL     1      45.551   5.920  12.639  0.00  0.00    +0.000 A 
ATOM     19  C   UNL     1      44.787   5.376  11.600  0.00  0.00    +0.000 A 
ATOM     20  C   UNL     1      44.806   4.002  11.335  0.00  0.00    +0.000 A 
ATOM     21  C   UNL     1      45.559   3.176  12.185  0.00  0.00    +0.000 A 
ATOM     22  C   UNL     1      46.321   3.719  13.228  0.00  0.00    +0.000 A 
BRANCH  20  23
ATOM     23  C   UNL     1      44.003   3.377  10.208  0.00  0.00    +0.000 C 
BRANCH  23  24
ATOM     24  C   UNL     1      44.421   3.824   8.797  0.00  0.00    +0.000 C 
BRANCH  24  25
ATOM     25  C   UNL     1      45.521   2.987   8.205  0.00  0.00    +0.000 A 
ATOM     26  C   UNL     1      46.424   3.517   7.279  0.00  0.00    +0.000 A 
ATOM     27  C   UNL     1      47.402   2.697   6.723  0.00  0.00    +0.000 A 
ATOM     28  C   UNL     1      47.451   1.370   7.119  0.00  0.00    +0.000 A 
ATOM     29  N   UNL     1      46.609   0.826   8.022  0.00  0.00    +0.000 NA
ATOM     30  C   UNL     1      45.666   1.644   8.542  0.00  0.00    +0.000 A 
ENDBRANCH  24  25
ENDBRANCH  23  24
ENDBRANCH  20  23
ENDBRANCH  16  17
ENDBRANCH   3  16
TORSDOF 6
ENDMDL
MODEL 6
REMARK VINA RESULT:    -7.128      2.415      4.036
REMARK INTER + INTRA:         -10.774
REMARK INTER:                  -9.446
REMARK INTRA:                  -1.328
REMARK UNBOUND:                -1.145
REMARK  Name = 
REMARK  6 active torsions:
REMARK  status: ('A' for Active; 'I' for Inactive)
REMARK    1  A    between atoms: C_2  and  C_19
REMARK    2  A    between atoms: N_3  and  C_4
REMARK    3  A    between atoms: C_4  and  C_5
REMARK    4  A    between atoms: C_8  and  C_9
REMARK    5  A    between atoms: C_9  and  C_10
REMARK    6  A    between atoms: C_10  and  C_11
REMARK                            x       y       z     vdW  Elec       q    Type
REMARK                         _______ _______ _______ _____ _____    ______ ____
ROOT
ATOM      1  O   UNL     1      49.267   5.835  15.978  0.00  0.00    +0.000 OA
ATOM      2  C   UNL     1      48.873   6.696  15.195  0.00  0.00    +0.000 C 
ATOM      3  N   UNL     1      47.730   6.531  14.450  0.00  0.00    +0.000 N 
ATOM      4  H   UNL     1      47.550   7.152  13.666  0.00  0.00    +0.000 HD
ENDROOT
BRANCH   2   5
ATOM      5  C   UNL     1      49.585   7.968  15.044  0.00  0.00    +0.000 A 
ATOM      6  C   UNL     1      49.847   8.747  16.164  0.00  0.00    +0.000 A 
ATOM      7  S   UNL     1      50.682  10.191  15.811  0.00  0.00    +0.000 S 
ATOM      8  C   UNL     1      50.769   9.801  14.158  0.00  0.00    +0.000 A 
ATOM      9  N   UNL     1      51.407  10.619  13.279  0.00  0.00    +0.000 NA
ATOM     10  C   UNL     1      51.427  10.183  12.064  0.00  0.00    +0.000 A 
ATOM     11  N   UNL     1      50.853   9.012  11.644  0.00  0.00    +0.000 N 
ATOM     12  C   UNL     1      50.161   8.176  12.489  0.00  0.00    +0.000 A 
ATOM     13  O   UNL     1      49.603   7.166  12.070  0.00  0.00    +0.000 OA
ATOM     14  C   UNL     1      50.137   8.604  13.874  0.00  0.00    +0.000 A 
ATOM     15  H   UNL     1      50.888   8.737  10.674  0.00  0.00    +0.000 HD
ENDBRANCH   2   5
BRANCH   3  16
ATOM     16  C   UNL     1      47.036   5.269  14.466  0.00  0.00    +0.000 C 
BRANCH  16  17
ATOM     17  C   UNL     1      46.380   4.962  13.147  0.00  0.00    +0.000 A 
ATOM     18  C   UNL     1      45.809   3.705  12.922  0.00  0.00    +0.000 A 
ATOM     19  C   UNL     1      45.146   3.425  11.722  0.00  0.00    +0.000 A 
ATOM     20  C   UNL     1      45.032   4.396  10.719  0.00  0.00    +0.000 A 
ATOM     21  C   UNL     1      45.661   5.633  10.924  0.00  0.00    +0.000 A 
ATOM     22  C   UNL     1      46.329   5.913  12.124  0.00  0.00    +0.000 A 
BRANCH  20  23
ATOM     23  C   UNL     1      44.306   4.135   9.411  0.00  0.00    +0.000 C 
BRANCH  23  24
ATOM     24  C   UNL     1      44.420   2.694   8.889  0.00  0.00    +0.000 C 
BRANCH  24  25
ATOM     25  C   UNL     1      45.655   2.451   8.066  0.00  0.00    +0.000 A 
ATOM     26  C   UNL     1      46.196   3.448   7.249  0.00  0.00    +0.000 A 
ATOM     27  C   UNL     1      47.316   3.169   6.471  0.00  0.00    +0.000 A 
ATOM     28  C   UNL     1      47.868   1.900   6.542  0.00  0.00    +0.000 A 
ATOM     29  N   UNL     1      47.385   0.917   7.330  0.00  0.00    +0.000 NA
ATOM     30  C   UNL     1      46.294   1.214   8.071  0.00  0.00    +0.000 A 
ENDBRANCH  24  25
ENDBRANCH  23  24
ENDBRANCH  20  23
ENDBRANCH  16  17
ENDBRANCH   3  16
TORSDOF 6
ENDMDL
MODEL 7
REMARK VINA RESULT:    -7.058      3.171      7.804
REMARK INTER + INTRA:         -10.679
REMARK INTER:                  -9.220
REMARK INTRA:                  -1.459
REMARK UNBOUND:                -1.145
REMARK  Name = 
REMARK  6 active torsions:
REMARK  status: ('A' for Active; 'I' for Inactive)
REMARK    1  A    between atoms: C_2  and  C_19
REMARK    2  A    between atoms: N_3  and  C_4
REMARK    3  A    between atoms: C_4  and  C_5
REMARK    4  A    between atoms: C_8  and  C_9
REMARK    5  A    between atoms: C_9  and  C_10
REMARK    6  A    between atoms: C_10  and  C_11
REMARK                            x       y       z     vdW  Elec       q    Type
REMARK                         _______ _______ _______ _____ _____    ______ ____
ROOT
ATOM      1  O   UNL     1      45.396   7.901  11.787  0.00  0.00    +0.000 OA
ATOM      2  C   UNL     1      46.110   6.976  11.405  0.00  0.00    +0.000 C 
ATOM      3  N   UNL     1      47.473   6.996  11.571  0.00  0.00    +0.000 N 
ATOM      4  H   UNL     1      48.048   6.332  11.061  0.00  0.00    +0.000 HD
ENDROOT
BRANCH   2   5
ATOM      5  C   UNL     1      45.534   5.779  10.786  0.00  0.00    +0.000 A 
ATOM      6  C   UNL     1      45.754   5.528   9.439  0.00  0.00    +0.000 A 
ATOM      7  S   UNL     1      45.015   4.095   8.881  0.00  0.00    +0.000 S 
ATOM      8  C   UNL     1      44.420   3.734  10.433  0.00  0.00    +0.000 A 
ATOM      9  N   UNL     1      43.714   2.595  10.664  0.00  0.00    +0.000 NA
ATOM     10  C   UNL     1      43.355   2.431  11.893  0.00  0.00    +0.000 A 
ATOM     11  N   UNL     1      43.622   3.310  12.909  0.00  0.00    +0.000 N 
ATOM     12  C   UNL     1      44.294   4.494  12.714  0.00  0.00    +0.000 A 
ATOM     13  O   UNL     1      44.461   5.290  13.633  0.00  0.00    +0.000 OA
ATOM     14  C   UNL     1      44.749   4.711  11.354  0.00  0.00    +0.000 A 
ATOM     15  H   UNL     1      43.296   3.131  13.847  0.00  0.00    +0.000 HD
ENDBRANCH   2   5
BRANCH   3  16
ATOM     16  C   UNL     1      48.120   8.180  12.075  0.00  0.00    +0.000 C 
BRANCH  16  17
ATOM     17  C   UNL     1      48.511   8.046  13.522  0.00  0.00    +0.000 A 
ATOM     18  C   UNL     1      47.831   8.773  14.505  0.00  0.00    +0.000 A 
ATOM     19  C   UNL     1      48.145   8.614  15.858  0.00  0.00    +0.000 A 
ATOM     20  C   UNL     1      49.144   7.720  16.266  0.00  0.00    +0.000 A 
ATOM     21  C   UNL     1      49.866   7.041  15.272  0.00  0.00    +0.000 A 
ATOM     22  C   UNL     1      49.554   7.203  13.916  0.00  0.00    +0.000 A 
BRANCH  20  23
ATOM     23  C   UNL     1      49.502   7.508  17.726  0.00  0.00    +0.000 C 
BRANCH  23  24
ATOM     24  C   UNL     1      48.479   6.689  18.527  0.00  0.00    +0.000 C 
BRANCH  24  25
ATOM     25  C   UNL     1      48.315   5.280  18.026  0.00  0.00    +0.000 A 
ATOM     26  C   UNL     1      49.413   4.431  17.863  0.00  0.00    +0.000 A 
ATOM     27  C   UNL     1      49.222   3.148  17.356  0.00  0.00    +0.000 A 
ATOM     28  C   UNL     1      47.934   2.751  17.036  0.00  0.00    +0.000 A 
ATOM     29  N   UNL     1      46.847   3.536  17.195  0.00  0.00    +0.000 NA
ATOM     30  C   UNL     1      47.062   4.778  17.684  0.00  0.00    +0.000 A 
ENDBRANCH  24  25
ENDBRANCH  23  24
ENDBRANCH  20  23
ENDBRANCH  16  17
ENDBRANCH   3  16
TORSDOF 6
ENDMDL
MODEL 8
REMARK VINA RESULT:    -6.799      3.521      7.699
REMARK INTER + INTRA:         -10.329
REMARK INTER:                  -8.559
REMARK INTRA:                  -1.770
REMARK UNBOUND:                -1.145
REMARK  Name = 
REMARK  6 active torsions:
REMARK  status: ('A' for Active; 'I' for Inactive)
REMARK    1  A    between atoms: C_2  and  C_19
REMARK    2  A    between atoms: N_3  and  C_4
REMARK    3  A    between atoms: C_4  and  C_5
REMARK    4  A    between atoms: C_8  and  C_9
REMARK    5  A    between atoms: C_9  and  C_10
REMARK    6  A    between atoms: C_10  and  C_11
REMARK                            x       y       z     vdW  Elec       q    Type
REMARK                         _______ _______ _______ _____ _____    ______ ____
ROOT
ATOM      1  O   UNL     1      48.449   8.028  12.653  0.00  0.00    +0.000 OA
ATOM      2  C   UNL     1      47.382   7.943  13.258  0.00  0.00    +0.000 C 
ATOM      3  N   UNL     1      47.160   8.618  14.433  0.00  0.00    +0.000 N 
ATOM      4  H   UNL     1      46.366   8.363  15.013  0.00  0.00    +0.000 HD
ENDROOT
BRANCH   2   5
ATOM      5  C   UNL     1      46.273   7.144  12.731  0.00  0.00    +0.000 A 
ATOM      6  C   UNL     1      45.273   7.759  11.989  0.00  0.00    +0.000 A 
ATOM      7  S   UNL     1      44.061   6.686  11.453  0.00  0.00    +0.000 S 
ATOM      8  C   UNL     1      44.857   5.353  12.148  0.00  0.00    +0.000 A 
ATOM      9  N   UNL     1      44.358   4.095  12.021  0.00  0.00    +0.000 NA
ATOM     10  C   UNL     1      45.083   3.177  12.566  0.00  0.00    +0.000 A 
ATOM     11  N   UNL     1      46.253   3.403  13.244  0.00  0.00    +0.000 N 
ATOM     12  C   UNL     1      46.772   4.662  13.435  0.00  0.00    +0.000 A 
ATOM     13  O   UNL     1      47.788   4.838  14.101  0.00  0.00    +0.000 OA
ATOM     14  C   UNL     1      46.012   5.728  12.811  0.00  0.00    +0.000 A 
ATOM     15  H   UNL     1      46.763   2.641  13.664  0.00  0.00    +0.000 HD
ENDBRANCH   2   5
BRANCH   3  16
ATOM     16  C   UNL     1      48.236   9.338  15.065  0.00  0.00    +0.000 C 
BRANCH  16  17
ATOM     17  C   UNL     1      48.943   8.511  16.105  0.00  0.00    +0.000 A 
ATOM     18  C   UNL     1      48.491   8.509  17.428  0.00  0.00    +0.000 A 
ATOM     19  C   UNL     1      49.103   7.701  18.392  0.00  0.00    +0.000 A 
ATOM     20  C   UNL     1      50.179   6.869  18.057  0.00  0.00    +0.000 A 
ATOM     21  C   UNL     1      50.669   6.922  16.743  0.00  0.00    +0.000 A 
ATOM     22  C   UNL     1      50.059   7.735  15.778  0.00  0.00    +0.000 A 
BRANCH  20  23
ATOM     23  C   UNL     1      50.858   5.966  19.071  0.00  0.00    +0.000 C 
BRANCH  23  24
ATOM     24  C   UNL     1      49.998   4.792  19.565  0.00  0.00    +0.000 C 
BRANCH  24  25
ATOM     25  C   UNL     1      49.429   3.957  18.452  0.00  0.00    +0.000 A 
ATOM     26  C   UNL     1      48.055   3.919  18.196  0.00  0.00    +0.000 A 
ATOM     27  C   UNL     1      47.566   3.099  17.182  0.00  0.00    +0.000 A 
ATOM     28  C   UNL     1      48.469   2.348  16.449  0.00  0.00    +0.000 A 
ATOM     29  N   UNL     1      49.802   2.369  16.655  0.00  0.00    +0.000 NA
ATOM     30  C   UNL     1      50.250   3.170  17.648  0.00  0.00    +0.000 A 
ENDBRANCH  24  25
ENDBRANCH  23  24
ENDBRANCH  20  23
ENDBRANCH  16  17
ENDBRANCH   3  16
TORSDOF 6
ENDMDL
MODEL 9
REMARK VINA RESULT:    -6.718      3.216      5.181
REMARK INTER + INTRA:         -10.220
REMARK INTER:                  -9.240
REMARK INTRA:                  -0.980
REMARK UNBOUND:                -1.145
REMARK  Name = 
REMARK  6 active torsions:
REMARK  status: ('A' for Active; 'I' for Inactive)
REMARK    1  A    between atoms: C_2  and  C_19
REMARK    2  A    between atoms: N_3  and  C_4
REMARK    3  A    between atoms: C_4  and  C_5
REMARK    4  A    between atoms: C_8  and  C_9
REMARK    5  A    between atoms: C_9  and  C_10
REMARK    6  A    between atoms: C_10  and  C_11
REMARK                            x       y       z     vdW  Elec       q    Type
REMARK                         _______ _______ _______ _____ _____    ______ ____
ROOT
ATOM      1  O   UNL     1      49.483   1.650  16.044  0.00  0.00    +0.000 OA
ATOM      2  C   UNL     1      49.910   2.311  16.988  0.00  0.00    +0.000 C 
ATOM      3  N   UNL     1      49.099   3.158  17.704  0.00  0.00    +0.000 N 
ATOM      4  H   UNL     1      49.519   3.843  18.327  0.00  0.00    +0.000 HD
ENDROOT
BRANCH   2   5
ATOM      5  C   UNL     1      51.304   2.199  17.426  0.00  0.00    +0.000 A 
ATOM      6  C   UNL     1      51.878   0.944  17.579  0.00  0.00    +0.000 A 
ATOM      7  S   UNL     1      53.503   0.994  18.092  0.00  0.00    +0.000 S 
ATOM      8  C   UNL     1      53.513   2.695  18.076  0.00  0.00    +0.000 A 
ATOM      9  N   UNL     1      54.639   3.392  18.385  0.00  0.00    +0.000 NA
ATOM     10  C   UNL     1      54.513   4.673  18.298  0.00  0.00    +0.000 A 
ATOM     11  N   UNL     1      53.359   5.323  17.948  0.00  0.00    +0.000 N 
ATOM     12  C   UNL     1      52.185   4.663  17.670  0.00  0.00    +0.000 A 
ATOM     13  O   UNL     1      51.152   5.276  17.421  0.00  0.00    +0.000 OA
ATOM     14  C   UNL     1      52.282   3.216  17.721  0.00  0.00    +0.000 A 
ATOM     15  H   UNL     1      53.322   6.331  17.916  0.00  0.00    +0.000 HD
ENDBRANCH   2   5
BRANCH   3  16
ATOM     16  C   UNL     1      47.748   3.400  17.270  0.00  0.00    +0.000 C 
BRANCH  16  17
ATOM     17  C   UNL     1      47.689   4.278  16.049  0.00  0.00    +0.000 A 
ATOM     18  C   UNL     1      47.038   3.832  14.894  0.00  0.00    +0.000 A 
ATOM     19  C   UNL     1      46.925   4.659  13.772  0.00  0.00    +0.000 A 
ATOM     20  C   UNL     1      47.456   5.955  13.776  0.00  0.00    +0.000 A 
ATOM     21  C   UNL     1      48.163   6.375  14.914  0.00  0.00    +0.000 A 
ATOM     22  C   UNL     1      48.279   5.545  16.037  0.00  0.00    +0.000 A 
BRANCH  20  23
ATOM     23  C   UNL     1      47.340   6.888  12.584  0.00  0.00    +0.000 C 
BRANCH  23  24
ATOM     24  C   UNL     1      45.900   7.253  12.190  0.00  0.00    +0.000 C 
BRANCH  24  25
ATOM     25  C   UNL     1      45.225   6.205  11.348  0.00  0.00    +0.000 A 
ATOM     26  C   UNL     1      45.859   5.642  10.238  0.00  0.00    +0.000 A 
ATOM     27  C   UNL     1      45.183   4.705   9.460  0.00  0.00    +0.000 A 
ATOM     28  C   UNL     1      43.894   4.355   9.824  0.00  0.00    +0.000 A 
ATOM     29  N   UNL     1      43.254   4.864  10.898  0.00  0.00    +0.000 NA
ATOM     30  C   UNL     1      43.932   5.775  11.633  0.00  0.00    +0.000 A 
ENDBRANCH  24  25
ENDBRANCH  23  24
ENDBRANCH  20  23
ENDBRANCH  16  17
ENDBRANCH   3  16
TORSDOF 6
ENDMDL
