MODEL 1
REMARK VINA RESULT:    -8.269      0.000      0.000
REMARK INTER + INTRA:         -11.307
REMARK INTER:                 -10.686
REMARK INTRA:                  -0.621
REMARK UNBOUND:                -0.621
REMARK  Name = 
REMARK  5 active torsions:
REMARK  status: ('A' for Active; 'I' for Inactive)
REMARK    1  A    between atoms: C_2  and  C_19
REMARK    2  A    between atoms: N_3  and  C_4
REMARK    3  A    between atoms: C_4  and  C_5
REMARK    4  A    between atoms: C_8  and  C_9
REMARK    5  A    between atoms: C_9  and  N_10
REMARK                            x       y       z     vdW  Elec       q    Type
REMARK                         _______ _______ _______ _____ _____    ______ ____
ROOT
ATOM      1  O   UNL     1      46.472   3.186  13.525  0.00  0.00    +0.000 OA
ATOM      2  C   UNL     1      46.249   4.366  13.789  0.00  0.00    +0.000 C 
ATOM      3  N   UNL     1      45.026   4.944  13.562  0.00  0.00    +0.000 N 
ATOM      4  H   UNL     1      44.930   5.952  13.644  0.00  0.00    +0.000 HD
ENDROOT
BRANCH   2   5
ATOM      5  C   UNL     1      47.290   5.220  14.378  0.00  0.00    +0.000 A 
ATOM      6  C   UNL     1      47.906   6.198  13.607  0.00  0.00    +0.000 A 
ATOM      7  S   UNL     1      49.045   7.132  14.466  0.00  0.00    +0.000 S 
ATOM      8  C   UNL     1      48.730   6.286  15.907  0.00  0.00    +0.000 A 
ATOM      9  N   UNL     1      49.346   6.633  17.071  0.00  0.00    +0.000 NA
ATOM     10  C   UNL     1      48.981   5.936  18.095  0.00  0.00    +0.000 A 
ATOM     11  N   UNL     1      48.071   4.912  18.057  0.00  0.00    +0.000 N 
ATOM     12  C   UNL     1      47.464   4.493  16.898  0.00  0.00    +0.000 A 
ATOM     13  O   UNL     1      46.721   3.517  16.885  0.00  0.00    +0.000 OA
ATOM     14  C   UNL     1      47.802   5.277  15.727  0.00  0.00    +0.000 A 
ATOM     15  H   UNL     1      47.852   4.385  18.891  0.00  0.00    +0.000 HD
ENDBRANCH   2   5
BRANCH   3  16
ATOM     16  C   UNL     1      43.995   4.248  12.826  0.00  0.00    +0.000 C 
BRANCH  16  17
ATOM     17  C   UNL     1      44.390   4.057  11.386  0.00  0.00    +0.000 A 
ATOM     18  C   UNL     1      44.983   5.082  10.620  0.00  0.00    +0.000 A 
ATOM     19  C   UNL     1      45.297   4.874   9.264  0.00  0.00    +0.000 A 
ATOM     20  C   UNL     1      45.020   3.647   8.637  0.00  0.00    +0.000 A 
ATOM     21  C   UNL     1      44.458   2.635   9.422  0.00  0.00    +0.000 A 
ATOM     22  F   UNL     1      44.242   1.421   8.890  0.00  0.00    +0.000 F 
ATOM     23  C   UNL     1      44.138   2.831  10.761  0.00  0.00    +0.000 A 
BRANCH  20  24
ATOM     24  C   UNL     1      45.397   3.356   7.205  0.00  0.00    +0.000 C 
BRANCH  24  25
ATOM     25  N   UNL     1      46.756   2.922   6.891  0.00  0.00    +0.000 NA
ATOM     26  C   UNL     1      47.229   3.128   5.525  0.00  0.00    +0.000 C 
ATOM     27  C   UNL     1      47.025   1.908   4.622  0.00  0.00    +0.000 C 
ATOM     28  O   UNL     1      47.690   0.762   5.161  0.00  0.00    +0.000 OA
ATOM     29  C   UNL     1      47.198   0.445   6.471  0.00  0.00    +0.000 C 
ATOM     30  C   UNL     1      47.224   1.647   7.438  0.00  0.00    +0.000 C 
ENDBRANCH  24  25
ENDBRANCH  20  24
ENDBRANCH  16  17
ENDBRANCH   3  16
TORSDOF 5
ENDMDL
MODEL 2
REMARK VINA RESULT:    -7.887      1.760      2.618
REMARK INTER + INTRA:         -10.813
REMARK INTER:                 -10.206
REMARK INTRA:                  -0.607
REMARK UNBOUND:                -0.621
REMARK  Name = 
REMARK  5 active torsions:
REMARK  status: ('A' for Active; 'I' for Inactive)
REMARK    1  A    between atoms: C_2  and  C_19
REMARK    2  A    between atoms: N_3  and  C_4
REMARK    3  A    between atoms: C_4  and  C_5
REMARK    4  A    between atoms: C_8  and  C_9
REMARK    5  A    between atoms: C_9  and  N_10
REMARK                            x       y       z     vdW  Elec       q    Type
REMARK                         _______ _______ _______ _____ _____    ______ ____
ROOT
ATOM      1  O   UNL     1      46.715   3.660  14.353  0.00  0.00    +0.000 OA
ATOM      2  C   UNL     1      46.652   4.862  14.106  0.00  0.00    +0.000 C 
ATOM      3  N   UNL     1      45.562   5.423  13.490  0.00  0.00    +0.000 N 
ATOM      4  H   UNL     1      45.615   6.382  13.163  0.00  0.00    +0.000 HD
ENDROOT
BRANCH   2   5
ATOM      5  C   UNL     1      47.747   5.771  14.475  0.00  0.00    +0.000 A 
ATOM      6  C   UNL     1      48.288   5.722  15.754  0.00  0.00    +0.000 A 
ATOM      7  S   UNL     1      49.586   6.804  15.990  0.00  0.00    +0.000 S 
ATOM      8  C   UNL     1      49.493   7.349  14.382  0.00  0.00    +0.000 A 
ATOM      9  N   UNL     1      50.382   8.260  13.900  0.00  0.00    +0.000 NA
ATOM     10  C   UNL     1      50.222   8.552  12.652  0.00  0.00    +0.000 A 
ATOM     11  N   UNL     1      49.244   8.028  11.848  0.00  0.00    +0.000 N 
ATOM     12  C   UNL     1      48.294   7.146  12.303  0.00  0.00    +0.000 A 
ATOM     13  O   UNL     1      47.380   6.765  11.579  0.00  0.00    +0.000 OA
ATOM     14  C   UNL     1      48.460   6.747  13.687  0.00  0.00    +0.000 A 
ATOM     15  H   UNL     1      49.155   8.322  10.886  0.00  0.00    +0.000 HD
ENDBRANCH   2   5
BRANCH   3  16
ATOM     16  C   UNL     1      44.516   4.599  12.929  0.00  0.00    +0.000 C 
BRANCH  16  17
ATOM     17  C   UNL     1      44.772   4.311  11.473  0.00  0.00    +0.000 A 
ATOM     18  C   UNL     1      45.242   5.295  10.577  0.00  0.00    +0.000 A 
ATOM     19  C   UNL     1      45.427   4.994   9.215  0.00  0.00    +0.000 A 
ATOM     20  C   UNL     1      45.139   3.714   8.711  0.00  0.00    +0.000 A 
ATOM     21  C   UNL     1      44.701   2.746   9.620  0.00  0.00    +0.000 A 
ATOM     22  F   UNL     1      44.484   1.489   9.203  0.00  0.00    +0.000 F 
ATOM     23  C   UNL     1      44.510   3.034  10.967  0.00  0.00    +0.000 A 
BRANCH  20  24
ATOM     24  C   UNL     1      45.383   3.328   7.272  0.00  0.00    +0.000 C 
BRANCH  24  25
ATOM     25  N   UNL     1      46.727   2.948   6.845  0.00  0.00    +0.000 NA
ATOM     26  C   UNL     1      47.059   3.124   5.435  0.00  0.00    +0.000 C 
ATOM     27  C   UNL     1      46.835   1.862   4.596  0.00  0.00    +0.000 C 
ATOM     28  O   UNL     1      47.605   0.770   5.107  0.00  0.00    +0.000 OA
ATOM     29  C   UNL     1      47.254   0.480   6.467  0.00  0.00    +0.000 C 
ATOM     30  C   UNL     1      47.309   1.717   7.387  0.00  0.00    +0.000 C 
ENDBRANCH  24  25
ENDBRANCH  20  24
ENDBRANCH  16  17
ENDBRANCH   3  16
TORSDOF 5
ENDMDL
MODEL 3
REMARK VINA RESULT:    -7.516      3.809      5.277
REMARK INTER + INTRA:         -10.334
REMARK INTER:                  -8.910
REMARK INTRA:                  -1.424
REMARK UNBOUND:                -0.621
REMARK  Name = 
REMARK  5 active torsions:
REMARK  status: ('A' for Active; 'I' for Inactive)
REMARK    1  A    between atoms: C_2  and  C_19
REMARK    2  A    between atoms: N_3  and  C_4
REMARK    3  A    between atoms: C_4  and  C_5
REMARK    4  A    between atoms: C_8  and  C_9
REMARK    5  A    between atoms: C_9  and  N_10
REMARK                            x       y       z     vdW  Elec       q    Type
REMARK                         _______ _______ _______ _____ _____    ______ ____
ROOT
ATOM      1  O   UNL     1      48.617   8.710  16.045  0.00  0.00    +0.000 OA
ATOM      2  C   UNL     1      49.004   7.582  15.745  0.00  0.00    +0.000 C 
ATOM      3  N   UNL     1      49.302   7.234  14.452  0.00  0.00    +0.000 N 
ATOM      4  H   UNL     1      49.464   6.258  14.225  0.00  0.00    +0.000 HD
ENDROOT
BRANCH   2   5
ATOM      5  C   UNL     1      49.181   6.544  16.771  0.00  0.00    +0.000 A 
ATOM      6  C   UNL     1      49.978   6.795  17.881  0.00  0.00    +0.000 A 
ATOM      7  S   UNL     1      50.024   5.504  18.995  0.00  0.00    +0.000 S 
ATOM      8  C   UNL     1      48.954   4.580  18.050  0.00  0.00    +0.000 A 
ATOM      9  N   UNL     1      48.524   3.359  18.473  0.00  0.00    +0.000 NA
ATOM     10  C   UNL     1      47.681   2.788  17.678  0.00  0.00    +0.000 A 
ATOM     11  N   UNL     1      47.244   3.318  16.493  0.00  0.00    +0.000 N 
ATOM     12  C   UNL     1      47.689   4.521  16.002  0.00  0.00    +0.000 A 
ATOM     13  O   UNL     1      47.345   4.925  14.896  0.00  0.00    +0.000 OA
ATOM     14  C   UNL     1      48.600   5.227  16.881  0.00  0.00    +0.000 A 
ATOM     15  H   UNL     1      46.606   2.804  15.902  0.00  0.00    +0.000 HD
ENDBRANCH   2   5
BRANCH   3  16
ATOM     16  C   UNL     1      48.995   8.118  13.350  0.00  0.00    +0.000 C 
BRANCH  16  17
ATOM     17  C   UNL     1      47.639   7.812  12.770  0.00  0.00    +0.000 A 
ATOM     18  C   UNL     1      46.454   8.400  13.261  0.00  0.00    +0.000 A 
ATOM     19  C   UNL     1      45.203   8.054  12.717  0.00  0.00    +0.000 A 
ATOM     20  C   UNL     1      45.101   7.109  11.681  0.00  0.00    +0.000 A 
ATOM     21  C   UNL     1      46.290   6.560  11.190  0.00  0.00    +0.000 A 
ATOM     22  F   UNL     1      46.253   5.710  10.151  0.00  0.00    +0.000 F 
ATOM     23  C   UNL     1      47.530   6.891  11.723  0.00  0.00    +0.000 A 
BRANCH  20  24
ATOM     24  C   UNL     1      43.790   6.755  11.024  0.00  0.00    +0.000 C 
BRANCH  24  25
ATOM     25  N   UNL     1      43.109   5.516  11.394  0.00  0.00    +0.000 NA
ATOM     26  C   UNL     1      42.961   5.229  12.817  0.00  0.00    +0.000 C 
ATOM     27  C   UNL     1      44.081   4.349  13.379  0.00  0.00    +0.000 C 
ATOM     28  O   UNL     1      44.151   3.106  12.674  0.00  0.00    +0.000 OA
ATOM     29  C   UNL     1      44.396   3.316  11.276  0.00  0.00    +0.000 C 
ATOM     30  C   UNL     1      43.405   4.303  10.626  0.00  0.00    +0.000 C 
ENDBRANCH  24  25
ENDBRANCH  20  24
ENDBRANCH  16  17
ENDBRANCH   3  16
TORSDOF 5
ENDMDL
MODEL 4
REMARK VINA RESULT:    -7.066      4.264      6.611
REMARK INTER + INTRA:          -9.752
REMARK INTER:                  -8.933
REMARK INTRA:                  -0.820
REMARK UNBOUND:                -0.621
REMARK  Name = 
REMARK  5 active torsions:
REMARK  status: ('A' for Active; 'I' for Inactive)
REMARK    1  A    between atoms: C_2  and  C_19
REMARK    2  A    between atoms: N_3  and  C_4
REMARK    3  A    between atoms: C_4  and  C_5
REMARK    4  A    between atoms: C_8  and  C_9
REMARK    5  A    between atoms: C_9  and  N_10
REMARK                            x       y       z     vdW  Elec       q    Type
REMARK                         _______ _______ _______ _____ _____    ______ ____
ROOT
ATOM      1  O   UNL     1      49.658   5.583  19.020  0.00  0.00    +0.000 OA
ATOM      2  C   UNL     1      50.563   5.448  18.199  0.00  0.00    +0.000 C 
ATOM      3  N   UNL     1      50.596   6.161  17.027  0.00  0.00    +0.000 N 
ATOM      4  H   UNL     1      51.268   5.907  16.310  0.00  0.00    +0.000 HD
ENDROOT
BRANCH   2   5
ATOM      5  C   UNL     1      51.673   4.515  18.442  0.00  0.00    +0.000 A 
ATOM      6  C   UNL     1      52.773   4.924  19.186  0.00  0.00    +0.000 A 
ATOM      7  S   UNL     1      53.936   3.698  19.417  0.00  0.00    +0.000 S 
ATOM      8  C   UNL     1      52.995   2.570  18.562  0.00  0.00    +0.000 A 
ATOM      9  N   UNL     1      53.398   1.276  18.436  0.00  0.00    +0.000 NA
ATOM     10  C   UNL     1      52.567   0.519  17.799  0.00  0.00    +0.000 A 
ATOM     11  N   UNL     1      51.379   0.943  17.264  0.00  0.00    +0.000 N 
ATOM     12  C   UNL     1      50.956   2.248  17.321  0.00  0.00    +0.000 A 
ATOM     13  O   UNL     1      49.930   2.611  16.755  0.00  0.00    +0.000 OA
ATOM     14  C   UNL     1      51.831   3.130  18.069  0.00  0.00    +0.000 A 
ATOM     15  H   UNL     1      50.788   0.304  16.751  0.00  0.00    +0.000 HD
ENDBRANCH   2   5
BRANCH   3  16
ATOM     16  C   UNL     1      49.471   6.966  16.611  0.00  0.00    +0.000 C 
BRANCH  16  17
ATOM     17  C   UNL     1      48.548   6.188  15.711  0.00  0.00    +0.000 A 
ATOM     18  C   UNL     1      47.807   5.076  16.164  0.00  0.00    +0.000 A 
ATOM     19  C   UNL     1      46.988   4.351  15.278  0.00  0.00    +0.000 A 
ATOM     20  C   UNL     1      46.896   4.708  13.922  0.00  0.00    +0.000 A 
ATOM     21  C   UNL     1      47.616   5.829  13.500  0.00  0.00    +0.000 A 
ATOM     22  F   UNL     1      47.504   6.256  12.231  0.00  0.00    +0.000 F 
ATOM     23  C   UNL     1      48.432   6.550  14.365  0.00  0.00    +0.000 A 
BRANCH  20  24
ATOM     24  C   UNL     1      45.983   4.000  12.950  0.00  0.00    +0.000 C 
BRANCH  24  25
ATOM     25  N   UNL     1      44.538   4.182  13.055  0.00  0.00    +0.000 NA
ATOM     26  C   UNL     1      43.687   3.229  12.349  0.00  0.00    +0.000 C 
ATOM     27  C   UNL     1      43.274   3.702  10.952  0.00  0.00    +0.000 C 
ATOM     28  O   UNL     1      42.585   4.953  11.024  0.00  0.00    +0.000 OA
ATOM     29  C   UNL     1      43.408   5.965  11.622  0.00  0.00    +0.000 C 
ATOM     30  C   UNL     1      44.000   5.542  12.982  0.00  0.00    +0.000 C 
ENDBRANCH  24  25
ENDBRANCH  20  24
ENDBRANCH  16  17
ENDBRANCH   3  16
TORSDOF 5
ENDMDL
MODEL 5
REMARK VINA RESULT:    -7.029      4.970     10.021
REMARK INTER + INTRA:          -9.704
REMARK INTER:                  -8.941
REMARK INTRA:                  -0.764
REMARK UNBOUND:                -0.621
REMARK  Name = 
REMARK  5 active torsions:
REMARK  status: ('A' for Active; 'I' for Inactive)
REMARK    1  A    between atoms: C_2  and  C_19
REMARK    2  A    between atoms: N_3  and  C_4
REMARK    3  A    between atoms: C_4  and  C_5
REMARK    4  A    between atoms: C_8  and  C_9
REMARK    5  A    between atoms: C_9  and  N_10
REMARK                            x       y       z     vdW  Elec       q    Type
REMARK                         _______ _______ _______ _____ _____    ______ ____
ROOT
ATOM      1  O   UNL     1      47.226   3.193  13.922  0.00  0.00    +0.000 OA
ATOM      2  C   UNL     1      46.846   4.251  14.417  0.00  0.00    +0.000 C 
ATOM      3  N   UNL     1      46.928   4.497  15.764  0.00  0.00    +0.000 N 
ATOM      4  H   UNL     1      46.462   5.312  16.150  0.00  0.00    +0.000 HD
ENDROOT
BRANCH   2   5
ATOM      5  C   UNL     1      46.291   5.323  13.578  0.00  0.00    +0.000 A 
ATOM      6  C   UNL     1      47.066   6.434  13.267  0.00  0.00    +0.000 A 
ATOM      7  S   UNL     1      46.285   7.548  12.238  0.00  0.00    +0.000 S 
ATOM      8  C   UNL     1      44.898   6.569  12.144  0.00  0.00    +0.000 A 
ATOM      9  N   UNL     1      43.845   6.923  11.358  0.00  0.00    +0.000 NA
ATOM     10  C   UNL     1      42.877   6.067  11.347  0.00  0.00    +0.000 A 
ATOM     11  N   UNL     1      42.861   4.900  12.064  0.00  0.00    +0.000 N 
ATOM     12  C   UNL     1      43.877   4.527  12.910  0.00  0.00    +0.000 A 
ATOM     13  O   UNL     1      43.790   3.519  13.605  0.00  0.00    +0.000 OA
ATOM     14  C   UNL     1      45.011   5.430  12.920  0.00  0.00    +0.000 A 
ATOM     15  H   UNL     1      42.058   4.288  12.035  0.00  0.00    +0.000 HD
ENDBRANCH   2   5
BRANCH   3  16
ATOM     16  C   UNL     1      47.290   3.451  16.694  0.00  0.00    +0.000 C 
BRANCH  16  17
ATOM     17  C   UNL     1      48.758   3.500  17.023  0.00  0.00    +0.000 A 
ATOM     18  C   UNL     1      49.563   2.342  17.072  0.00  0.00    +0.000 A 
ATOM     19  C   UNL     1      50.922   2.427  17.426  0.00  0.00    +0.000 A 
ATOM     20  C   UNL     1      51.509   3.663  17.750  0.00  0.00    +0.000 A 
ATOM     21  C   UNL     1      50.701   4.801  17.669  0.00  0.00    +0.000 A 
ATOM     22  F   UNL     1      51.232   6.014  17.895  0.00  0.00    +0.000 F 
ATOM     23  C   UNL     1      49.356   4.728  17.325  0.00  0.00    +0.000 A 
BRANCH  20  24
ATOM     24  C   UNL     1      52.976   3.812  18.073  0.00  0.00    +0.000 C 
BRANCH  24  25
ATOM     25  N   UNL     1      53.425   3.693  19.458  0.00  0.00    +0.000 NA
ATOM     26  C   UNL     1      52.572   4.268  20.493  0.00  0.00    +0.000 C 
ATOM     27  C   UNL     1      52.962   5.698  20.877  0.00  0.00    +0.000 C 
ATOM     28  O   UNL     1      54.318   5.749  21.331  0.00  0.00    +0.000 OA
ATOM     29  C   UNL     1      55.222   5.287  20.316  0.00  0.00    +0.000 C 
ATOM     30  C   UNL     1      54.845   3.903  19.750  0.00  0.00    +0.000 C 
ENDBRANCH  24  25
ENDBRANCH  20  24
ENDBRANCH  16  17
ENDBRANCH   3  16
TORSDOF 5
ENDMDL
MODEL 6
REMARK VINA RESULT:    -6.936      4.457      9.870
REMARK INTER + INTRA:          -9.583
REMARK INTER:                  -8.697
REMARK INTRA:                  -0.887
REMARK UNBOUND:                -0.621
REMARK  Name = 
REMARK  5 active torsions:
REMARK  status: ('A' for Active; 'I' for Inactive)
REMARK    1  A    between atoms: C_2  and  C_19
REMARK    2  A    between atoms: N_3  and  C_4
REMARK    3  A    between atoms: C_4  and  C_5
REMARK    4  A    between atoms: C_8  and  C_9
REMARK    5  A    between atoms: C_9  and  N_10
REMARK                            x       y       z     vdW  Elec       q    Type
REMARK                         _______ _______ _______ _____ _____    ______ ____
ROOT
ATOM      1  O   UNL     1      47.898   6.953  11.910  0.00  0.00    +0.000 OA
ATOM      2  C   UNL     1      47.028   6.561  12.686  0.00  0.00    +0.000 C 
ATOM      3  N   UNL     1      47.243   6.478  14.038  0.00  0.00    +0.000 N 
ATOM      4  H   UNL     1      46.560   6.004  14.622  0.00  0.00    +0.000 HD
ENDROOT
BRANCH   2   5
ATOM      5  C   UNL     1      45.698   6.170  12.198  0.00  0.00    +0.000 A 
ATOM      6  C   UNL     1      44.889   7.105  11.564  0.00  0.00    +0.000 A 
ATOM      7  S   UNL     1      43.407   6.466  11.012  0.00  0.00    +0.000 S 
ATOM      8  C   UNL     1      43.809   4.911  11.571  0.00  0.00    +0.000 A 
ATOM      9  N   UNL     1      42.976   3.855  11.360  0.00  0.00    +0.000 NA
ATOM     10  C   UNL     1      43.425   2.727  11.798  0.00  0.00    +0.000 A 
ATOM     11  N   UNL     1      44.624   2.562  12.442  0.00  0.00    +0.000 N 
ATOM     12  C   UNL     1      45.472   3.605  12.723  0.00  0.00    +0.000 A 
ATOM     13  O   UNL     1      46.495   3.435  13.379  0.00  0.00    +0.000 OA
ATOM     14  C   UNL     1      45.036   4.887  12.207  0.00  0.00    +0.000 A 
ATOM     15  H   UNL     1      44.903   1.654  12.788  0.00  0.00    +0.000 HD
ENDBRANCH   2   5
BRANCH   3  16
ATOM     16  C   UNL     1      48.561   6.667  14.599  0.00  0.00    +0.000 C 
BRANCH  16  17
ATOM     17  C   UNL     1      48.654   6.077  15.982  0.00  0.00    +0.000 A 
ATOM     18  C   UNL     1      49.602   6.515  16.931  0.00  0.00    +0.000 A 
ATOM     19  C   UNL     1      49.682   5.907  18.197  0.00  0.00    +0.000 A 
ATOM     20  C   UNL     1      48.830   4.844  18.545  0.00  0.00    +0.000 A 
ATOM     21  C   UNL     1      47.881   4.443  17.600  0.00  0.00    +0.000 A 
ATOM     22  F   UNL     1      46.995   3.483  17.910  0.00  0.00    +0.000 F 
ATOM     23  C   UNL     1      47.796   5.034  16.344  0.00  0.00    +0.000 A 
BRANCH  20  24
ATOM     24  C   UNL     1      48.837   4.204  19.912  0.00  0.00    +0.000 C 
BRANCH  24  25
ATOM     25  N   UNL     1      48.383   4.971  21.069  0.00  0.00    +0.000 NA
ATOM     26  C   UNL     1      47.244   5.864  20.879  0.00  0.00    +0.000 C 
ATOM     27  C   UNL     1      47.649   7.303  20.548  0.00  0.00    +0.000 C 
ATOM     28  O   UNL     1      48.480   7.845  21.580  0.00  0.00    +0.000 OA
ATOM     29  C   UNL     1      49.672   7.065  21.749  0.00  0.00    +0.000 C 
ATOM     30  C   UNL     1      49.391   5.562  21.952  0.00  0.00    +0.000 C 
ENDBRANCH  24  25
ENDBRANCH  20  24
ENDBRANCH  16  17
ENDBRANCH   3  16
TORSDOF 5
ENDMDL
MODEL 7
REMARK VINA RESULT:    -6.795      4.273      8.924
REMARK INTER + INTRA:          -9.402
REMARK INTER:                  -8.335
REMARK INTRA:                  -1.067
REMARK UNBOUND:                -0.621
REMARK  Name = 
REMARK  5 active torsions:
REMARK  status: ('A' for Active; 'I' for Inactive)
REMARK    1  A    between atoms: C_2  and  C_19
REMARK    2  A    between atoms: N_3  and  C_4
REMARK    3  A    between atoms: C_4  and  C_5
REMARK    4  A    between atoms: C_8  and  C_9
REMARK    5  A    between atoms: C_9  and  N_10
REMARK                            x       y       z     vdW  Elec       q    Type
REMARK                         _______ _______ _______ _____ _____    ______ ____
ROOT
ATOM      1  O   UNL     1      45.418   7.988  11.834  0.00  0.00    +0.000 OA
ATOM      2  C   UNL     1      46.126   7.029  11.536  0.00  0.00    +0.000 C 
ATOM      3  N   UNL     1      47.466   6.994  11.829  0.00  0.00    +0.000 N 
ATOM      4  H   UNL     1      48.043   6.260  11.429  0.00  0.00    +0.000 HD
ENDROOT
BRANCH   2   5
ATOM      5  C   UNL     1      45.562   5.853  10.857  0.00  0.00    +0.000 A 
ATOM      6  C   UNL     1      45.864   5.611   9.522  0.00  0.00    +0.000 A 
ATOM      7  S   UNL     1      45.173   4.176   8.913  0.00  0.00    +0.000 S 
ATOM      8  C   UNL     1      44.476   3.809  10.421  0.00  0.00    +0.000 A 
ATOM      9  N   UNL     1      43.779   2.655  10.606  0.00  0.00    +0.000 NA
ATOM     10  C   UNL     1      43.342   2.484  11.810  0.00  0.00    +0.000 A 
ATOM     11  N   UNL     1      43.525   3.371  12.839  0.00  0.00    +0.000 N 
ATOM     12  C   UNL     1      44.176   4.571  12.686  0.00  0.00    +0.000 A 
ATOM     13  O   UNL     1      44.245   5.381  13.605  0.00  0.00    +0.000 OA
ATOM     14  C   UNL     1      44.729   4.788  11.363  0.00  0.00    +0.000 A 
ATOM     15  H   UNL     1      43.131   3.191  13.751  0.00  0.00    +0.000 HD
ENDBRANCH   2   5
BRANCH   3  16
ATOM     16  C   UNL     1      48.152   8.162  12.331  0.00  0.00    +0.000 C 
BRANCH  16  17
ATOM     17  C   UNL     1      48.517   7.997  13.783  0.00  0.00    +0.000 A 
ATOM     18  C   UNL     1      49.432   7.019  14.227  0.00  0.00    +0.000 A 
ATOM     19  C   UNL     1      49.712   6.871  15.598  0.00  0.00    +0.000 A 
ATOM     20  C   UNL     1      49.082   7.682  16.558  0.00  0.00    +0.000 A 
ATOM     21  C   UNL     1      48.200   8.663  16.094  0.00  0.00    +0.000 A 
ATOM     22  F   UNL     1      47.629   9.512  16.963  0.00  0.00    +0.000 F 
ATOM     23  C   UNL     1      47.912   8.815  14.742  0.00  0.00    +0.000 A 
BRANCH  20  24
ATOM     24  C   UNL     1      49.398   7.602  18.031  0.00  0.00    +0.000 C 
BRANCH  24  25
ATOM     25  N   UNL     1      48.884   6.485  18.820  0.00  0.00    +0.000 NA
ATOM     26  C   UNL     1      49.796   5.380  19.094  0.00  0.00    +0.000 C 
ATOM     27  C   UNL     1      49.686   4.236  18.082  0.00  0.00    +0.000 C 
ATOM     28  O   UNL     1      48.352   3.720  18.044  0.00  0.00    +0.000 OA
ATOM     29  C   UNL     1      47.412   4.741  17.680  0.00  0.00    +0.000 C 
ATOM     30  C   UNL     1      47.525   6.010  18.550  0.00  0.00    +0.000 C 
ENDBRANCH  24  25
ENDBRANCH  20  24
ENDBRANCH  16  17
ENDBRANCH   3  16
TORSDOF 5
ENDMDL
MODEL 8
REMARK VINA RESULT:    -6.699      4.343     10.040
REMARK INTER + INTRA:          -9.278
REMARK INTER:                  -8.314
REMARK INTRA:                  -0.964
REMARK UNBOUND:                -0.621
REMARK  Name = 
REMARK  5 active torsions:
REMARK  status: ('A' for Active; 'I' for Inactive)
REMARK    1  A    between atoms: C_2  and  C_19
REMARK    2  A    between atoms: N_3  and  C_4
REMARK    3  A    between atoms: C_4  and  C_5
REMARK    4  A    between atoms: C_8  and  C_9
REMARK    5  A    between atoms: C_9  and  N_10
REMARK                            x       y       z     vdW  Elec       q    Type
REMARK                         _______ _______ _______ _____ _____    ______ ____
ROOT
ATOM      1  O   UNL     1      48.432   5.757  13.907  0.00  0.00    +0.000 OA
ATOM      2  C   UNL     1      47.268   5.414  14.104  0.00  0.00    +0.000 C 
ATOM      3  N   UNL     1      46.896   4.707  15.219  0.00  0.00    +0.000 N 
ATOM      4  H   UNL     1      45.964   4.308  15.267  0.00  0.00    +0.000 HD
ENDROOT
BRANCH   2   5
ATOM      5  C   UNL     1      46.204   5.760  13.151  0.00  0.00    +0.000 A 
ATOM      6  C   UNL     1      45.940   7.093  12.859  0.00  0.00    +0.000 A 
ATOM      7  S   UNL     1      44.716   7.308  11.692  0.00  0.00    +0.000 S 
ATOM      8  C   UNL     1      44.520   5.629  11.510  0.00  0.00    +0.000 A 
ATOM      9  N   UNL     1      43.645   5.122  10.598  0.00  0.00    +0.000 NA
ATOM     10  C   UNL     1      43.629   3.832  10.536  0.00  0.00    +0.000 A 
ATOM     11  N   UNL     1      44.396   3.004  11.314  0.00  0.00    +0.000 N 
ATOM     12  C   UNL     1      45.253   3.469  12.282  0.00  0.00    +0.000 A 
ATOM     13  O   UNL     1      45.858   2.699  13.021  0.00  0.00    +0.000 OA
ATOM     14  C   UNL     1      45.345   4.914  12.358  0.00  0.00    +0.000 A 
ATOM     15  H   UNL     1      44.313   2.000  11.236  0.00  0.00    +0.000 HD
ENDBRANCH   2   5
BRANCH   3  16
ATOM     16  C   UNL     1      47.884   4.165  16.124  0.00  0.00    +0.000 C 
BRANCH  16  17
ATOM     17  C   UNL     1      48.161   5.114  17.260  0.00  0.00    +0.000 A 
ATOM     18  C   UNL     1      49.278   5.976  17.272  0.00  0.00    +0.000 A 
ATOM     19  C   UNL     1      49.522   6.818  18.374  0.00  0.00    +0.000 A 
ATOM     20  C   UNL     1      48.668   6.813  19.491  0.00  0.00    +0.000 A 
ATOM     21  C   UNL     1      47.553   5.971  19.447  0.00  0.00    +0.000 A 
ATOM     22  F   UNL     1      46.667   5.984  20.455  0.00  0.00    +0.000 F 
ATOM     23  C   UNL     1      47.305   5.132  18.366  0.00  0.00    +0.000 A 
BRANCH  20  24
ATOM     24  C   UNL     1      48.854   7.742  20.666  0.00  0.00    +0.000 C 
BRANCH  24  25
ATOM     25  N   UNL     1      48.596   9.170  20.504  0.00  0.00    +0.000 NA
ATOM     26  C   UNL     1      47.396   9.557  19.768  0.00  0.00    +0.000 C 
ATOM     27  C   UNL     1      47.652   9.810  18.279  0.00  0.00    +0.000 C 
ATOM     28  O   UNL     1      48.639  10.831  18.101  0.00  0.00    +0.000 OA
ATOM     29  C   UNL     1      49.880  10.465  18.720  0.00  0.00    +0.000 C 
ATOM     30  C   UNL     1      49.725  10.052  20.198  0.00  0.00    +0.000 C 
ENDBRANCH  24  25
ENDBRANCH  20  24
ENDBRANCH  16  17
ENDBRANCH   3  16
TORSDOF 5
ENDMDL
MODEL 9
REMARK VINA RESULT:    -6.679      5.046      6.114
REMARK INTER + INTRA:          -9.252
REMARK INTER:                  -8.575
REMARK INTRA:                  -0.677
REMARK UNBOUND:                -0.621
REMARK  Name = 
REMARK  5 active torsions:
REMARK  status: ('A' for Active; 'I' for Inactive)
REMARK    1  A    between atoms: C_2  and  C_19
REMARK    2  A    between atoms: N_3  and  C_4
REMARK    3  A    between atoms: C_4  and  C_5
REMARK    4  A    between atoms: C_8  and  C_9
REMARK    5  A    between atoms: C_9  and  N_10
REMARK                            x       y       z     vdW  Elec       q    Type
REMARK                         _______ _______ _______ _____ _____    ______ ____
ROOT
ATOM      1  O   UNL     1      46.574   3.177  17.174  0.00  0.00    +0.000 OA
ATOM      2  C   UNL     1      47.246   4.191  16.997  0.00  0.00    +0.000 C 
ATOM      3  N   UNL     1      47.380   4.769  15.760  0.00  0.00    +0.000 N 
ATOM      4  H   UNL     1      48.065   5.506  15.627  0.00  0.00    +0.000 HD
ENDROOT
BRANCH   2   5
ATOM      5  C   UNL     1      47.935   4.849  18.116  0.00  0.00    +0.000 A 
ATOM      6  C   UNL     1      47.241   5.727  18.940  0.00  0.00    +0.000 A 
ATOM      7  S   UNL     1      48.179   6.352  20.220  0.00  0.00    +0.000 S 
ATOM      8  C   UNL     1      49.535   5.444  19.739  0.00  0.00    +0.000 A 
ATOM      9  N   UNL     1      50.689   5.475  20.461  0.00  0.00    +0.000 NA
ATOM     10  C   UNL     1      51.622   4.706  20.007  0.00  0.00    +0.000 A 
ATOM     11  N   UNL     1      51.511   3.923  18.888  0.00  0.00    +0.000 N 
ATOM     12  C   UNL     1      50.386   3.899  18.100  0.00  0.00    +0.000 A 
ATOM     13  O   UNL     1      50.353   3.255  17.056  0.00  0.00    +0.000 OA
ATOM     14  C   UNL     1      49.290   4.709  18.594  0.00  0.00    +0.000 A 
ATOM     15  H   UNL     1      52.291   3.366  18.569  0.00  0.00    +0.000 HD
ENDBRANCH   2   5
BRANCH   3  16
ATOM     16  C   UNL     1      46.894   4.108  14.570  0.00  0.00    +0.000 C 
BRANCH  16  17
ATOM     17  C   UNL     1      46.318   5.100  13.594  0.00  0.00    +0.000 A 
ATOM     18  C   UNL     1      47.101   6.101  12.980  0.00  0.00    +0.000 A 
ATOM     19  C   UNL     1      46.514   7.035  12.106  0.00  0.00    +0.000 A 
ATOM     20  C   UNL     1      45.136   7.002  11.831  0.00  0.00    +0.000 A 
ATOM     21  C   UNL     1      44.384   5.985  12.428  0.00  0.00    +0.000 A 
ATOM     22  F   UNL     1      43.078   5.865  12.139  0.00  0.00    +0.000 F 
ATOM     23  C   UNL     1      44.952   5.061  13.297  0.00  0.00    +0.000 A 
BRANCH  20  24
ATOM     24  C   UNL     1      44.475   7.941  10.852  0.00  0.00    +0.000 C 
BRANCH  24  25
ATOM     25  N   UNL     1      43.910   9.201  11.330  0.00  0.00    +0.000 NA
ATOM     26  C   UNL     1      42.708   9.694  10.667  0.00  0.00    +0.000 C 
ATOM     27  C   UNL     1      43.000  10.681   9.533  0.00  0.00    +0.000 C 
ATOM     28  O   UNL     1      43.740  11.805  10.019  0.00  0.00    +0.000 OA
ATOM     29  C   UNL     1      44.987  11.395  10.598  0.00  0.00    +0.000 C 
ATOM     30  C   UNL     1      44.828  10.293  11.665  0.00  0.00    +0.000 C 
ENDBRANCH  24  25
ENDBRANCH  20  24
ENDBRANCH  16  17
ENDBRANCH   3  16
TORSDOF 5
ENDMDL
