MODEL 1
REMARK VINA RESULT:    -7.570      0.000      0.000
REMARK INTER + INTRA:         -10.478
REMARK INTER:                  -9.782
REMARK INTRA:                  -0.696
REMARK UNBOUND:                -0.696
REMARK  Name = 
REMARK  6 active torsions:
REMARK  status: ('A' for Active; 'I' for Inactive)
REMARK    1  A    between atoms: C_1  and  C_2
REMARK    2  A    between atoms: C_4  and  C_5
REMARK    3  A    between atoms: C_10  and  N_11
REMARK    4  A    between atoms: N_11  and  C_12
REMARK    5  A    between atoms: C_12  and  C_13
REMARK    6  A    between atoms: C_17  and  N_18
REMARK                            x       y       z     vdW  Elec       q    Type
REMARK                         _______ _______ _______ _____ _____    ______ ____
ROOT
ATOM      1  N   UNL     1      44.222   4.974   9.980  0.00  0.00    +0.000 N 
ATOM      2  H   UNL     1      43.296   5.197   9.639  0.00  0.00    +0.000 HD
ENDROOT
BRANCH   1   9
ATOM      3  C   UNL     1      44.074   2.056  10.222  0.00  0.00    +0.000 C 
ATOM      4  C   UNL     1      44.952   2.777   9.239  0.00  0.00    +0.000 A 
ATOM      5  C   UNL     1      45.788   2.017   8.401  0.00  0.00    +0.000 A 
ATOM      6  C   UNL     1      46.641   2.640   7.492  0.00  0.00    +0.000 A 
ATOM      7  C   UNL     1      46.614   4.021   7.468  0.00  0.00    +0.000 A 
ATOM      8  N   UNL     1      45.815   4.782   8.256  0.00  0.00    +0.000 NA
ATOM      9  C   UNL     1      44.980   4.177   9.128  0.00  0.00    +0.000 A 
BRANCH   6  10
ATOM     10  C   UNL     1      47.509   1.812   6.620  0.00  0.00    +0.000 C 
ATOM     11  N   UNL     1      48.530   2.409   5.935  0.00  0.00    +0.000 N 
ATOM     12  O   UNL     1      47.319   0.601   6.504  0.00  0.00    +0.000 OA
ATOM     13  H   UNL     1      48.777   3.383   5.962  0.00  0.00    +0.000 HD
ATOM     14  H   UNL     1      49.094   1.801   5.351  0.00  0.00    +0.000 HD
ENDBRANCH   6  10
ENDBRANCH   1   9
BRANCH   1  15
ATOM     15  C   UNL     1      44.880   6.063  10.696  0.00  0.00    +0.000 C 
BRANCH  15  16
ATOM     16  C   UNL     1      45.526   5.705  12.016  0.00  0.00    +0.000 A 
ATOM     17  C   UNL     1      45.132   4.524  12.644  0.00  0.00    +0.000 A 
ATOM     18  N   UNL     1      45.696   4.024  13.761  0.00  0.00    +0.000 NA
ATOM     19  C   UNL     1      46.742   4.720  14.265  0.00  0.00    +0.000 A 
ATOM     20  C   UNL     1      47.274   5.900  13.733  0.00  0.00    +0.000 A 
ATOM     21  C   UNL     1      46.615   6.384  12.589  0.00  0.00    +0.000 A 
BRANCH  20  22
ATOM     22  N   UNL     1      48.391   6.509  14.259  0.00  0.00    +0.000 N 
ATOM     23  C   UNL     1      48.739   6.481  15.687  0.00  0.00    +0.000 C 
ATOM     24  C   UNL     1      49.021   7.907  16.189  0.00  0.00    +0.000 C 
ATOM     25  O   UNL     1      50.004   8.577  15.379  0.00  0.00    +0.000 OA
ATOM     26  C   UNL     1      49.556   8.652  14.016  0.00  0.00    +0.000 C 
ATOM     27  C   UNL     1      49.341   7.252  13.416  0.00  0.00    +0.000 C 
ENDBRANCH  20  22
ENDBRANCH  15  16
ENDBRANCH   1  15
TORSDOF 5
ENDMDL
MODEL 2
REMARK VINA RESULT:    -7.191      1.401      2.160
REMARK INTER + INTRA:          -9.989
REMARK INTER:                  -9.001
REMARK INTRA:                  -0.987
REMARK UNBOUND:                -0.696
REMARK  Name = 
REMARK  6 active torsions:
REMARK  status: ('A' for Active; 'I' for Inactive)
REMARK    1  A    between atoms: C_1  and  C_2
REMARK    2  A    between atoms: C_4  and  C_5
REMARK    3  A    between atoms: C_10  and  N_11
REMARK    4  A    between atoms: N_11  and  C_12
REMARK    5  A    between atoms: C_12  and  C_13
REMARK    6  A    between atoms: C_17  and  N_18
REMARK                            x       y       z     vdW  Elec       q    Type
REMARK                         _______ _______ _______ _____ _____    ______ ____
ROOT
ATOM      1  N   UNL     1      43.627   4.784   9.994  0.00  0.00    +0.000 N 
ATOM      2  H   UNL     1      43.707   5.698   9.569  0.00  0.00    +0.000 HD
ENDROOT
BRANCH   1   9
ATOM      3  C   UNL     1      46.145   5.582   8.724  0.00  0.00    +0.000 C 
ATOM      4  C   UNL     1      45.653   4.165   8.804  0.00  0.00    +0.000 A 
ATOM      5  C   UNL     1      46.421   3.152   8.202  0.00  0.00    +0.000 A 
ATOM      6  C   UNL     1      45.994   1.826   8.224  0.00  0.00    +0.000 A 
ATOM      7  C   UNL     1      44.793   1.575   8.859  0.00  0.00    +0.000 A 
ATOM      8  N   UNL     1      44.033   2.528   9.454  0.00  0.00    +0.000 NA
ATOM      9  C   UNL     1      44.454   3.810   9.443  0.00  0.00    +0.000 A 
BRANCH   6  10
ATOM     10  C   UNL     1      46.828   0.779   7.584  0.00  0.00    +0.000 C 
ATOM     11  N   UNL     1      47.767   1.147   6.661  0.00  0.00    +0.000 N 
ATOM     12  O   UNL     1      46.682  -0.409   7.870  0.00  0.00    +0.000 OA
ATOM     13  H   UNL     1      47.973   2.084   6.361  0.00  0.00    +0.000 HD
ATOM     14  H   UNL     1      48.310   0.396   6.250  0.00  0.00    +0.000 HD
ENDBRANCH   6  10
ENDBRANCH   1   9
BRANCH   1  15
ATOM     15  C   UNL     1      43.434   4.807  11.442  0.00  0.00    +0.000 C 
BRANCH  15  16
ATOM     16  C   UNL     1      44.688   4.855  12.285  0.00  0.00    +0.000 A 
ATOM     17  C   UNL     1      45.104   3.684  12.916  0.00  0.00    +0.000 A 
ATOM     18  N   UNL     1      46.255   3.550  13.604  0.00  0.00    +0.000 NA
ATOM     19  C   UNL     1      47.062   4.637  13.636  0.00  0.00    +0.000 A 
ATOM     20  C   UNL     1      46.801   5.870  13.026  0.00  0.00    +0.000 A 
ATOM     21  C   UNL     1      45.567   5.950  12.357  0.00  0.00    +0.000 A 
BRANCH  20  22
ATOM     22  N   UNL     1      47.708   6.906  13.039  0.00  0.00    +0.000 N 
ATOM     23  C   UNL     1      48.195   7.578  11.825  0.00  0.00    +0.000 C 
ATOM     24  C   UNL     1      49.732   7.630  11.834  0.00  0.00    +0.000 C 
ATOM     25  O   UNL     1      50.243   8.211  13.048  0.00  0.00    +0.000 OA
ATOM     26  C   UNL     1      49.805   7.449  14.185  0.00  0.00    +0.000 C 
ATOM     27  C   UNL     1      48.270   7.431  14.293  0.00  0.00    +0.000 C 
ENDBRANCH  20  22
ENDBRANCH  15  16
ENDBRANCH   1  15
TORSDOF 5
ENDMDL
MODEL 3
REMARK VINA RESULT:    -6.852      3.701      8.202
REMARK INTER + INTRA:          -9.551
REMARK INTER:                  -8.761
REMARK INTRA:                  -0.790
REMARK UNBOUND:                -0.696
REMARK  Name = 
REMARK  6 active torsions:
REMARK  status: ('A' for Active; 'I' for Inactive)
REMARK    1  A    between atoms: C_1  and  C_2
REMARK    2  A    between atoms: C_4  and  C_5
REMARK    3  A    between atoms: C_10  and  N_11
REMARK    4  A    between atoms: N_11  and  C_12
REMARK    5  A    between atoms: C_12  and  C_13
REMARK    6  A    between atoms: C_17  and  N_18
REMARK                            x       y       z     vdW  Elec       q    Type
REMARK                         _______ _______ _______ _____ _____    ______ ____
ROOT
ATOM      1  N   UNL     1      48.486   6.094  16.426  0.00  0.00    +0.000 N 
ATOM      2  H   UNL     1      47.496   5.910  16.518  0.00  0.00    +0.000 HD
ENDROOT
BRANCH   1   9
ATOM      3  C   UNL     1      47.310   3.455  16.920  0.00  0.00    +0.000 C 
ATOM      4  C   UNL     1      48.775   3.763  17.052  0.00  0.00    +0.000 A 
ATOM      5  C   UNL     1      49.642   2.740  17.474  0.00  0.00    +0.000 A 
ATOM      6  C   UNL     1      51.004   2.983  17.638  0.00  0.00    +0.000 A 
ATOM      7  C   UNL     1      51.438   4.266  17.368  0.00  0.00    +0.000 A 
ATOM      8  N   UNL     1      50.630   5.272  16.953  0.00  0.00    +0.000 NA
ATOM      9  C   UNL     1      49.313   5.032  16.782  0.00  0.00    +0.000 A 
BRANCH   6  10
ATOM     10  C   UNL     1      51.894   1.882  18.082  0.00  0.00    +0.000 C 
ATOM     11  N   UNL     1      51.488   0.587  17.914  0.00  0.00    +0.000 N 
ATOM     12  O   UNL     1      52.986   2.120  18.599  0.00  0.00    +0.000 OA
ATOM     13  H   UNL     1      50.625   0.283  17.499  0.00  0.00    +0.000 HD
ATOM     14  H   UNL     1      52.130  -0.129  18.234  0.00  0.00    +0.000 HD
ENDBRANCH   6  10
ENDBRANCH   1   9
BRANCH   1  15
ATOM     15  C   UNL     1      48.843   6.906  15.266  0.00  0.00    +0.000 C 
BRANCH  15  16
ATOM     16  C   UNL     1      47.972   6.744  14.041  0.00  0.00    +0.000 A 
ATOM     17  C   UNL     1      48.392   7.336  12.850  0.00  0.00    +0.000 A 
ATOM     18  N   UNL     1      47.778   7.185  11.660  0.00  0.00    +0.000 NA
ATOM     19  C   UNL     1      46.702   6.363  11.643  0.00  0.00    +0.000 A 
ATOM     20  C   UNL     1      46.180   5.673  12.743  0.00  0.00    +0.000 A 
ATOM     21  C   UNL     1      46.846   5.906  13.959  0.00  0.00    +0.000 A 
BRANCH  20  22
ATOM     22  N   UNL     1      45.126   4.794  12.631  0.00  0.00    +0.000 N 
ATOM     23  C   UNL     1      45.271   3.400  12.188  0.00  0.00    +0.000 C 
ATOM     24  C   UNL     1      44.268   3.098  11.062  0.00  0.00    +0.000 C 
ATOM     25  O   UNL     1      42.921   3.437  11.437  0.00  0.00    +0.000 OA
ATOM     26  C   UNL     1      42.833   4.834  11.765  0.00  0.00    +0.000 C 
ATOM     27  C   UNL     1      43.746   5.191  12.951  0.00  0.00    +0.000 C 
ENDBRANCH  20  22
ENDBRANCH  15  16
ENDBRANCH   1  15
TORSDOF 5
ENDMDL
MODEL 4
REMARK VINA RESULT:    -6.814      3.107      8.123
REMARK INTER + INTRA:          -9.502
REMARK INTER:                  -8.980
REMARK INTRA:                  -0.522
REMARK UNBOUND:                -0.696
REMARK  Name = 
REMARK  6 active torsions:
REMARK  status: ('A' for Active; 'I' for Inactive)
REMARK    1  A    between atoms: C_1  and  C_2
REMARK    2  A    between atoms: C_4  and  C_5
REMARK    3  A    between atoms: C_10  and  N_11
REMARK    4  A    between atoms: N_11  and  C_12
REMARK    5  A    between atoms: C_12  and  C_13
REMARK    6  A    between atoms: C_17  and  N_18
REMARK                            x       y       z     vdW  Elec       q    Type
REMARK                         _______ _______ _______ _____ _____    ______ ____
ROOT
ATOM      1  N   UNL     1      46.581   4.635  15.319  0.00  0.00    +0.000 N 
ATOM      2  H   UNL     1      45.678   4.268  15.587  0.00  0.00    +0.000 HD
ENDROOT
BRANCH   1   9
ATOM      3  C   UNL     1      48.394   6.236  16.974  0.00  0.00    +0.000 C 
ATOM      4  C   UNL     1      48.568   4.767  16.712  0.00  0.00    +0.000 A 
ATOM      5  C   UNL     1      49.688   4.115  17.259  0.00  0.00    +0.000 A 
ATOM      6  C   UNL     1      49.909   2.760  17.021  0.00  0.00    +0.000 A 
ATOM      7  C   UNL     1      48.980   2.113  16.230  0.00  0.00    +0.000 A 
ATOM      8  N   UNL     1      47.887   2.711  15.695  0.00  0.00    +0.000 NA
ATOM      9  C   UNL     1      47.667   4.020  15.936  0.00  0.00    +0.000 A 
BRANCH   6  10
ATOM     10  C   UNL     1      51.098   2.099  17.614  0.00  0.00    +0.000 C 
ATOM     11  N   UNL     1      51.884   2.799  18.486  0.00  0.00    +0.000 N 
ATOM     12  O   UNL     1      51.383   0.936  17.329  0.00  0.00    +0.000 OA
ATOM     13  H   UNL     1      51.739   3.746  18.791  0.00  0.00    +0.000 HD
ATOM     14  H   UNL     1      52.685   2.305  18.862  0.00  0.00    +0.000 HD
ENDBRANCH   6  10
ENDBRANCH   1   9
BRANCH   1  15
ATOM     15  C   UNL     1      46.689   5.002  13.910  0.00  0.00    +0.000 C 
BRANCH  15  16
ATOM     16  C   UNL     1      45.562   4.546  13.010  0.00  0.00    +0.000 A 
ATOM     17  C   UNL     1      44.252   4.816  13.405  0.00  0.00    +0.000 A 
ATOM     18  N   UNL     1      43.159   4.570  12.656  0.00  0.00    +0.000 NA
ATOM     19  C   UNL     1      43.382   4.059  11.423  0.00  0.00    +0.000 A 
ATOM     20  C   UNL     1      44.635   3.765  10.871  0.00  0.00    +0.000 A 
ATOM     21  C   UNL     1      45.728   4.012  11.720  0.00  0.00    +0.000 A 
BRANCH  20  22
ATOM     22  N   UNL     1      44.785   3.318   9.578  0.00  0.00    +0.000 N 
ATOM     23  C   UNL     1      44.762   1.898   9.198  0.00  0.00    +0.000 C 
ATOM     24  C   UNL     1      45.992   1.563   8.337  0.00  0.00    +0.000 C 
ATOM     25  O   UNL     1      46.117   2.450   7.211  0.00  0.00    +0.000 OA
ATOM     26  C   UNL     1      46.230   3.810   7.660  0.00  0.00    +0.000 C 
ATOM     27  C   UNL     1      44.986   4.246   8.454  0.00  0.00    +0.000 C 
ENDBRANCH  20  22
ENDBRANCH  15  16
ENDBRANCH   1  15
TORSDOF 5
ENDMDL
MODEL 5
REMARK VINA RESULT:    -6.738      1.829      2.637
REMARK INTER + INTRA:          -9.403
REMARK INTER:                  -8.692
REMARK INTRA:                  -0.712
REMARK UNBOUND:                -0.696
REMARK  Name = 
REMARK  6 active torsions:
REMARK  status: ('A' for Active; 'I' for Inactive)
REMARK    1  A    between atoms: C_1  and  C_2
REMARK    2  A    between atoms: C_4  and  C_5
REMARK    3  A    between atoms: C_10  and  N_11
REMARK    4  A    between atoms: N_11  and  C_12
REMARK    5  A    between atoms: C_12  and  C_13
REMARK    6  A    between atoms: C_17  and  N_18
REMARK                            x       y       z     vdW  Elec       q    Type
REMARK                         _______ _______ _______ _____ _____    ______ ____
ROOT
ATOM      1  N   UNL     1      42.957   5.331  11.321  0.00  0.00    +0.000 N 
ATOM      2  H   UNL     1      41.971   5.118  11.396  0.00  0.00    +0.000 HD
ENDROOT
BRANCH   1   9
ATOM      3  C   UNL     1      43.606   2.636  12.273  0.00  0.00    +0.000 C 
ATOM      4  C   UNL     1      44.029   3.184  10.939  0.00  0.00    +0.000 A 
ATOM      5  C   UNL     1      44.818   2.376  10.101  0.00  0.00    +0.000 A 
ATOM      6  C   UNL     1      45.259   2.849   8.866  0.00  0.00    +0.000 A 
ATOM      7  C   UNL     1      44.882   4.133   8.527  0.00  0.00    +0.000 A 
ATOM      8  N   UNL     1      44.116   4.934   9.310  0.00  0.00    +0.000 NA
ATOM      9  C   UNL     1      43.679   4.471  10.499  0.00  0.00    +0.000 A 
BRANCH   6  10
ATOM     10  C   UNL     1      46.087   1.972   8.003  0.00  0.00    +0.000 C 
ATOM     11  N   UNL     1      46.718   2.510   6.915  0.00  0.00    +0.000 N 
ATOM     12  O   UNL     1      46.211   0.773   8.251  0.00  0.00    +0.000 OA
ATOM     13  H   UNL     1      46.690   3.473   6.627  0.00  0.00    +0.000 HD
ATOM     14  H   UNL     1      47.270   1.871   6.355  0.00  0.00    +0.000 HD
ENDBRANCH   6  10
ENDBRANCH   1   9
BRANCH   1  15
ATOM     15  C   UNL     1      43.264   6.759  11.287  0.00  0.00    +0.000 C 
BRANCH  15  16
ATOM     16  C   UNL     1      44.618   7.167  11.821  0.00  0.00    +0.000 A 
ATOM     17  C   UNL     1      44.983   8.510  11.739  0.00  0.00    +0.000 A 
ATOM     18  N   UNL     1      46.105   9.035  12.271  0.00  0.00    +0.000 NA
ATOM     19  C   UNL     1      46.895   8.180  12.960  0.00  0.00    +0.000 A 
ATOM     20  C   UNL     1      46.651   6.816  13.159  0.00  0.00    +0.000 A 
ATOM     21  C   UNL     1      45.483   6.328  12.547  0.00  0.00    +0.000 A 
BRANCH  20  22
ATOM     22  N   UNL     1      47.465   6.025  13.939  0.00  0.00    +0.000 N 
ATOM     23  C   UNL     1      47.198   4.608  14.223  0.00  0.00    +0.000 C 
ATOM     24  C   UNL     1      47.276   4.351  15.737  0.00  0.00    +0.000 C 
ATOM     25  O   UNL     1      48.517   4.816  16.297  0.00  0.00    +0.000 OA
ATOM     26  C   UNL     1      48.669   6.227  16.065  0.00  0.00    +0.000 C 
ATOM     27  C   UNL     1      48.692   6.550  14.561  0.00  0.00    +0.000 C 
ENDBRANCH  20  22
ENDBRANCH  15  16
ENDBRANCH   1  15
TORSDOF 5
ENDMDL
MODEL 6
REMARK VINA RESULT:    -6.702      2.249      6.942
REMARK INTER + INTRA:          -9.357
REMARK INTER:                  -8.421
REMARK INTRA:                  -0.936
REMARK UNBOUND:                -0.696
REMARK  Name = 
REMARK  6 active torsions:
REMARK  status: ('A' for Active; 'I' for Inactive)
REMARK    1  A    between atoms: C_1  and  C_2
REMARK    2  A    between atoms: C_4  and  C_5
REMARK    3  A    between atoms: C_10  and  N_11
REMARK    4  A    between atoms: N_11  and  C_12
REMARK    5  A    between atoms: C_12  and  C_13
REMARK    6  A    between atoms: C_17  and  N_18
REMARK                            x       y       z     vdW  Elec       q    Type
REMARK                         _______ _______ _______ _____ _____    ______ ____
ROOT
ATOM      1  N   UNL     1      45.193   7.298  13.025  0.00  0.00    +0.000 N 
ATOM      2  H   UNL     1      45.022   6.855  13.918  0.00  0.00    +0.000 HD
ENDROOT
BRANCH   1   9
ATOM      3  C   UNL     1      47.120   5.200  13.718  0.00  0.00    +0.000 C 
ATOM      4  C   UNL     1      47.487   6.496  13.051  0.00  0.00    +0.000 A 
ATOM      5  C   UNL     1      48.842   6.747  12.771  0.00  0.00    +0.000 A 
ATOM      6  C   UNL     1      49.237   7.945  12.179  0.00  0.00    +0.000 A 
ATOM      7  C   UNL     1      48.235   8.851  11.894  0.00  0.00    +0.000 A 
ATOM      8  N   UNL     1      46.919   8.637  12.146  0.00  0.00    +0.000 NA
ATOM      9  C   UNL     1      46.537   7.471  12.707  0.00  0.00    +0.000 A 
BRANCH   6  10
ATOM     10  C   UNL     1      50.673   8.180  11.893  0.00  0.00    +0.000 C 
ATOM     11  N   UNL     1      51.368   9.076  12.656  0.00  0.00    +0.000 N 
ATOM     12  O   UNL     1      51.242   7.582  10.978  0.00  0.00    +0.000 OA
ATOM     13  H   UNL     1      51.005   9.609  13.427  0.00  0.00    +0.000 HD
ATOM     14  H   UNL     1      52.346   9.203  12.421  0.00  0.00    +0.000 HD
ENDBRANCH   6  10
ENDBRANCH   1   9
BRANCH   1  15
ATOM     15  C   UNL     1      44.265   6.902  11.969  0.00  0.00    +0.000 C 
BRANCH  15  16
ATOM     16  C   UNL     1      44.224   5.429  11.630  0.00  0.00    +0.000 A 
ATOM     17  C   UNL     1      43.515   4.576  12.477  0.00  0.00    +0.000 A 
ATOM     18  N   UNL     1      43.300   3.267  12.242  0.00  0.00    +0.000 NA
ATOM     19  C   UNL     1      43.786   2.781  11.076  0.00  0.00    +0.000 A 
ATOM     20  C   UNL     1      44.487   3.514  10.111  0.00  0.00    +0.000 A 
ATOM     21  C   UNL     1      44.707   4.864  10.436  0.00  0.00    +0.000 A 
BRANCH  20  22
ATOM     22  N   UNL     1      44.883   2.965   8.912  0.00  0.00    +0.000 N 
ATOM     23  C   UNL     1      45.057   1.522   8.692  0.00  0.00    +0.000 C 
ATOM     24  C   UNL     1      46.434   1.248   8.065  0.00  0.00    +0.000 C 
ATOM     25  O   UNL     1      46.650   2.032   6.878  0.00  0.00    +0.000 OA
ATOM     26  C   UNL     1      46.559   3.433   7.185  0.00  0.00    +0.000 C 
ATOM     27  C   UNL     1      45.169   3.800   7.733  0.00  0.00    +0.000 C 
ENDBRANCH  20  22
ENDBRANCH  15  16
ENDBRANCH   1  15
TORSDOF 5
ENDMDL
MODEL 7
REMARK VINA RESULT:    -6.702      3.412      4.365
REMARK INTER + INTRA:          -9.357
REMARK INTER:                  -8.788
REMARK INTRA:                  -0.569
REMARK UNBOUND:                -0.696
REMARK  Name = 
REMARK  6 active torsions:
REMARK  status: ('A' for Active; 'I' for Inactive)
REMARK    1  A    between atoms: C_1  and  C_2
REMARK    2  A    between atoms: C_4  and  C_5
REMARK    3  A    between atoms: C_10  and  N_11
REMARK    4  A    between atoms: N_11  and  C_12
REMARK    5  A    between atoms: C_12  and  C_13
REMARK    6  A    between atoms: C_17  and  N_18
REMARK                            x       y       z     vdW  Elec       q    Type
REMARK                         _______ _______ _______ _____ _____    ______ ____
ROOT
ATOM      1  N   UNL     1      44.486   5.012  10.266  0.00  0.00    +0.000 N 
ATOM      2  H   UNL     1      43.917   5.797   9.979  0.00  0.00    +0.000 HD
ENDROOT
BRANCH   1   9
ATOM      3  C   UNL     1      44.125   2.117   9.976  0.00  0.00    +0.000 C 
ATOM      4  C   UNL     1      44.995   2.953   9.079  0.00  0.00    +0.000 A 
ATOM      5  C   UNL     1      45.716   2.313   8.056  0.00  0.00    +0.000 A 
ATOM      6  C   UNL     1      46.558   3.039   7.216  0.00  0.00    +0.000 A 
ATOM      7  C   UNL     1      46.639   4.398   7.450  0.00  0.00    +0.000 A 
ATOM      8  N   UNL     1      45.951   5.046   8.423  0.00  0.00    +0.000 NA
ATOM      9  C   UNL     1      45.126   4.343   9.227  0.00  0.00    +0.000 A 
BRANCH   6  10
ATOM     10  C   UNL     1      47.304   2.337   6.144  0.00  0.00    +0.000 C 
ATOM     11  N   UNL     1      48.574   1.897   6.393  0.00  0.00    +0.000 N 
ATOM     12  O   UNL     1      46.796   2.148   5.038  0.00  0.00    +0.000 OA
ATOM     13  H   UNL     1      49.079   1.991   7.257  0.00  0.00    +0.000 HD
ATOM     14  H   UNL     1      49.043   1.425   5.629  0.00  0.00    +0.000 HD
ENDBRANCH   6  10
ENDBRANCH   1   9
BRANCH   1  15
ATOM     15  C   UNL     1      45.205   5.217  11.520  0.00  0.00    +0.000 C 
BRANCH  15  16
ATOM     16  C   UNL     1      45.361   6.650  11.978  0.00  0.00    +0.000 A 
ATOM     17  C   UNL     1      46.350   6.938  12.918  0.00  0.00    +0.000 A 
ATOM     18  N   UNL     1      46.676   8.179  13.332  0.00  0.00    +0.000 NA
ATOM     19  C   UNL     1      46.005   9.199  12.749  0.00  0.00    +0.000 A 
ATOM     20  C   UNL     1      45.012   9.074  11.770  0.00  0.00    +0.000 A 
ATOM     21  C   UNL     1      44.697   7.752  11.411  0.00  0.00    +0.000 A 
BRANCH  20  22
ATOM     22  N   UNL     1      44.427  10.166  11.168  0.00  0.00    +0.000 N 
ATOM     23  C   UNL     1      45.148  11.408  10.854  0.00  0.00    +0.000 C 
ATOM     24  C   UNL     1      44.372  12.619  11.398  0.00  0.00    +0.000 C 
ATOM     25  O   UNL     1      43.005  12.627  10.948  0.00  0.00    +0.000 OA
ATOM     26  C   UNL     1      42.336  11.428  11.370  0.00  0.00    +0.000 C 
ATOM     27  C   UNL     1      43.007  10.173  10.785  0.00  0.00    +0.000 C 
ENDBRANCH  20  22
ENDBRANCH  15  16
ENDBRANCH   1  15
TORSDOF 5
ENDMDL
MODEL 8
REMARK VINA RESULT:    -6.602      4.005      5.855
REMARK INTER + INTRA:          -9.228
REMARK INTER:                  -8.662
REMARK INTRA:                  -0.566
REMARK UNBOUND:                -0.696
REMARK  Name = 
REMARK  6 active torsions:
REMARK  status: ('A' for Active; 'I' for Inactive)
REMARK    1  A    between atoms: C_1  and  C_2
REMARK    2  A    between atoms: C_4  and  C_5
REMARK    3  A    between atoms: C_10  and  N_11
REMARK    4  A    between atoms: N_11  and  C_12
REMARK    5  A    between atoms: C_12  and  C_13
REMARK    6  A    between atoms: C_17  and  N_18
REMARK                            x       y       z     vdW  Elec       q    Type
REMARK                         _______ _______ _______ _____ _____    ______ ____
ROOT
ATOM      1  N   UNL     1      47.177   5.197  14.961  0.00  0.00    +0.000 N 
ATOM      2  H   UNL     1      48.107   5.577  14.844  0.00  0.00    +0.000 HD
ENDROOT
BRANCH   1   9
ATOM      3  C   UNL     1      46.545   7.220  12.936  0.00  0.00    +0.000 C 
ATOM      4  C   UNL     1      46.211   5.761  12.804  0.00  0.00    +0.000 A 
ATOM      5  C   UNL     1      45.518   5.332  11.658  0.00  0.00    +0.000 A 
ATOM      6  C   UNL     1      45.160   3.994  11.501  0.00  0.00    +0.000 A 
ATOM      7  C   UNL     1      45.520   3.137  12.522  0.00  0.00    +0.000 A 
ATOM      8  N   UNL     1      46.194   3.517  13.636  0.00  0.00    +0.000 NA
ATOM      9  C   UNL     1      46.551   4.811  13.780  0.00  0.00    +0.000 A 
BRANCH   6  10
ATOM     10  C   UNL     1      44.432   3.571  10.280  0.00  0.00    +0.000 C 
ATOM     11  N   UNL     1      44.392   2.244   9.953  0.00  0.00    +0.000 N 
ATOM     12  O   UNL     1      43.869   4.397   9.561  0.00  0.00    +0.000 OA
ATOM     13  H   UNL     1      44.809   1.491  10.471  0.00  0.00    +0.000 HD
ATOM     14  H   UNL     1      43.884   2.006   9.109  0.00  0.00    +0.000 HD
ENDBRANCH   6  10
ENDBRANCH   1   9
BRANCH   1  15
ATOM     15  C   UNL     1      47.012   4.365  16.150  0.00  0.00    +0.000 C 
BRANCH  15  16
ATOM     16  C   UNL     1      48.244   3.634  16.633  0.00  0.00    +0.000 A 
ATOM     17  C   UNL     1      48.510   2.370  16.108  0.00  0.00    +0.000 A 
ATOM     18  N   UNL     1      49.623   1.652  16.361  0.00  0.00    +0.000 NA
ATOM     19  C   UNL     1      50.547   2.243  17.154  0.00  0.00    +0.000 A 
ATOM     20  C   UNL     1      50.442   3.515  17.729  0.00  0.00    +0.000 A 
ATOM     21  C   UNL     1      49.241   4.192  17.454  0.00  0.00    +0.000 A 
BRANCH  20  22
ATOM     22  N   UNL     1      51.460   4.079  18.464  0.00  0.00    +0.000 N 
ATOM     23  C   UNL     1      52.875   3.708  18.318  0.00  0.00    +0.000 C 
ATOM     24  C   UNL     1      53.480   3.388  19.694  0.00  0.00    +0.000 C 
ATOM     25  O   UNL     1      53.269   4.456  20.636  0.00  0.00    +0.000 OA
ATOM     26  C   UNL     1      51.862   4.701  20.801  0.00  0.00    +0.000 C 
ATOM     27  C   UNL     1      51.205   5.119  19.474  0.00  0.00    +0.000 C 
ENDBRANCH  20  22
ENDBRANCH  15  16
ENDBRANCH   1  15
TORSDOF 5
ENDMDL
MODEL 9
REMARK VINA RESULT:    -6.554      1.561      2.480
REMARK INTER + INTRA:          -9.165
REMARK INTER:                  -8.472
REMARK INTRA:                  -0.694
REMARK UNBOUND:                -0.696
REMARK  Name = 
REMARK  6 active torsions:
REMARK  status: ('A' for Active; 'I' for Inactive)
REMARK    1  A    between atoms: C_1  and  C_2
REMARK    2  A    between atoms: C_4  and  C_5
REMARK    3  A    between atoms: C_10  and  N_11
REMARK    4  A    between atoms: N_11  and  C_12
REMARK    5  A    between atoms: C_12  and  C_13
REMARK    6  A    between atoms: C_17  and  N_18
REMARK                            x       y       z     vdW  Elec       q    Type
REMARK                         _______ _______ _______ _____ _____    ______ ____
ROOT
ATOM      1  N   UNL     1      44.735   5.236  10.398  0.00  0.00    +0.000 N 
ATOM      2  H   UNL     1      43.723   5.236  10.417  0.00  0.00    +0.000 HD
ENDROOT
BRANCH   1   9
ATOM      3  C   UNL     1      44.206   2.355  10.291  0.00  0.00    +0.000 C 
ATOM      4  C   UNL     1      45.087   3.087   9.319  0.00  0.00    +0.000 A 
ATOM      5  C   UNL     1      45.735   2.350   8.312  0.00  0.00    +0.000 A 
ATOM      6  C   UNL     1      46.585   2.978   7.404  0.00  0.00    +0.000 A 
ATOM      7  C   UNL     1      46.748   4.342   7.554  0.00  0.00    +0.000 A 
ATOM      8  N   UNL     1      46.132   5.082   8.509  0.00  0.00    +0.000 NA
ATOM      9  C   UNL     1      45.300   4.474   9.380  0.00  0.00    +0.000 A 
BRANCH   6  10
ATOM     10  C   UNL     1      47.252   2.174   6.351  0.00  0.00    +0.000 C 
ATOM     11  N   UNL     1      48.445   2.604   5.839  0.00  0.00    +0.000 N 
ATOM     12  O   UNL     1      46.745   1.133   5.934  0.00  0.00    +0.000 OA
ATOM     13  H   UNL     1      48.947   3.431   6.112  0.00  0.00    +0.000 HD
ATOM     14  H   UNL     1      48.860   2.022   5.121  0.00  0.00    +0.000 HD
ENDBRANCH   6  10
ENDBRANCH   1   9
BRANCH   1  15
ATOM     15  C   UNL     1      45.343   6.520  10.737  0.00  0.00    +0.000 C 
BRANCH  15  16
ATOM     16  C   UNL     1      46.547   6.472  11.651  0.00  0.00    +0.000 A 
ATOM     17  C   UNL     1      47.683   7.192  11.283  0.00  0.00    +0.000 A 
ATOM     18  N   UNL     1      48.784   7.331  12.048  0.00  0.00    +0.000 NA
ATOM     19  C   UNL     1      48.739   6.750  13.270  0.00  0.00    +0.000 A 
ATOM     20  C   UNL     1      47.663   6.025  13.795  0.00  0.00    +0.000 A 
ATOM     21  C   UNL     1      46.563   5.889  12.930  0.00  0.00    +0.000 A 
BRANCH  20  22
ATOM     22  N   UNL     1      47.664   5.528  15.079  0.00  0.00    +0.000 N 
ATOM     23  C   UNL     1      48.436   6.119  16.182  0.00  0.00    +0.000 C 
ATOM     24  C   UNL     1      49.261   5.031  16.889  0.00  0.00    +0.000 C 
ATOM     25  O   UNL     1      48.444   3.919  17.300  0.00  0.00    +0.000 OA
ATOM     26  C   UNL     1      47.794   3.332  16.160  0.00  0.00    +0.000 C 
ATOM     27  C   UNL     1      46.875   4.344  15.454  0.00  0.00    +0.000 C 
ENDBRANCH  20  22
ENDBRANCH  15  16
ENDBRANCH   1  15
TORSDOF 5
ENDMDL
