MODEL 1
REMARK VINA RESULT:    -8.247      0.000      0.000
REMARK INTER + INTRA:         -13.630
REMARK INTER:                 -12.587
REMARK INTRA:                  -1.043
REMARK UNBOUND:                -1.043
REMARK  Name = 
REMARK  9 active torsions:
REMARK  status: ('A' for Active; 'I' for Inactive)
REMARK    1  A    between atoms: C_2  and  C_3
REMARK    2  A    between atoms: C_3  and  C_4
REMARK    3  A    between atoms: C_3  and  N_11
REMARK    4  A    between atoms: C_4  and  C_5
REMARK    5  A    between atoms: N_11  and  C_12
REMARK    6  A    between atoms: C_12  and  C_13
REMARK    7  A    between atoms: C_16  and  C_17
REMARK    8  A    between atoms: C_17  and  N_18
REMARK    9  A    between atoms: C_19  and  C_21
REMARK                            x       y       z     vdW  Elec       q    Type
REMARK                         _______ _______ _______ _____ _____    ______ ____
ROOT
ATOM      1  C   UNL     1      44.591   6.161  11.159  0.00  0.00    +0.000 A 
ATOM      2  C   UNL     1      45.879   5.664  11.402  0.00  0.00    +0.000 A 
ATOM      3  C   UNL     1      46.784   6.390  12.176  0.00  0.00    +0.000 A 
ATOM      4  C   UNL     1      46.421   7.632  12.712  0.00  0.00    +0.000 A 
ATOM      5  C   UNL     1      45.163   8.165  12.401  0.00  0.00    +0.000 A 
ATOM      6  C   UNL     1      44.251   7.431  11.642  0.00  0.00    +0.000 A 
ENDROOT
BRANCH   1   7
ATOM      7  C   UNL     1      43.580   5.331  10.409  0.00  0.00    +0.000 C 
BRANCH   7   8
ATOM      8  N   UNL     1      44.210   4.639   9.281  0.00  0.00    +0.000 NA
ATOM      9  H   UNL     1      43.701   4.849   8.425  0.00  0.00    +0.000 HD
BRANCH   8  10
ATOM     10  C   UNL     1      44.270   3.175   9.477  0.00  0.00    +0.000 C 
BRANCH  10  12
ATOM     11  N   UNL     1      43.119   2.365  11.716  0.00  0.00    +0.000 NA
ATOM     12  C   UNL     1      43.646   2.719  10.740  0.00  0.00    +0.000 C 
ENDBRANCH  10  12
BRANCH  10  13
ATOM     13  C   UNL     1      45.718   2.638   9.390  0.00  0.00    +0.000 C 
BRANCH  13  14
ATOM     14  C   UNL     1      46.237   2.342   8.000  0.00  0.00    +0.000 A 
ATOM     15  C   UNL     1      46.246   3.335   7.009  0.00  0.00    +0.000 A 
ATOM     16  C   UNL     1      46.746   3.059   5.736  0.00  0.00    +0.000 A 
ATOM     17  C   UNL     1      47.246   1.793   5.439  0.00  0.00    +0.000 A 
ATOM     18  C   UNL     1      47.225   0.794   6.410  0.00  0.00    +0.000 A 
ATOM     19  C   UNL     1      46.718   1.065   7.681  0.00  0.00    +0.000 A 
ENDBRANCH  13  14
ENDBRANCH  10  13
ENDBRANCH   8  10
ENDBRANCH   7   8
ENDBRANCH   1   7
BRANCH   4  20
ATOM     20  C   UNL     1      47.366   8.396  13.599  0.00  0.00    +0.000 C 
BRANCH  20  21
ATOM     21  N   UNL     1      47.708   7.639  14.771  0.00  0.00    +0.000 N 
ATOM     22  C   UNL     1      48.892   6.954  14.857  0.00  0.00    +0.000 C 
ATOM     23  O   UNL     1      49.729   6.976  13.958  0.00  0.00    +0.000 OA
ATOM     24  H   UNL     1      46.947   7.396  15.397  0.00  0.00    +0.000 HD
BRANCH  22  25
ATOM     25  C   UNL     1      49.136   6.247  16.118  0.00  0.00    +0.000 A 
ATOM     26  C   UNL     1      50.129   6.692  16.979  0.00  0.00    +0.000 A 
ATOM     27  S   UNL     1      50.252   5.775  18.410  0.00  0.00    +0.000 S 
ATOM     28  C   UNL     1      49.010   4.726  17.911  0.00  0.00    +0.000 A 
ATOM     29  N   UNL     1      48.630   3.672  18.680  0.00  0.00    +0.000 NA
ATOM     30  C   UNL     1      47.693   2.945  18.167  0.00  0.00    +0.000 A 
ATOM     31  N   UNL     1      47.096   3.182  16.957  0.00  0.00    +0.000 N 
ATOM     32  C   UNL     1      47.420   4.254  16.163  0.00  0.00    +0.000 A 
ATOM     33  O   UNL     1      46.814   4.479  15.120  0.00  0.00    +0.000 OA
ATOM     34  C   UNL     1      48.489   5.088  16.680  0.00  0.00    +0.000 A 
ATOM     35  H   UNL     1      46.351   2.588  16.622  0.00  0.00    +0.000 HD
ENDBRANCH  22  25
ENDBRANCH  20  21
ENDBRANCH   4  20
TORSDOF 9
ENDMDL
MODEL 2
REMARK VINA RESULT:    -7.597      3.928     10.246
REMARK INTER + INTRA:         -12.638
REMARK INTER:                  -9.796
REMARK INTRA:                  -2.841
REMARK UNBOUND:                -1.043
REMARK  Name = 
REMARK  9 active torsions:
REMARK  status: ('A' for Active; 'I' for Inactive)
REMARK    1  A    between atoms: C_2  and  C_3
REMARK    2  A    between atoms: C_3  and  C_4
REMARK    3  A    between atoms: C_3  and  N_11
REMARK    4  A    between atoms: C_4  and  C_5
REMARK    5  A    between atoms: N_11  and  C_12
REMARK    6  A    between atoms: C_12  and  C_13
REMARK    7  A    between atoms: C_16  and  C_17
REMARK    8  A    between atoms: C_17  and  N_18
REMARK    9  A    between atoms: C_19  and  C_21
REMARK                            x       y       z     vdW  Elec       q    Type
REMARK                         _______ _______ _______ _____ _____    ______ ____
ROOT
ATOM      1  C   UNL     1      51.533   4.351  17.714  0.00  0.00    +0.000 A 
ATOM      2  C   UNL     1      50.712   5.403  17.285  0.00  0.00    +0.000 A 
ATOM      3  C   UNL     1      49.379   5.170  16.949  0.00  0.00    +0.000 A 
ATOM      4  C   UNL     1      48.844   3.878  17.026  0.00  0.00    +0.000 A 
ATOM      5  C   UNL     1      49.686   2.814  17.376  0.00  0.00    +0.000 A 
ATOM      6  C   UNL     1      51.015   3.049  17.730  0.00  0.00    +0.000 A 
ENDROOT
BRANCH   1   7
ATOM      7  C   UNL     1      52.943   4.620  18.174  0.00  0.00    +0.000 C 
BRANCH   7   8
ATOM      8  N   UNL     1      53.118   4.224  19.574  0.00  0.00    +0.000 NA
ATOM      9  H   UNL     1      52.614   3.357  19.747  0.00  0.00    +0.000 HD
BRANCH   8  10
ATOM     10  C   UNL     1      52.658   5.263  20.518  0.00  0.00    +0.000 C 
BRANCH  10  12
ATOM     11  N   UNL     1      54.481   6.027  22.275  0.00  0.00    +0.000 NA
ATOM     12  C   UNL     1      53.695   5.689  21.485  0.00  0.00    +0.000 C 
ENDBRANCH  10  12
BRANCH  10  13
ATOM     13  C   UNL     1      51.384   4.829  21.281  0.00  0.00    +0.000 C 
BRANCH  13  14
ATOM     14  C   UNL     1      50.092   5.490  20.854  0.00  0.00    +0.000 A 
ATOM     15  C   UNL     1      50.050   6.861  20.558  0.00  0.00    +0.000 A 
ATOM     16  C   UNL     1      48.859   7.459  20.144  0.00  0.00    +0.000 A 
ATOM     17  C   UNL     1      47.700   6.696  20.018  0.00  0.00    +0.000 A 
ATOM     18  C   UNL     1      47.726   5.339  20.328  0.00  0.00    +0.000 A 
ATOM     19  C   UNL     1      48.913   4.740  20.750  0.00  0.00    +0.000 A 
ENDBRANCH  13  14
ENDBRANCH  10  13
ENDBRANCH   8  10
ENDBRANCH   7   8
ENDBRANCH   1   7
BRANCH   4  20
ATOM     20  C   UNL     1      47.392   3.624  16.725  0.00  0.00    +0.000 C 
BRANCH  20  21
ATOM     21  N   UNL     1      46.888   4.562  15.762  0.00  0.00    +0.000 N 
ATOM     22  C   UNL     1      46.854   4.262  14.424  0.00  0.00    +0.000 C 
ATOM     23  O   UNL     1      47.222   3.175  13.987  0.00  0.00    +0.000 OA
ATOM     24  H   UNL     1      46.827   5.531  16.055  0.00  0.00    +0.000 HD
BRANCH  22  25
ATOM     25  C   UNL     1      46.287   5.291  13.549  0.00  0.00    +0.000 A 
ATOM     26  C   UNL     1      46.990   6.466  13.318  0.00  0.00    +0.000 A 
ATOM     27  S   UNL     1      46.199   7.535  12.251  0.00  0.00    +0.000 S 
ATOM     28  C   UNL     1      44.871   6.484  12.094  0.00  0.00    +0.000 A 
ATOM     29  N   UNL     1      43.799   6.818  11.327  0.00  0.00    +0.000 NA
ATOM     30  C   UNL     1      42.853   5.938  11.317  0.00  0.00    +0.000 A 
ATOM     31  N   UNL     1      42.886   4.749  11.999  0.00  0.00    +0.000 N 
ATOM     32  C   UNL     1      43.962   4.353  12.755  0.00  0.00    +0.000 A 
ATOM     33  O   UNL     1      43.989   3.251  13.292  0.00  0.00    +0.000 OA
ATOM     34  C   UNL     1      45.042   5.320  12.823  0.00  0.00    +0.000 A 
ATOM     35  H   UNL     1      42.122   4.093  11.932  0.00  0.00    +0.000 HD
ENDBRANCH  22  25
ENDBRANCH  20  21
ENDBRANCH   4  20
TORSDOF 9
ENDMDL
MODEL 3
REMARK VINA RESULT:    -7.414      2.304      3.039
REMARK INTER + INTRA:         -12.359
REMARK INTER:                 -11.213
REMARK INTRA:                  -1.146
REMARK UNBOUND:                -1.043
REMARK  Name = 
REMARK  9 active torsions:
REMARK  status: ('A' for Active; 'I' for Inactive)
REMARK    1  A    between atoms: C_2  and  C_3
REMARK    2  A    between atoms: C_3  and  C_4
REMARK    3  A    between atoms: C_3  and  N_11
REMARK    4  A    between atoms: C_4  and  C_5
REMARK    5  A    between atoms: N_11  and  C_12
REMARK    6  A    between atoms: C_12  and  C_13
REMARK    7  A    between atoms: C_16  and  C_17
REMARK    8  A    between atoms: C_17  and  N_18
REMARK    9  A    between atoms: C_19  and  C_21
REMARK                            x       y       z     vdW  Elec       q    Type
REMARK                         _______ _______ _______ _____ _____    ______ ____
ROOT
ATOM      1  C   UNL     1      46.856   6.749  12.614  0.00  0.00    +0.000 A 
ATOM      2  C   UNL     1      46.959   8.087  13.019  0.00  0.00    +0.000 A 
ATOM      3  C   UNL     1      47.745   8.437  14.116  0.00  0.00    +0.000 A 
ATOM      4  C   UNL     1      48.434   7.453  14.837  0.00  0.00    +0.000 A 
ATOM      5  C   UNL     1      48.265   6.108  14.483  0.00  0.00    +0.000 A 
ATOM      6  C   UNL     1      47.494   5.759  13.374  0.00  0.00    +0.000 A 
ENDROOT
BRANCH   1   7
ATOM      7  C   UNL     1      46.089   6.383  11.369  0.00  0.00    +0.000 C 
BRANCH   7   8
ATOM      8  N   UNL     1      45.549   5.025  11.471  0.00  0.00    +0.000 NA
ATOM      9  H   UNL     1      46.274   4.352  11.231  0.00  0.00    +0.000 HD
BRANCH   8  10
ATOM     10  C   UNL     1      44.371   4.817  10.604  0.00  0.00    +0.000 C 
BRANCH  10  12
ATOM     11  N   UNL     1      42.064   5.501  11.703  0.00  0.00    +0.000 NA
ATOM     12  C   UNL     1      43.089   5.199  11.240  0.00  0.00    +0.000 C 
ENDBRANCH  10  12
BRANCH  10  13
ATOM     13  C   UNL     1      44.280   3.361  10.090  0.00  0.00    +0.000 C 
BRANCH  13  14
ATOM     14  C   UNL     1      45.215   2.994   8.958  0.00  0.00    +0.000 A 
ATOM     15  C   UNL     1      45.691   3.972   8.073  0.00  0.00    +0.000 A 
ATOM     16  C   UNL     1      46.570   3.629   7.044  0.00  0.00    +0.000 A 
ATOM     17  C   UNL     1      46.985   2.308   6.891  0.00  0.00    +0.000 A 
ATOM     18  C   UNL     1      46.504   1.325   7.753  0.00  0.00    +0.000 A 
ATOM     19  C   UNL     1      45.618   1.664   8.776  0.00  0.00    +0.000 A 
ENDBRANCH  13  14
ENDBRANCH  10  13
ENDBRANCH   8  10
ENDBRANCH   7   8
ENDBRANCH   1   7
BRANCH   4  20
ATOM     20  C   UNL     1      49.334   7.824  15.984  0.00  0.00    +0.000 C 
BRANCH  20  21
ATOM     21  N   UNL     1      50.228   6.750  16.314  0.00  0.00    +0.000 N 
ATOM     22  C   UNL     1      50.519   6.439  17.617  0.00  0.00    +0.000 C 
ATOM     23  O   UNL     1      50.012   7.036  18.562  0.00  0.00    +0.000 OA
ATOM     24  H   UNL     1      50.844   6.424  15.576  0.00  0.00    +0.000 HD
BRANCH  22  25
ATOM     25  C   UNL     1      51.420   5.301  17.820  0.00  0.00    +0.000 A 
ATOM     26  C   UNL     1      52.713   5.516  18.277  0.00  0.00    +0.000 A 
ATOM     27  S   UNL     1      53.609   4.082  18.488  0.00  0.00    +0.000 S 
ATOM     28  C   UNL     1      52.316   3.126  17.935  0.00  0.00    +0.000 A 
ATOM     29  N   UNL     1      52.434   1.776  17.835  0.00  0.00    +0.000 NA
ATOM     30  C   UNL     1      51.382   1.178  17.378  0.00  0.00    +0.000 A 
ATOM     31  N   UNL     1      50.220   1.810  17.020  0.00  0.00    +0.000 N 
ATOM     32  C   UNL     1      50.042   3.166  17.139  0.00  0.00    +0.000 A 
ATOM     33  O   UNL     1      48.964   3.690  16.879  0.00  0.00    +0.000 OA
ATOM     34  C   UNL     1      51.204   3.889  17.621  0.00  0.00    +0.000 A 
ATOM     35  H   UNL     1      49.425   1.283  16.690  0.00  0.00    +0.000 HD
ENDBRANCH  22  25
ENDBRANCH  20  21
ENDBRANCH   4  20
TORSDOF 9
ENDMDL
MODEL 4
REMARK VINA RESULT:    -7.355      2.010      2.414
REMARK INTER + INTRA:         -12.268
REMARK INTER:                 -11.934
REMARK INTRA:                  -0.334
REMARK UNBOUND:                -1.043
REMARK  Name = 
REMARK  9 active torsions:
REMARK  status: ('A' for Active; 'I' for Inactive)
REMARK    1  A    between atoms: C_2  and  C_3
REMARK    2  A    between atoms: C_3  and  C_4
REMARK    3  A    between atoms: C_3  and  N_11
REMARK    4  A    between atoms: C_4  and  C_5
REMARK    5  A    between atoms: N_11  and  C_12
REMARK    6  A    between atoms: C_12  and  C_13
REMARK    7  A    between atoms: C_16  and  C_17
REMARK    8  A    between atoms: C_17  and  N_18
REMARK    9  A    between atoms: C_19  and  C_21
REMARK                            x       y       z     vdW  Elec       q    Type
REMARK                         _______ _______ _______ _____ _____    ______ ____
ROOT
ATOM      1  C   UNL     1      45.987   5.783  11.708  0.00  0.00    +0.000 A 
ATOM      2  C   UNL     1      46.199   5.100  12.913  0.00  0.00    +0.000 A 
ATOM      3  C   UNL     1      47.220   5.490  13.779  0.00  0.00    +0.000 A 
ATOM      4  C   UNL     1      48.055   6.565  13.449  0.00  0.00    +0.000 A 
ATOM      5  C   UNL     1      47.896   7.194  12.208  0.00  0.00    +0.000 A 
ATOM      6  C   UNL     1      46.863   6.816  11.350  0.00  0.00    +0.000 A 
ENDROOT
BRANCH   1   7
ATOM      7  C   UNL     1      44.820   5.426  10.821  0.00  0.00    +0.000 C 
BRANCH   7   8
ATOM      8  N   UNL     1      45.229   4.475   9.783  0.00  0.00    +0.000 NA
ATOM      9  H   UNL     1      45.222   4.938   8.877  0.00  0.00    +0.000 HD
BRANCH   8  10
ATOM     10  C   UNL     1      44.361   3.280   9.738  0.00  0.00    +0.000 C 
BRANCH  10  12
ATOM     11  N   UNL     1      43.152   2.716  12.021  0.00  0.00    +0.000 NA
ATOM     12  C   UNL     1      43.685   2.986  11.022  0.00  0.00    +0.000 C 
ENDBRANCH  10  12
BRANCH  10  13
ATOM     13  C   UNL     1      45.129   2.026   9.258  0.00  0.00    +0.000 C 
BRANCH  13  14
ATOM     14  C   UNL     1      45.959   2.191   8.003  0.00  0.00    +0.000 A 
ATOM     15  C   UNL     1      45.831   3.336   7.203  0.00  0.00    +0.000 A 
ATOM     16  C   UNL     1      46.616   3.491   6.059  0.00  0.00    +0.000 A 
ATOM     17  C   UNL     1      47.537   2.507   5.704  0.00  0.00    +0.000 A 
ATOM     18  C   UNL     1      47.658   1.358   6.481  0.00  0.00    +0.000 A 
ATOM     19  C   UNL     1      46.869   1.197   7.621  0.00  0.00    +0.000 A 
ENDBRANCH  13  14
ENDBRANCH  10  13
ENDBRANCH   8  10
ENDBRANCH   7   8
ENDBRANCH   1   7
BRANCH   4  20
ATOM     20  C   UNL     1      49.121   7.035  14.402  0.00  0.00    +0.000 C 
BRANCH  20  21
ATOM     21  N   UNL     1      48.602   7.180  15.733  0.00  0.00    +0.000 N 
ATOM     22  C   UNL     1      49.337   6.811  16.829  0.00  0.00    +0.000 C 
ATOM     23  O   UNL     1      50.479   6.368  16.734  0.00  0.00    +0.000 OA
ATOM     24  H   UNL     1      47.597   7.291  15.823  0.00  0.00    +0.000 HD
BRANCH  22  25
ATOM     25  C   UNL     1      48.707   7.040  18.133  0.00  0.00    +0.000 A 
ATOM     26  C   UNL     1      48.160   8.281  18.427  0.00  0.00    +0.000 A 
ATOM     27  S   UNL     1      47.440   8.360  19.971  0.00  0.00    +0.000 S 
ATOM     28  C   UNL     1      47.872   6.752  20.316  0.00  0.00    +0.000 A 
ATOM     29  N   UNL     1      47.575   6.188  21.516  0.00  0.00    +0.000 NA
ATOM     30  C   UNL     1      47.983   4.969  21.651  0.00  0.00    +0.000 A 
ATOM     31  N   UNL     1      48.654   4.260  20.689  0.00  0.00    +0.000 N 
ATOM     32  C   UNL     1      48.943   4.775  19.449  0.00  0.00    +0.000 A 
ATOM     33  O   UNL     1      49.480   4.088  18.586  0.00  0.00    +0.000 OA
ATOM     34  C   UNL     1      48.532   6.153  19.256  0.00  0.00    +0.000 A 
ATOM     35  H   UNL     1      48.927   3.301  20.849  0.00  0.00    +0.000 HD
ENDBRANCH  22  25
ENDBRANCH  20  21
ENDBRANCH   4  20
TORSDOF 9
ENDMDL
MODEL 5
REMARK VINA RESULT:    -7.321      3.017      8.636
REMARK INTER + INTRA:         -12.217
REMARK INTER:                 -10.339
REMARK INTRA:                  -1.878
REMARK UNBOUND:                -1.043
REMARK  Name = 
REMARK  9 active torsions:
REMARK  status: ('A' for Active; 'I' for Inactive)
REMARK    1  A    between atoms: C_2  and  C_3
REMARK    2  A    between atoms: C_3  and  C_4
REMARK    3  A    between atoms: C_3  and  N_11
REMARK    4  A    between atoms: C_4  and  C_5
REMARK    5  A    between atoms: N_11  and  C_12
REMARK    6  A    between atoms: C_12  and  C_13
REMARK    7  A    between atoms: C_16  and  C_17
REMARK    8  A    between atoms: C_17  and  N_18
REMARK    9  A    between atoms: C_19  and  C_21
REMARK                            x       y       z     vdW  Elec       q    Type
REMARK                         _______ _______ _______ _____ _____    ______ ____
ROOT
ATOM      1  C   UNL     1      48.716   8.107  16.223  0.00  0.00    +0.000 A 
ATOM      2  C   UNL     1      48.321   9.223  15.474  0.00  0.00    +0.000 A 
ATOM      3  C   UNL     1      48.032   9.099  14.115  0.00  0.00    +0.000 A 
ATOM      4  C   UNL     1      48.144   7.856  13.478  0.00  0.00    +0.000 A 
ATOM      5  C   UNL     1      48.618   6.759  14.208  0.00  0.00    +0.000 A 
ATOM      6  C   UNL     1      48.889   6.878  15.571  0.00  0.00    +0.000 A 
ENDROOT
BRANCH   1   7
ATOM      7  C   UNL     1      48.929   8.221  17.711  0.00  0.00    +0.000 C 
BRANCH   7   8
ATOM      8  N   UNL     1      47.668   8.027  18.433  0.00  0.00    +0.000 NA
ATOM      9  H   UNL     1      47.448   8.867  18.964  0.00  0.00    +0.000 HD
BRANCH   8  10
ATOM     10  C   UNL     1      47.709   6.862  19.341  0.00  0.00    +0.000 C 
BRANCH  10  12
ATOM     11  N   UNL     1      47.420   7.497  21.892  0.00  0.00    +0.000 NA
ATOM     12  C   UNL     1      47.524   7.213  20.768  0.00  0.00    +0.000 C 
ENDBRANCH  10  12
BRANCH  10  13
ATOM     13  C   UNL     1      49.010   6.042  19.173  0.00  0.00    +0.000 C 
BRANCH  13  14
ATOM     14  C   UNL     1      48.894   4.763  18.372  0.00  0.00    +0.000 A 
ATOM     15  C   UNL     1      47.649   4.322  17.899  0.00  0.00    +0.000 A 
ATOM     16  C   UNL     1      47.554   3.153  17.143  0.00  0.00    +0.000 A 
ATOM     17  C   UNL     1      48.698   2.415  16.849  0.00  0.00    +0.000 A 
ATOM     18  C   UNL     1      49.937   2.833  17.330  0.00  0.00    +0.000 A 
ATOM     19  C   UNL     1      50.034   3.998  18.093  0.00  0.00    +0.000 A 
ENDBRANCH  13  14
ENDBRANCH  10  13
ENDBRANCH   8  10
ENDBRANCH   7   8
ENDBRANCH   1   7
BRANCH   4  20
ATOM     20  C   UNL     1      47.776   7.697  12.028  0.00  0.00    +0.000 C 
BRANCH  20  21
ATOM     21  N   UNL     1      47.030   6.489  11.809  0.00  0.00    +0.000 N 
ATOM     22  C   UNL     1      45.676   6.441  12.015  0.00  0.00    +0.000 C 
ATOM     23  O   UNL     1      45.030   7.426  12.364  0.00  0.00    +0.000 OA
ATOM     24  H   UNL     1      47.559   5.624  11.778  0.00  0.00    +0.000 HD
BRANCH  22  25
ATOM     25  C   UNL     1      45.027   5.159  11.726  0.00  0.00    +0.000 A 
ATOM     26  C   UNL     1      44.324   4.500  12.725  0.00  0.00    +0.000 A 
ATOM     27  S   UNL     1      43.607   3.043  12.205  0.00  0.00    +0.000 S 
ATOM     28  C   UNL     1      44.246   3.221  10.640  0.00  0.00    +0.000 A 
ATOM     29  N   UNL     1      44.031   2.280   9.682  0.00  0.00    +0.000 NA
ATOM     30  C   UNL     1      44.595   2.532   8.547  0.00  0.00    +0.000 A 
ATOM     31  N   UNL     1      45.349   3.645   8.281  0.00  0.00    +0.000 N 
ATOM     32  C   UNL     1      45.562   4.640   9.203  0.00  0.00    +0.000 A 
ATOM     33  O   UNL     1      46.180   5.658   8.909  0.00  0.00    +0.000 OA
ATOM     34  C   UNL     1      44.974   4.392  10.506  0.00  0.00    +0.000 A 
ATOM     35  H   UNL     1      45.744   3.795   7.364  0.00  0.00    +0.000 HD
ENDBRANCH  22  25
ENDBRANCH  20  21
ENDBRANCH   4  20
TORSDOF 9
ENDMDL
MODEL 6
REMARK VINA RESULT:    -7.224      3.695      9.581
REMARK INTER + INTRA:         -12.068
REMARK INTER:                  -8.832
REMARK INTRA:                  -3.237
REMARK UNBOUND:                -1.043
REMARK  Name = 
REMARK  9 active torsions:
REMARK  status: ('A' for Active; 'I' for Inactive)
REMARK    1  A    between atoms: C_2  and  C_3
REMARK    2  A    between atoms: C_3  and  C_4
REMARK    3  A    between atoms: C_3  and  N_11
REMARK    4  A    between atoms: C_4  and  C_5
REMARK    5  A    between atoms: N_11  and  C_12
REMARK    6  A    between atoms: C_12  and  C_13
REMARK    7  A    between atoms: C_16  and  C_17
REMARK    8  A    between atoms: C_17  and  N_18
REMARK    9  A    between atoms: C_19  and  C_21
REMARK                            x       y       z     vdW  Elec       q    Type
REMARK                         _______ _______ _______ _____ _____    ______ ____
ROOT
ATOM      1  C   UNL     1      50.373   5.067  17.386  0.00  0.00    +0.000 A 
ATOM      2  C   UNL     1      49.020   4.934  17.049  0.00  0.00    +0.000 A 
ATOM      3  C   UNL     1      48.431   5.796  16.124  0.00  0.00    +0.000 A 
ATOM      4  C   UNL     1      49.184   6.815  15.527  0.00  0.00    +0.000 A 
ATOM      5  C   UNL     1      50.515   6.999  15.925  0.00  0.00    +0.000 A 
ATOM      6  C   UNL     1      51.109   6.125  16.836  0.00  0.00    +0.000 A 
ENDROOT
BRANCH   1   7
ATOM      7  C   UNL     1      51.034   4.073  18.307  0.00  0.00    +0.000 C 
BRANCH   7   8
ATOM      8  N   UNL     1      50.479   4.170  19.660  0.00  0.00    +0.000 NA
ATOM      9  H   UNL     1      49.482   4.367  19.605  0.00  0.00    +0.000 HD
BRANCH   8  10
ATOM     10  C   UNL     1      51.147   5.207  20.473  0.00  0.00    +0.000 C 
BRANCH  10  12
ATOM     11  N   UNL     1      52.788   4.196  22.285  0.00  0.00    +0.000 NA
ATOM     12  C   UNL     1      52.061   4.659  21.501  0.00  0.00    +0.000 C 
ENDBRANCH  10  12
BRANCH  10  13
ATOM     13  C   UNL     1      50.131   6.164  21.139  0.00  0.00    +0.000 C 
BRANCH  13  14
ATOM     14  C   UNL     1      49.413   7.123  20.215  0.00  0.00    +0.000 A 
ATOM     15  C   UNL     1      50.095   8.196  19.622  0.00  0.00    +0.000 A 
ATOM     16  C   UNL     1      49.431   9.064  18.754  0.00  0.00    +0.000 A 
ATOM     17  C   UNL     1      48.082   8.868  18.467  0.00  0.00    +0.000 A 
ATOM     18  C   UNL     1      47.390   7.818  19.065  0.00  0.00    +0.000 A 
ATOM     19  C   UNL     1      48.050   6.954  19.940  0.00  0.00    +0.000 A 
ENDBRANCH  13  14
ENDBRANCH  10  13
ENDBRANCH   8  10
ENDBRANCH   7   8
ENDBRANCH   1   7
BRANCH   4  20
ATOM     20  C   UNL     1      48.577   7.713  14.483  0.00  0.00    +0.000 C 
BRANCH  20  21
ATOM     21  N   UNL     1      47.351   7.165  13.974  0.00  0.00    +0.000 N 
ATOM     22  C   UNL     1      47.083   7.146  12.630  0.00  0.00    +0.000 C 
ATOM     23  O   UNL     1      47.881   7.564  11.796  0.00  0.00    +0.000 OA
ATOM     24  H   UNL     1      46.588   7.059  14.634  0.00  0.00    +0.000 HD
BRANCH  22  25
ATOM     25  C   UNL     1      45.811   6.530  12.237  0.00  0.00    +0.000 A 
ATOM     26  C   UNL     1      44.813   7.310  11.670  0.00  0.00    +0.000 A 
ATOM     27  S   UNL     1      43.418   6.427  11.245  0.00  0.00    +0.000 S 
ATOM     28  C   UNL     1      44.083   4.981  11.841  0.00  0.00    +0.000 A 
ATOM     29  N   UNL     1      43.379   3.819  11.811  0.00  0.00    +0.000 NA
ATOM     30  C   UNL     1      43.997   2.804  12.319  0.00  0.00    +0.000 A 
ATOM     31  N   UNL     1      45.260   2.845  12.848  0.00  0.00    +0.000 N 
ATOM     32  C   UNL     1      46.024   3.985  12.866  0.00  0.00    +0.000 A 
ATOM     33  O   UNL     1      47.179   3.970  13.280  0.00  0.00    +0.000 OA
ATOM     34  C   UNL     1      45.365   5.163  12.333  0.00  0.00    +0.000 A 
ATOM     35  H   UNL     1      45.697   2.009  13.210  0.00  0.00    +0.000 HD
ENDBRANCH  22  25
ENDBRANCH  20  21
ENDBRANCH   4  20
TORSDOF 9
ENDMDL
MODEL 7
REMARK VINA RESULT:    -7.190      2.968      3.411
REMARK INTER + INTRA:         -12.017
REMARK INTER:                 -11.363
REMARK INTRA:                  -0.654
REMARK UNBOUND:                -1.043
REMARK  Name = 
REMARK  9 active torsions:
REMARK  status: ('A' for Active; 'I' for Inactive)
REMARK    1  A    between atoms: C_2  and  C_3
REMARK    2  A    between atoms: C_3  and  C_4
REMARK    3  A    between atoms: C_3  and  N_11
REMARK    4  A    between atoms: C_4  and  C_5
REMARK    5  A    between atoms: N_11  and  C_12
REMARK    6  A    between atoms: C_12  and  C_13
REMARK    7  A    between atoms: C_16  and  C_17
REMARK    8  A    between atoms: C_17  and  N_18
REMARK    9  A    between atoms: C_19  and  C_21
REMARK                            x       y       z     vdW  Elec       q    Type
REMARK                         _______ _______ _______ _____ _____    ______ ____
ROOT
ATOM      1  C   UNL     1      45.825   5.138  13.086  0.00  0.00    +0.000 A 
ATOM      2  C   UNL     1      47.113   5.077  13.635  0.00  0.00    +0.000 A 
ATOM      3  C   UNL     1      47.818   6.246  13.919  0.00  0.00    +0.000 A 
ATOM      4  C   UNL     1      47.252   7.498  13.648  0.00  0.00    +0.000 A 
ATOM      5  C   UNL     1      45.999   7.557  13.023  0.00  0.00    +0.000 A 
ATOM      6  C   UNL     1      45.286   6.388  12.756  0.00  0.00    +0.000 A 
ENDROOT
BRANCH   1   7
ATOM      7  C   UNL     1      45.024   3.878  12.874  0.00  0.00    +0.000 C 
BRANCH   7   8
ATOM      8  N   UNL     1      45.429   3.207  11.635  0.00  0.00    +0.000 NA
ATOM      9  H   UNL     1      46.434   3.306  11.508  0.00  0.00    +0.000 HD
BRANCH   8  10
ATOM     10  C   UNL     1      44.723   3.733  10.449  0.00  0.00    +0.000 C 
BRANCH  10  12
ATOM     11  N   UNL     1      42.455   4.949  11.059  0.00  0.00    +0.000 NA
ATOM     12  C   UNL     1      43.446   4.411  10.769  0.00  0.00    +0.000 C 
ENDBRANCH  10  12
BRANCH  10  13
ATOM     13  C   UNL     1      44.476   2.636   9.388  0.00  0.00    +0.000 C 
BRANCH  13  14
ATOM     14  C   UNL     1      45.548   2.477   8.331  0.00  0.00    +0.000 A 
ATOM     15  C   UNL     1      46.240   1.266   8.185  0.00  0.00    +0.000 A 
ATOM     16  C   UNL     1      47.212   1.120   7.194  0.00  0.00    +0.000 A 
ATOM     17  C   UNL     1      47.500   2.180   6.336  0.00  0.00    +0.000 A 
ATOM     18  C   UNL     1      46.832   3.393   6.484  0.00  0.00    +0.000 A 
ATOM     19  C   UNL     1      45.866   3.544   7.479  0.00  0.00    +0.000 A 
ENDBRANCH  13  14
ENDBRANCH  10  13
ENDBRANCH   8  10
ENDBRANCH   7   8
ENDBRANCH   1   7
BRANCH   4  20
ATOM     20  C   UNL     1      47.977   8.767  14.006  0.00  0.00    +0.000 C 
BRANCH  20  21
ATOM     21  N   UNL     1      47.647   9.198  15.336  0.00  0.00    +0.000 N 
ATOM     22  C   UNL     1      48.496   8.973  16.389  0.00  0.00    +0.000 C 
ATOM     23  O   UNL     1      49.585   8.424  16.247  0.00  0.00    +0.000 OA
ATOM     24  H   UNL     1      46.672   9.409  15.520  0.00  0.00    +0.000 HD
BRANCH  22  25
ATOM     25  C   UNL     1      48.058   9.490  17.689  0.00  0.00    +0.000 A 
ATOM     26  C   UNL     1      47.849  10.852  17.856  0.00  0.00    +0.000 A 
ATOM     27  S   UNL     1      47.310  11.273  19.418  0.00  0.00    +0.000 S 
ATOM     28  C   UNL     1      47.379   9.655  19.938  0.00  0.00    +0.000 A 
ATOM     29  N   UNL     1      47.066   9.315  21.216  0.00  0.00    +0.000 NA
ATOM     30  C   UNL     1      47.185   8.055  21.480  0.00  0.00    +0.000 A 
ATOM     31  N   UNL     1      47.580   7.104  20.576  0.00  0.00    +0.000 N 
ATOM     32  C   UNL     1      47.869   7.393  19.266  0.00  0.00    +0.000 A 
ATOM     33  O   UNL     1      48.148   6.507  18.466  0.00  0.00    +0.000 OA
ATOM     34  C   UNL     1      47.780   8.801  18.924  0.00  0.00    +0.000 A 
ATOM     35  H   UNL     1      47.631   6.130  20.840  0.00  0.00    +0.000 HD
ENDBRANCH  22  25
ENDBRANCH  20  21
ENDBRANCH   4  20
TORSDOF 9
ENDMDL
MODEL 8
REMARK VINA RESULT:    -7.137      5.383      7.014
REMARK INTER + INTRA:         -11.935
REMARK INTER:                 -10.840
REMARK INTRA:                  -1.095
REMARK UNBOUND:                -1.043
REMARK  Name = 
REMARK  9 active torsions:
REMARK  status: ('A' for Active; 'I' for Inactive)
REMARK    1  A    between atoms: C_2  and  C_3
REMARK    2  A    between atoms: C_3  and  C_4
REMARK    3  A    between atoms: C_3  and  N_11
REMARK    4  A    between atoms: C_4  and  C_5
REMARK    5  A    between atoms: N_11  and  C_12
REMARK    6  A    between atoms: C_12  and  C_13
REMARK    7  A    between atoms: C_16  and  C_17
REMARK    8  A    between atoms: C_17  and  N_18
REMARK    9  A    between atoms: C_19  and  C_21
REMARK                            x       y       z     vdW  Elec       q    Type
REMARK                         _______ _______ _______ _____ _____    ______ ____
ROOT
ATOM      1  C   UNL     1      46.928   7.586  12.425  0.00  0.00    +0.000 A 
ATOM      2  C   UNL     1      47.347   8.891  12.132  0.00  0.00    +0.000 A 
ATOM      3  C   UNL     1      48.702   9.182  11.973  0.00  0.00    +0.000 A 
ATOM      4  C   UNL     1      49.664   8.173  12.115  0.00  0.00    +0.000 A 
ATOM      5  C   UNL     1      49.251   6.888  12.488  0.00  0.00    +0.000 A 
ATOM      6  C   UNL     1      47.895   6.592  12.629  0.00  0.00    +0.000 A 
ENDROOT
BRANCH   1   7
ATOM      7  C   UNL     1      45.460   7.252  12.496  0.00  0.00    +0.000 C 
BRANCH   7   8
ATOM      8  N   UNL     1      45.046   6.475  11.324  0.00  0.00    +0.000 NA
ATOM      9  H   UNL     1      44.464   7.053  10.722  0.00  0.00    +0.000 HD
BRANCH   8  10
ATOM     10  C   UNL     1      44.315   5.244  11.690  0.00  0.00    +0.000 C 
BRANCH  10  12
ATOM     11  N   UNL     1      45.791   3.490  13.010  0.00  0.00    +0.000 NA
ATOM     12  C   UNL     1      45.146   4.251  12.410  0.00  0.00    +0.000 C 
ENDBRANCH  10  12
BRANCH  10  13
ATOM     13  C   UNL     1      43.656   4.575  10.462  0.00  0.00    +0.000 C 
BRANCH  13  14
ATOM     14  C   UNL     1      44.583   3.817   9.537  0.00  0.00    +0.000 A 
ATOM     15  C   UNL     1      44.628   2.415   9.555  0.00  0.00    +0.000 A 
ATOM     16  C   UNL     1      45.470   1.722   8.684  0.00  0.00    +0.000 A 
ATOM     17  C   UNL     1      46.273   2.420   7.785  0.00  0.00    +0.000 A 
ATOM     18  C   UNL     1      46.251   3.813   7.772  0.00  0.00    +0.000 A 
ATOM     19  C   UNL     1      45.416   4.508   8.647  0.00  0.00    +0.000 A 
ENDBRANCH  13  14
ENDBRANCH  10  13
ENDBRANCH   8  10
ENDBRANCH   7   8
ENDBRANCH   1   7
BRANCH   4  20
ATOM     20  C   UNL     1      51.123   8.461  11.885  0.00  0.00    +0.000 C 
BRANCH  20  21
ATOM     21  N   UNL     1      51.517   8.120  10.547  0.00  0.00    +0.000 N 
ATOM     22  C   UNL     1      52.605   8.705   9.953  0.00  0.00    +0.000 C 
ATOM     23  O   UNL     1      53.312   9.521  10.539  0.00  0.00    +0.000 OA
ATOM     24  H   UNL     1      50.821   7.663   9.967  0.00  0.00    +0.000 HD
BRANCH  22  25
ATOM     25  C   UNL     1      52.920   8.248   8.596  0.00  0.00    +0.000 A 
ATOM     26  C   UNL     1      52.859   9.141   7.535  0.00  0.00    +0.000 A 
ATOM     27  S   UNL     1      53.289   8.449   6.037  0.00  0.00    +0.000 S 
ATOM     28  C   UNL     1      53.530   6.923   6.748  0.00  0.00    +0.000 A 
ATOM     29  N   UNL     1      53.888   5.848   5.997  0.00  0.00    +0.000 NA
ATOM     30  C   UNL     1      54.013   4.747   6.663  0.00  0.00    +0.000 A 
ATOM     31  N   UNL     1      53.820   4.627   8.015  0.00  0.00    +0.000 N 
ATOM     32  C   UNL     1      53.495   5.691   8.819  0.00  0.00    +0.000 A 
ATOM     33  O   UNL     1      53.402   5.563  10.035  0.00  0.00    +0.000 OA
ATOM     34  C   UNL     1      53.313   6.947   8.116  0.00  0.00    +0.000 A 
ATOM     35  H   UNL     1      53.956   3.741   8.480  0.00  0.00    +0.000 HD
ENDBRANCH  22  25
ENDBRANCH  20  21
ENDBRANCH   4  20
TORSDOF 9
ENDMDL
