MODEL 1
REMARK VINA RESULT:    -8.284      0.000      0.000
REMARK INTER + INTRA:         -13.208
REMARK INTER:                 -11.917
REMARK INTRA:                  -1.291
REMARK UNBOUND:                -1.291
REMARK  Name = 
REMARK  9 active torsions:
REMARK  status: ('A' for Active; 'I' for Inactive)
REMARK    1  A    between atoms: C_1  and  C_2
REMARK    2  A    between atoms: C_2  and  N_3
REMARK    3  A    between atoms: C_2  and  C_25
REMARK    4  A    between atoms: N_3  and  C_4
REMARK    5  A    between atoms: C_4  and  C_5
REMARK    6  A    between atoms: C_8  and  C_9
REMARK    7  A    between atoms: C_9  and  N_10
REMARK    8  A    between atoms: C_11  and  C_13
REMARK    9  A    between atoms: C_20  and  O_21
REMARK                            x       y       z     vdW  Elec       q    Type
REMARK                         _______ _______ _______ _____ _____    ______ ____
ROOT
ATOM      1  C   UNL     1      44.733   5.590  10.869  0.00  0.00    +0.000 A 
ATOM      2  C   UNL     1      44.209   6.041  12.089  0.00  0.00    +0.000 A 
ATOM      3  C   UNL     1      44.954   6.879  12.921  0.00  0.00    +0.000 A 
ATOM      4  C   UNL     1      46.238   7.294  12.546  0.00  0.00    +0.000 A 
ATOM      5  C   UNL     1      46.777   6.816  11.345  0.00  0.00    +0.000 A 
ATOM      6  C   UNL     1      46.032   5.976  10.511  0.00  0.00    +0.000 A 
ENDROOT
BRANCH   1   7
ATOM      7  C   UNL     1      43.950   4.623  10.011  0.00  0.00    +0.000 C 
BRANCH   7   8
ATOM      8  N   UNL     1      44.686   4.203   8.816  0.00  0.00    +0.000 NA
ATOM      9  H   UNL     1      45.389   4.911   8.602  0.00  0.00    +0.000 HD
BRANCH   8  11
ATOM     10  C   UNL     1      44.367   1.766   9.273  0.00  0.00    +0.000 C 
ATOM     11  C   UNL     1      45.360   2.908   8.990  0.00  0.00    +0.000 C 
BRANCH  11  12
ATOM     12  C   UNL     1      46.185   2.550   7.757  0.00  0.00    +0.000 A 
ATOM     13  C   UNL     1      46.739   1.267   7.611  0.00  0.00    +0.000 A 
ATOM     14  C   UNL     1      47.388   0.900   6.429  0.00  0.00    +0.000 A 
ATOM     15  C   UNL     1      47.496   1.808   5.377  0.00  0.00    +0.000 A 
ATOM     16  C   UNL     1      46.986   3.097   5.520  0.00  0.00    +0.000 A 
ATOM     17  C   UNL     1      46.349   3.469   6.706  0.00  0.00    +0.000 A 
ENDBRANCH  11  12
ENDBRANCH   8  11
ENDBRANCH   7   8
ENDBRANCH   1   7
BRANCH   4  18
ATOM     18  C   UNL     1      47.032   8.226  13.422  0.00  0.00    +0.000 C 
BRANCH  18  19
ATOM     19  N   UNL     1      47.550   7.562  14.587  0.00  0.00    +0.000 N 
ATOM     20  C   UNL     1      48.786   6.964  14.570  0.00  0.00    +0.000 C 
ATOM     21  O   UNL     1      49.532   7.024  13.596  0.00  0.00    +0.000 OA
ATOM     22  H   UNL     1      46.913   7.325  15.340  0.00  0.00    +0.000 HD
BRANCH  20  23
ATOM     23  C   UNL     1      49.177   6.284  15.803  0.00  0.00    +0.000 A 
ATOM     24  C   UNL     1      50.313   6.637  16.526  0.00  0.00    +0.000 A 
ATOM     25  N   UNL     1      50.391   5.841  17.636  0.00  0.00    +0.000 N 
ATOM     26  C   UNL     1      49.355   4.953  17.639  0.00  0.00    +0.000 A 
ATOM     27  N   UNL     1      49.170   4.020  18.592  0.00  0.00    +0.000 NA
ATOM     28  C   UNL     1      48.086   3.246  18.374  0.00  0.00    +0.000 A 
ATOM     29  C   UNL     1      47.216   3.354  17.303  0.00  0.00    +0.000 A 
ATOM     30  C   UNL     1      47.455   4.344  16.352  0.00  0.00    +0.000 A 
ATOM     31  C   UNL     1      48.571   5.192  16.514  0.00  0.00    +0.000 A 
ATOM     32  H   UNL     1      51.101   5.880  18.354  0.00  0.00    +0.000 HD
BRANCH  30  33
ATOM     33  O   UNL     1      46.615   4.489  15.279  0.00  0.00    +0.000 OA
ATOM     34  H   UNL     1      45.887   5.085  15.527  0.00  0.00    +0.000 HD
ENDBRANCH  30  33
ENDBRANCH  20  23
ENDBRANCH  18  19
ENDBRANCH   4  18
TORSDOF 8
ENDMDL
MODEL 2
REMARK VINA RESULT:    -8.177      2.083      2.463
REMARK INTER + INTRA:         -13.053
REMARK INTER:                 -11.995
REMARK INTRA:                  -1.058
REMARK UNBOUND:                -1.291
REMARK  Name = 
REMARK  9 active torsions:
REMARK  status: ('A' for Active; 'I' for Inactive)
REMARK    1  A    between atoms: C_1  and  C_2
REMARK    2  A    between atoms: C_2  and  N_3
REMARK    3  A    between atoms: C_2  and  C_25
REMARK    4  A    between atoms: N_3  and  C_4
REMARK    5  A    between atoms: C_4  and  C_5
REMARK    6  A    between atoms: C_8  and  C_9
REMARK    7  A    between atoms: C_9  and  N_10
REMARK    8  A    between atoms: C_11  and  C_13
REMARK    9  A    between atoms: C_20  and  O_21
REMARK                            x       y       z     vdW  Elec       q    Type
REMARK                         _______ _______ _______ _____ _____    ______ ____
ROOT
ATOM      1  C   UNL     1      45.188   4.054  12.145  0.00  0.00    +0.000 A 
ATOM      2  C   UNL     1      46.058   3.457  13.069  0.00  0.00    +0.000 A 
ATOM      3  C   UNL     1      46.948   4.231  13.817  0.00  0.00    +0.000 A 
ATOM      4  C   UNL     1      46.982   5.623  13.662  0.00  0.00    +0.000 A 
ATOM      5  C   UNL     1      46.139   6.217  12.713  0.00  0.00    +0.000 A 
ATOM      6  C   UNL     1      45.248   5.442  11.965  0.00  0.00    +0.000 A 
ENDROOT
BRANCH   1   7
ATOM      7  C   UNL     1      44.283   3.200  11.287  0.00  0.00    +0.000 C 
BRANCH   7   8
ATOM      8  N   UNL     1      45.019   2.429  10.282  0.00  0.00    +0.000 NA
ATOM      9  H   UNL     1      44.813   1.439  10.417  0.00  0.00    +0.000 HD
BRANCH   8  11
ATOM     10  C   UNL     1      44.325   4.298   8.774  0.00  0.00    +0.000 C 
ATOM     11  C   UNL     1      44.659   2.801   8.905  0.00  0.00    +0.000 C 
BRANCH  11  12
ATOM     12  C   UNL     1      45.785   2.459   7.933  0.00  0.00    +0.000 A 
ATOM     13  C   UNL     1      46.451   1.226   8.011  0.00  0.00    +0.000 A 
ATOM     14  C   UNL     1      47.394   0.861   7.046  0.00  0.00    +0.000 A 
ATOM     15  C   UNL     1      47.688   1.723   5.992  0.00  0.00    +0.000 A 
ATOM     16  C   UNL     1      47.065   2.967   5.921  0.00  0.00    +0.000 A 
ATOM     17  C   UNL     1      46.132   3.338   6.891  0.00  0.00    +0.000 A 
ENDBRANCH  11  12
ENDBRANCH   8  11
ENDBRANCH   7   8
ENDBRANCH   1   7
BRANCH   4  18
ATOM     18  C   UNL     1      47.914   6.467  14.489  0.00  0.00    +0.000 C 
BRANCH  18  19
ATOM     19  N   UNL     1      48.112   5.923  15.805  0.00  0.00    +0.000 N 
ATOM     20  C   UNL     1      49.353   5.929  16.393  0.00  0.00    +0.000 C 
ATOM     21  O   UNL     1      50.329   6.454  15.865  0.00  0.00    +0.000 OA
ATOM     22  H   UNL     1      47.397   5.321  16.199  0.00  0.00    +0.000 HD
BRANCH  20  23
ATOM     23  C   UNL     1      49.429   5.306  17.713  0.00  0.00    +0.000 A 
ATOM     24  C   UNL     1      50.274   4.235  17.989  0.00  0.00    +0.000 A 
ATOM     25  N   UNL     1      50.137   3.896  19.308  0.00  0.00    +0.000 N 
ATOM     26  C   UNL     1      49.197   4.695  19.892  0.00  0.00    +0.000 A 
ATOM     27  N   UNL     1      48.821   4.590  21.181  0.00  0.00    +0.000 NA
ATOM     28  C   UNL     1      47.865   5.477  21.529  0.00  0.00    +0.000 A 
ATOM     29  C   UNL     1      47.294   6.421  20.693  0.00  0.00    +0.000 A 
ATOM     30  C   UNL     1      47.729   6.486  19.370  0.00  0.00    +0.000 A 
ATOM     31  C   UNL     1      48.727   5.590  18.935  0.00  0.00    +0.000 A 
ATOM     32  H   UNL     1      50.637   3.167  19.795  0.00  0.00    +0.000 HD
BRANCH  30  33
ATOM     33  O   UNL     1      47.194   7.410  18.512  0.00  0.00    +0.000 OA
ATOM     34  H   UNL     1      46.464   7.871  18.960  0.00  0.00    +0.000 HD
ENDBRANCH  30  33
ENDBRANCH  20  23
ENDBRANCH  18  19
ENDBRANCH   4  18
TORSDOF 8
ENDMDL
MODEL 3
REMARK VINA RESULT:    -7.814      2.408      2.893
REMARK INTER + INTRA:         -12.532
REMARK INTER:                 -11.346
REMARK INTRA:                  -1.186
REMARK UNBOUND:                -1.291
REMARK  Name = 
REMARK  9 active torsions:
REMARK  status: ('A' for Active; 'I' for Inactive)
REMARK    1  A    between atoms: C_1  and  C_2
REMARK    2  A    between atoms: C_2  and  N_3
REMARK    3  A    between atoms: C_2  and  C_25
REMARK    4  A    between atoms: N_3  and  C_4
REMARK    5  A    between atoms: C_4  and  C_5
REMARK    6  A    between atoms: C_8  and  C_9
REMARK    7  A    between atoms: C_9  and  N_10
REMARK    8  A    between atoms: C_11  and  C_13
REMARK    9  A    between atoms: C_20  and  O_21
REMARK                            x       y       z     vdW  Elec       q    Type
REMARK                         _______ _______ _______ _____ _____    ______ ____
ROOT
ATOM      1  C   UNL     1      45.554   4.503  12.364  0.00  0.00    +0.000 A 
ATOM      2  C   UNL     1      45.813   5.822  11.963  0.00  0.00    +0.000 A 
ATOM      3  C   UNL     1      46.788   6.588  12.604  0.00  0.00    +0.000 A 
ATOM      4  C   UNL     1      47.536   6.047  13.658  0.00  0.00    +0.000 A 
ATOM      5  C   UNL     1      47.254   4.742  14.084  0.00  0.00    +0.000 A 
ATOM      6  C   UNL     1      46.277   3.975  13.442  0.00  0.00    +0.000 A 
ENDROOT
BRANCH   1   7
ATOM      7  C   UNL     1      44.445   3.710  11.714  0.00  0.00    +0.000 C 
BRANCH   7   8
ATOM      8  N   UNL     1      44.945   2.701  10.777  0.00  0.00    +0.000 NA
ATOM      9  H   UNL     1      44.629   1.782  11.088  0.00  0.00    +0.000 HD
BRANCH   8  11
ATOM     10  C   UNL     1      44.051   4.380   9.154  0.00  0.00    +0.000 C 
ATOM     11  C   UNL     1      44.472   2.920   9.401  0.00  0.00    +0.000 C 
BRANCH  11  12
ATOM     12  C   UNL     1      45.544   2.537   8.386  0.00  0.00    +0.000 A 
ATOM     13  C   UNL     1      46.125   3.508   7.554  0.00  0.00    +0.000 A 
ATOM     14  C   UNL     1      47.193   3.181   6.713  0.00  0.00    +0.000 A 
ATOM     15  C   UNL     1      47.693   1.880   6.688  0.00  0.00    +0.000 A 
ATOM     16  C   UNL     1      47.102   0.896   7.478  0.00  0.00    +0.000 A 
ATOM     17  C   UNL     1      46.028   1.219   8.309  0.00  0.00    +0.000 A 
ENDBRANCH  11  12
ENDBRANCH   8  11
ENDBRANCH   7   8
ENDBRANCH   1   7
BRANCH   4  18
ATOM     18  C   UNL     1      48.613   6.854  14.332  0.00  0.00    +0.000 C 
BRANCH  18  19
ATOM     19  N   UNL     1      48.300   7.131  15.707  0.00  0.00    +0.000 N 
ATOM     20  C   UNL     1      48.945   6.476  16.726  0.00  0.00    +0.000 C 
ATOM     21  O   UNL     1      49.859   5.681  16.521  0.00  0.00    +0.000 OA
ATOM     22  H   UNL     1      47.442   7.629  15.924  0.00  0.00    +0.000 HD
BRANCH  20  23
ATOM     23  C   UNL     1      48.503   6.816  18.077  0.00  0.00    +0.000 A 
ATOM     24  C   UNL     1      47.969   8.061  18.400  0.00  0.00    +0.000 A 
ATOM     25  N   UNL     1      47.628   8.062  19.725  0.00  0.00    +0.000 N 
ATOM     26  C   UNL     1      47.959   6.862  20.285  0.00  0.00    +0.000 A 
ATOM     27  N   UNL     1      47.768   6.563  21.584  0.00  0.00    +0.000 NA
ATOM     28  C   UNL     1      48.188   5.322  21.911  0.00  0.00    +0.000 A 
ATOM     29  C   UNL     1      48.759   4.407  21.044  0.00  0.00    +0.000 A 
ATOM     30  C   UNL     1      48.924   4.770  19.709  0.00  0.00    +0.000 A 
ATOM     31  C   UNL     1      48.508   6.053  19.294  0.00  0.00    +0.000 A 
ATOM     32  H   UNL     1      47.204   8.823  20.234  0.00  0.00    +0.000 HD
BRANCH  30  33
ATOM     33  O   UNL     1      49.480   3.891  18.818  0.00  0.00    +0.000 OA
ATOM     34  H   UNL     1      48.767   3.461  18.314  0.00  0.00    +0.000 HD
ENDBRANCH  30  33
ENDBRANCH  20  23
ENDBRANCH  18  19
ENDBRANCH   4  18
TORSDOF 8
ENDMDL
MODEL 4
REMARK VINA RESULT:    -7.396      2.235      8.478
REMARK INTER + INTRA:         -11.930
REMARK INTER:                 -10.039
REMARK INTRA:                  -1.890
REMARK UNBOUND:                -1.291
REMARK  Name = 
REMARK  9 active torsions:
REMARK  status: ('A' for Active; 'I' for Inactive)
REMARK    1  A    between atoms: C_1  and  C_2
REMARK    2  A    between atoms: C_2  and  N_3
REMARK    3  A    between atoms: C_2  and  C_25
REMARK    4  A    between atoms: N_3  and  C_4
REMARK    5  A    between atoms: C_4  and  C_5
REMARK    6  A    between atoms: C_8  and  C_9
REMARK    7  A    between atoms: C_9  and  N_10
REMARK    8  A    between atoms: C_11  and  C_13
REMARK    9  A    between atoms: C_20  and  O_21
REMARK                            x       y       z     vdW  Elec       q    Type
REMARK                         _______ _______ _______ _____ _____    ______ ____
ROOT
ATOM      1  C   UNL     1      48.923   7.946  16.285  0.00  0.00    +0.000 A 
ATOM      2  C   UNL     1      48.210   9.019  15.731  0.00  0.00    +0.000 A 
ATOM      3  C   UNL     1      47.785   8.986  14.401  0.00  0.00    +0.000 A 
ATOM      4  C   UNL     1      48.057   7.873  13.597  0.00  0.00    +0.000 A 
ATOM      5  C   UNL     1      48.800   6.815  14.137  0.00  0.00    +0.000 A 
ATOM      6  C   UNL     1      49.226   6.848  15.469  0.00  0.00    +0.000 A 
ENDROOT
BRANCH   1   7
ATOM      7  C   UNL     1      49.443   8.024  17.701  0.00  0.00    +0.000 C 
BRANCH   7   8
ATOM      8  N   UNL     1      50.285   6.880  18.058  0.00  0.00    +0.000 NA
ATOM      9  H   UNL     1      51.140   7.228  18.493  0.00  0.00    +0.000 HD
BRANCH   8  11
ATOM     10  C   UNL     1      48.400   6.598  19.676  0.00  0.00    +0.000 C 
ATOM     11  C   UNL     1      49.623   5.958  18.994  0.00  0.00    +0.000 C 
BRANCH  11  12
ATOM     12  C   UNL     1      49.181   4.682  18.286  0.00  0.00    +0.000 A 
ATOM     13  C   UNL     1      47.835   4.480  17.942  0.00  0.00    +0.000 A 
ATOM     14  C   UNL     1      47.450   3.371  17.183  0.00  0.00    +0.000 A 
ATOM     15  C   UNL     1      48.402   2.445  16.760  0.00  0.00    +0.000 A 
ATOM     16  C   UNL     1      49.736   2.610  17.126  0.00  0.00    +0.000 A 
ATOM     17  C   UNL     1      50.120   3.711  17.894  0.00  0.00    +0.000 A 
ENDBRANCH  11  12
ENDBRANCH   8  11
ENDBRANCH   7   8
ENDBRANCH   1   7
BRANCH   4  18
ATOM     18  C   UNL     1      47.573   7.815  12.173  0.00  0.00    +0.000 C 
BRANCH  18  19
ATOM     19  N   UNL     1      46.966   6.550  11.859  0.00  0.00    +0.000 N 
ATOM     20  C   UNL     1      45.667   6.281  12.214  0.00  0.00    +0.000 C 
ATOM     21  O   UNL     1      44.944   7.119  12.746  0.00  0.00    +0.000 OA
ATOM     22  H   UNL     1      47.562   5.772  11.595  0.00  0.00    +0.000 HD
BRANCH  20  23
ATOM     23  C   UNL     1      45.184   4.943  11.877  0.00  0.00    +0.000 A 
ATOM     24  C   UNL     1      44.749   4.038  12.842  0.00  0.00    +0.000 A 
ATOM     25  N   UNL     1      44.338   2.894  12.216  0.00  0.00    +0.000 N 
ATOM     26  C   UNL     1      44.526   3.014  10.869  0.00  0.00    +0.000 A 
ATOM     27  N   UNL     1      44.238   2.042   9.983  0.00  0.00    +0.000 NA
ATOM     28  C   UNL     1      44.523   2.383   8.708  0.00  0.00    +0.000 A 
ATOM     29  C   UNL     1      45.055   3.592   8.294  0.00  0.00    +0.000 A 
ATOM     30  C   UNL     1      45.326   4.562   9.258  0.00  0.00    +0.000 A 
ATOM     31  C   UNL     1      45.052   4.276  10.611  0.00  0.00    +0.000 A 
ATOM     32  H   UNL     1      43.957   2.071  12.660  0.00  0.00    +0.000 HD
BRANCH  30  33
ATOM     33  O   UNL     1      45.847   5.775   8.889  0.00  0.00    +0.000 OA
ATOM     34  H   UNL     1      45.117   6.401   8.746  0.00  0.00    +0.000 HD
ENDBRANCH  30  33
ENDBRANCH  20  23
ENDBRANCH  18  19
ENDBRANCH   4  18
TORSDOF 8
ENDMDL
MODEL 5
REMARK VINA RESULT:    -7.204      1.500      2.345
REMARK INTER + INTRA:         -11.654
REMARK INTER:                 -10.638
REMARK INTRA:                  -1.016
REMARK UNBOUND:                -1.291
REMARK  Name = 
REMARK  9 active torsions:
REMARK  status: ('A' for Active; 'I' for Inactive)
REMARK    1  A    between atoms: C_1  and  C_2
REMARK    2  A    between atoms: C_2  and  N_3
REMARK    3  A    between atoms: C_2  and  C_25
REMARK    4  A    between atoms: N_3  and  C_4
REMARK    5  A    between atoms: C_4  and  C_5
REMARK    6  A    between atoms: C_8  and  C_9
REMARK    7  A    between atoms: C_9  and  N_10
REMARK    8  A    between atoms: C_11  and  C_13
REMARK    9  A    between atoms: C_20  and  O_21
REMARK                            x       y       z     vdW  Elec       q    Type
REMARK                         _______ _______ _______ _____ _____    ______ ____
ROOT
ATOM      1  C   UNL     1      44.858   5.313  11.087  0.00  0.00    +0.000 A 
ATOM      2  C   UNL     1      44.828   5.058  12.466  0.00  0.00    +0.000 A 
ATOM      3  C   UNL     1      45.751   5.659  13.325  0.00  0.00    +0.000 A 
ATOM      4  C   UNL     1      46.719   6.538  12.824  0.00  0.00    +0.000 A 
ATOM      5  C   UNL     1      46.774   6.765  11.443  0.00  0.00    +0.000 A 
ATOM      6  C   UNL     1      45.850   6.163  10.582  0.00  0.00    +0.000 A 
ENDROOT
BRANCH   1   7
ATOM      7  C   UNL     1      43.905   4.599  10.158  0.00  0.00    +0.000 C 
BRANCH   7   8
ATOM      8  N   UNL     1      44.546   4.166   8.914  0.00  0.00    +0.000 NA
ATOM      9  H   UNL     1      45.181   4.901   8.603  0.00  0.00    +0.000 HD
BRANCH   8  11
ATOM     10  C   UNL     1      44.402   1.710   9.359  0.00  0.00    +0.000 C 
ATOM     11  C   UNL     1      45.310   2.919   9.073  0.00  0.00    +0.000 C 
BRANCH  11  12
ATOM     12  C   UNL     1      46.146   2.627   7.830  0.00  0.00    +0.000 A 
ATOM     13  C   UNL     1      46.765   1.378   7.659  0.00  0.00    +0.000 A 
ATOM     14  C   UNL     1      47.425   1.065   6.467  0.00  0.00    +0.000 A 
ATOM     15  C   UNL     1      47.479   1.996   5.431  0.00  0.00    +0.000 A 
ATOM     16  C   UNL     1      46.904   3.253   5.599  0.00  0.00    +0.000 A 
ATOM     17  C   UNL     1      46.255   3.571   6.794  0.00  0.00    +0.000 A 
ENDBRANCH  11  12
ENDBRANCH   8  11
ENDBRANCH   7   8
ENDBRANCH   1   7
BRANCH   4  18
ATOM     18  C   UNL     1      47.695   7.216  13.748  0.00  0.00    +0.000 C 
BRANCH  18  19
ATOM     19  N   UNL     1      48.235   6.310  14.724  0.00  0.00    +0.000 N 
ATOM     20  C   UNL     1      48.668   6.761  15.946  0.00  0.00    +0.000 C 
ATOM     21  O   UNL     1      48.554   7.934  16.292  0.00  0.00    +0.000 OA
ATOM     22  H   UNL     1      48.520   5.382  14.427  0.00  0.00    +0.000 HD
BRANCH  20  23
ATOM     23  C   UNL     1      49.236   5.745  16.830  0.00  0.00    +0.000 A 
ATOM     24  C   UNL     1      48.448   4.868  17.569  0.00  0.00    +0.000 A 
ATOM     25  N   UNL     1      49.267   4.027  18.271  0.00  0.00    +0.000 N 
ATOM     26  C   UNL     1      50.571   4.356  18.039  0.00  0.00    +0.000 A 
ATOM     27  N   UNL     1      51.616   3.724  18.606  0.00  0.00    +0.000 NA
ATOM     28  C   UNL     1      52.810   4.235  18.238  0.00  0.00    +0.000 A 
ATOM     29  C   UNL     1      53.003   5.295  17.368  0.00  0.00    +0.000 A 
ATOM     30  C   UNL     1      51.882   5.904  16.806  0.00  0.00    +0.000 A 
ATOM     31  C   UNL     1      50.601   5.422  17.145  0.00  0.00    +0.000 A 
ATOM     32  H   UNL     1      48.976   3.276  18.880  0.00  0.00    +0.000 HD
BRANCH  30  33
ATOM     33  O   UNL     1      52.030   6.952  15.936  0.00  0.00    +0.000 OA
ATOM     34  H   UNL     1      51.246   7.525  15.997  0.00  0.00    +0.000 HD
ENDBRANCH  30  33
ENDBRANCH  20  23
ENDBRANCH  18  19
ENDBRANCH   4  18
TORSDOF 8
ENDMDL
MODEL 6
REMARK VINA RESULT:    -7.091      1.771      3.319
REMARK INTER + INTRA:         -11.491
REMARK INTER:                 -10.246
REMARK INTRA:                  -1.245
REMARK UNBOUND:                -1.291
REMARK  Name = 
REMARK  9 active torsions:
REMARK  status: ('A' for Active; 'I' for Inactive)
REMARK    1  A    between atoms: C_1  and  C_2
REMARK    2  A    between atoms: C_2  and  N_3
REMARK    3  A    between atoms: C_2  and  C_25
REMARK    4  A    between atoms: N_3  and  C_4
REMARK    5  A    between atoms: C_4  and  C_5
REMARK    6  A    between atoms: C_8  and  C_9
REMARK    7  A    between atoms: C_9  and  N_10
REMARK    8  A    between atoms: C_11  and  C_13
REMARK    9  A    between atoms: C_20  and  O_21
REMARK                            x       y       z     vdW  Elec       q    Type
REMARK                         _______ _______ _______ _____ _____    ______ ____
ROOT
ATOM      1  C   UNL     1      45.147   3.430   8.500  0.00  0.00    +0.000 A 
ATOM      2  C   UNL     1      44.357   2.832   9.493  0.00  0.00    +0.000 A 
ATOM      3  C   UNL     1      44.095   3.495  10.694  0.00  0.00    +0.000 A 
ATOM      4  C   UNL     1      44.610   4.777  10.925  0.00  0.00    +0.000 A 
ATOM      5  C   UNL     1      45.430   5.360   9.949  0.00  0.00    +0.000 A 
ATOM      6  C   UNL     1      45.693   4.696   8.747  0.00  0.00    +0.000 A 
ENDROOT
BRANCH   1   7
ATOM      7  C   UNL     1      45.488   2.673   7.237  0.00  0.00    +0.000 C 
BRANCH   7   8
ATOM      8  N   UNL     1      46.260   3.477   6.287  0.00  0.00    +0.000 NA
ATOM      9  H   UNL     1      46.627   4.295   6.776  0.00  0.00    +0.000 HD
BRANCH   8  11
ATOM     10  C   UNL     1      48.307   2.126   6.773  0.00  0.00    +0.000 C 
ATOM     11  C   UNL     1      47.387   2.735   5.700  0.00  0.00    +0.000 C 
BRANCH  11  12
ATOM     12  C   UNL     1      46.891   1.621   4.784  0.00  0.00    +0.000 A 
ATOM     13  C   UNL     1      46.106   1.914   3.656  0.00  0.00    +0.000 A 
ATOM     14  C   UNL     1      45.757   0.910   2.749  0.00  0.00    +0.000 A 
ATOM     15  C   UNL     1      46.182  -0.401   2.955  0.00  0.00    +0.000 A 
ATOM     16  C   UNL     1      46.928  -0.716   4.089  0.00  0.00    +0.000 A 
ATOM     17  C   UNL     1      47.267   0.284   5.003  0.00  0.00    +0.000 A 
ENDBRANCH  11  12
ENDBRANCH   8  11
ENDBRANCH   7   8
ENDBRANCH   1   7
BRANCH   4  18
ATOM     18  C   UNL     1      44.303   5.512  12.202  0.00  0.00    +0.000 C 
BRANCH  18  19
ATOM     19  N   UNL     1      45.497   5.920  12.891  0.00  0.00    +0.000 N 
ATOM     20  C   UNL     1      46.151   5.063  13.741  0.00  0.00    +0.000 C 
ATOM     21  O   UNL     1      45.796   3.898  13.902  0.00  0.00    +0.000 OA
ATOM     22  H   UNL     1      45.722   6.908  12.939  0.00  0.00    +0.000 HD
BRANCH  20  23
ATOM     23  C   UNL     1      47.327   5.613  14.413  0.00  0.00    +0.000 A 
ATOM     24  C   UNL     1      48.123   6.602  13.841  0.00  0.00    +0.000 A 
ATOM     25  N   UNL     1      49.121   6.924  14.720  0.00  0.00    +0.000 N 
ATOM     26  C   UNL     1      49.019   6.146  15.836  0.00  0.00    +0.000 A 
ATOM     27  N   UNL     1      49.872   6.211  16.876  0.00  0.00    +0.000 NA
ATOM     28  C   UNL     1      49.580   5.333  17.859  0.00  0.00    +0.000 A 
ATOM     29  C   UNL     1      48.524   4.438  17.857  0.00  0.00    +0.000 A 
ATOM     30  C   UNL     1      47.670   4.422  16.756  0.00  0.00    +0.000 A 
ATOM     31  C   UNL     1      47.914   5.313  15.690  0.00  0.00    +0.000 A 
ATOM     32  H   UNL     1      49.839   7.620  14.583  0.00  0.00    +0.000 HD
BRANCH  30  33
ATOM     33  O   UNL     1      46.609   3.556  16.718  0.00  0.00    +0.000 OA
ATOM     34  H   UNL     1      45.890   3.914  17.266  0.00  0.00    +0.000 HD
ENDBRANCH  30  33
ENDBRANCH  20  23
ENDBRANCH  18  19
ENDBRANCH   4  18
TORSDOF 8
ENDMDL
MODEL 7
REMARK VINA RESULT:    -6.895      2.354      2.950
REMARK INTER + INTRA:         -11.210
REMARK INTER:                  -9.915
REMARK INTRA:                  -1.295
REMARK UNBOUND:                -1.291
REMARK  Name = 
REMARK  9 active torsions:
REMARK  status: ('A' for Active; 'I' for Inactive)
REMARK    1  A    between atoms: C_1  and  C_2
REMARK    2  A    between atoms: C_2  and  N_3
REMARK    3  A    between atoms: C_2  and  C_25
REMARK    4  A    between atoms: N_3  and  C_4
REMARK    5  A    between atoms: C_4  and  C_5
REMARK    6  A    between atoms: C_8  and  C_9
REMARK    7  A    between atoms: C_9  and  N_10
REMARK    8  A    between atoms: C_11  and  C_13
REMARK    9  A    between atoms: C_20  and  O_21
REMARK                            x       y       z     vdW  Elec       q    Type
REMARK                         _______ _______ _______ _____ _____    ______ ____
ROOT
ATOM      1  C   UNL     1      45.826   4.870  12.658  0.00  0.00    +0.000 A 
ATOM      2  C   UNL     1      46.230   5.914  11.814  0.00  0.00    +0.000 A 
ATOM      3  C   UNL     1      47.339   6.702  12.130  0.00  0.00    +0.000 A 
ATOM      4  C   UNL     1      48.075   6.456  13.295  0.00  0.00    +0.000 A 
ATOM      5  C   UNL     1      47.652   5.436  14.159  0.00  0.00    +0.000 A 
ATOM      6  C   UNL     1      46.541   4.648  13.842  0.00  0.00    +0.000 A 
ENDROOT
BRANCH   1   7
ATOM      7  C   UNL     1      44.581   4.073  12.345  0.00  0.00    +0.000 C 
BRANCH   7   8
ATOM      8  N   UNL     1      44.841   2.948  11.444  0.00  0.00    +0.000 NA
ATOM      9  H   UNL     1      44.444   2.102  11.856  0.00  0.00    +0.000 HD
BRANCH   8  11
ATOM     10  C   UNL     1      43.588   4.522   9.960  0.00  0.00    +0.000 C 
ATOM     11  C   UNL     1      44.252   3.142  10.110  0.00  0.00    +0.000 C 
BRANCH  11  12
ATOM     12  C   UNL     1      45.304   2.978   9.018  0.00  0.00    +0.000 A 
ATOM     13  C   UNL     1      45.784   1.705   8.667  0.00  0.00    +0.000 A 
ATOM     14  C   UNL     1      46.653   1.543   7.585  0.00  0.00    +0.000 A 
ATOM     15  C   UNL     1      47.058   2.648   6.838  0.00  0.00    +0.000 A 
ATOM     16  C   UNL     1      46.623   3.922   7.197  0.00  0.00    +0.000 A 
ATOM     17  C   UNL     1      45.765   4.087   8.286  0.00  0.00    +0.000 A 
ENDBRANCH  11  12
ENDBRANCH   8  11
ENDBRANCH   7   8
ENDBRANCH   1   7
BRANCH   4  18
ATOM     18  C   UNL     1      49.292   7.278  13.626  0.00  0.00    +0.000 C 
BRANCH  18  19
ATOM     19  N   UNL     1      49.230   7.825  14.953  0.00  0.00    +0.000 N 
ATOM     20  C   UNL     1      50.335   7.829  15.769  0.00  0.00    +0.000 C 
ATOM     21  O   UNL     1      51.435   7.436  15.389  0.00  0.00    +0.000 OA
ATOM     22  H   UNL     1      48.322   7.987  15.375  0.00  0.00    +0.000 HD
BRANCH  20  23
ATOM     23  C   UNL     1      50.128   8.373  17.110  0.00  0.00    +0.000 A 
ATOM     24  C   UNL     1      50.868   9.441  17.608  0.00  0.00    +0.000 A 
ATOM     25  N   UNL     1      50.425   9.732  18.870  0.00  0.00    +0.000 N 
ATOM     26  C   UNL     1      49.439   8.857  19.222  0.00  0.00    +0.000 A 
ATOM     27  N   UNL     1      48.817   8.871  20.417  0.00  0.00    +0.000 NA
ATOM     28  C   UNL     1      47.887   7.900  20.543  0.00  0.00    +0.000 A 
ATOM     29  C   UNL     1      47.561   6.962  19.579  0.00  0.00    +0.000 A 
ATOM     30  C   UNL     1      48.234   7.002  18.360  0.00  0.00    +0.000 A 
ATOM     31  C   UNL     1      49.220   7.991  18.156  0.00  0.00    +0.000 A 
ATOM     32  H   UNL     1      50.764  10.469  19.470  0.00  0.00    +0.000 HD
BRANCH  30  33
ATOM     33  O   UNL     1      47.937   6.095  17.376  0.00  0.00    +0.000 OA
ATOM     34  H   UNL     1      47.176   6.422  16.867  0.00  0.00    +0.000 HD
ENDBRANCH  30  33
ENDBRANCH  20  23
ENDBRANCH  18  19
ENDBRANCH   4  18
TORSDOF 8
ENDMDL
MODEL 8
REMARK VINA RESULT:    -6.722      2.181      3.258
REMARK INTER + INTRA:         -10.960
REMARK INTER:                 -10.098
REMARK INTRA:                  -0.862
REMARK UNBOUND:                -1.291
REMARK  Name = 
REMARK  9 active torsions:
REMARK  status: ('A' for Active; 'I' for Inactive)
REMARK    1  A    between atoms: C_1  and  C_2
REMARK    2  A    between atoms: C_2  and  N_3
REMARK    3  A    between atoms: C_2  and  C_25
REMARK    4  A    between atoms: N_3  and  C_4
REMARK    5  A    between atoms: C_4  and  C_5
REMARK    6  A    between atoms: C_8  and  C_9
REMARK    7  A    between atoms: C_9  and  N_10
REMARK    8  A    between atoms: C_11  and  C_13
REMARK    9  A    between atoms: C_20  and  O_21
REMARK                            x       y       z     vdW  Elec       q    Type
REMARK                         _______ _______ _______ _____ _____    ______ ____
ROOT
ATOM      1  C   UNL     1      46.068   7.405  12.502  0.00  0.00    +0.000 A 
ATOM      2  C   UNL     1      46.974   6.349  12.327  0.00  0.00    +0.000 A 
ATOM      3  C   UNL     1      48.198   6.338  12.999  0.00  0.00    +0.000 A 
ATOM      4  C   UNL     1      48.540   7.380  13.869  0.00  0.00    +0.000 A 
ATOM      5  C   UNL     1      47.652   8.454  14.017  0.00  0.00    +0.000 A 
ATOM      6  C   UNL     1      46.426   8.465  13.344  0.00  0.00    +0.000 A 
ENDROOT
BRANCH   1   7
ATOM      7  C   UNL     1      44.780   7.445  11.712  0.00  0.00    +0.000 C 
BRANCH   7   8
ATOM      8  N   UNL     1      44.800   6.551  10.552  0.00  0.00    +0.000 NA
ATOM      9  H   UNL     1      45.732   6.577  10.137  0.00  0.00    +0.000 HD
BRANCH   8  11
ATOM     10  C   UNL     1      42.977   4.954  11.168  0.00  0.00    +0.000 C 
ATOM     11  C   UNL     1      44.480   5.159  10.903  0.00  0.00    +0.000 C 
BRANCH  11  12
ATOM     12  C   UNL     1      44.922   4.200   9.801  0.00  0.00    +0.000 A 
ATOM     13  C   UNL     1      45.624   4.671   8.679  0.00  0.00    +0.000 A 
ATOM     14  C   UNL     1      46.138   3.779   7.733  0.00  0.00    +0.000 A 
ATOM     15  C   UNL     1      45.955   2.407   7.891  0.00  0.00    +0.000 A 
ATOM     16  C   UNL     1      45.227   1.926   8.977  0.00  0.00    +0.000 A 
ATOM     17  C   UNL     1      44.703   2.816   9.916  0.00  0.00    +0.000 A 
ENDBRANCH  11  12
ENDBRANCH   8  11
ENDBRANCH   7   8
ENDBRANCH   1   7
BRANCH   4  18
ATOM     18  C   UNL     1      49.843   7.359  14.623  0.00  0.00    +0.000 C 
BRANCH  18  19
ATOM     19  N   UNL     1      49.724   6.686  15.887  0.00  0.00    +0.000 N 
ATOM     20  C   UNL     1      50.795   6.589  16.741  0.00  0.00    +0.000 C 
ATOM     21  O   UNL     1      51.874   7.125  16.504  0.00  0.00    +0.000 OA
ATOM     22  H   UNL     1      48.927   6.077  16.046  0.00  0.00    +0.000 HD
BRANCH  20  23
ATOM     23  C   UNL     1      50.555   5.842  17.974  0.00  0.00    +0.000 A 
ATOM     24  C   UNL     1      51.428   4.864  18.440  0.00  0.00    +0.000 A 
ATOM     25  N   UNL     1      50.945   4.370  19.621  0.00  0.00    +0.000 N 
ATOM     26  C   UNL     1      49.759   4.976  19.920  0.00  0.00    +0.000 A 
ATOM     27  N   UNL     1      49.024   4.686  21.011  0.00  0.00    +0.000 NA
ATOM     28  C   UNL     1      47.882   5.402  21.088  0.00  0.00    +0.000 A 
ATOM     29  C   UNL     1      47.459   6.350  20.173  0.00  0.00    +0.000 A 
ATOM     30  C   UNL     1      48.265   6.612  19.067  0.00  0.00    +0.000 A 
ATOM     31  C   UNL     1      49.475   5.901  18.921  0.00  0.00    +0.000 A 
ATOM     32  H   UNL     1      51.376   3.662  20.197  0.00  0.00    +0.000 HD
BRANCH  30  33
ATOM     33  O   UNL     1      47.886   7.547  18.141  0.00  0.00    +0.000 OA
ATOM     34  H   UNL     1      46.915   7.545  18.071  0.00  0.00    +0.000 HD
ENDBRANCH  30  33
ENDBRANCH  20  23
ENDBRANCH  18  19
ENDBRANCH   4  18
TORSDOF 8
ENDMDL
MODEL 9
REMARK VINA RESULT:    -6.586      3.842      9.187
REMARK INTER + INTRA:         -10.765
REMARK INTER:                  -9.392
REMARK INTRA:                  -1.373
REMARK UNBOUND:                -1.291
REMARK  Name = 
REMARK  9 active torsions:
REMARK  status: ('A' for Active; 'I' for Inactive)
REMARK    1  A    between atoms: C_1  and  C_2
REMARK    2  A    between atoms: C_2  and  N_3
REMARK    3  A    between atoms: C_2  and  C_25
REMARK    4  A    between atoms: N_3  and  C_4
REMARK    5  A    between atoms: C_4  and  C_5
REMARK    6  A    between atoms: C_8  and  C_9
REMARK    7  A    between atoms: C_9  and  N_10
REMARK    8  A    between atoms: C_11  and  C_13
REMARK    9  A    between atoms: C_20  and  O_21
REMARK                            x       y       z     vdW  Elec       q    Type
REMARK                         _______ _______ _______ _____ _____    ______ ____
ROOT
ATOM      1  C   UNL     1      48.475   4.832  17.924  0.00  0.00    +0.000 A 
ATOM      2  C   UNL     1      47.806   3.616  17.724  0.00  0.00    +0.000 A 
ATOM      3  C   UNL     1      47.301   3.276  16.468  0.00  0.00    +0.000 A 
ATOM      4  C   UNL     1      47.461   4.142  15.379  0.00  0.00    +0.000 A 
ATOM      5  C   UNL     1      48.097   5.374  15.586  0.00  0.00    +0.000 A 
ATOM      6  C   UNL     1      48.603   5.715  16.844  0.00  0.00    +0.000 A 
ENDROOT
BRANCH   1   7
ATOM      7  C   UNL     1      48.951   5.224  19.304  0.00  0.00    +0.000 C 
BRANCH   7   8
ATOM      8  N   UNL     1      50.081   4.413  19.764  0.00  0.00    +0.000 NA
ATOM      9  H   UNL     1      49.846   3.427  19.639  0.00  0.00    +0.000 HD
BRANCH   8  11
ATOM     10  C   UNL     1      52.366   5.417  19.897  0.00  0.00    +0.000 C 
ATOM     11  C   UNL     1      51.322   4.697  19.026  0.00  0.00    +0.000 C 
BRANCH  11  12
ATOM     12  C   UNL     1      51.937   3.415  18.475  0.00  0.00    +0.000 A 
ATOM     13  C   UNL     1      53.242   3.035  18.829  0.00  0.00    +0.000 A 
ATOM     14  C   UNL     1      53.761   1.801  18.426  0.00  0.00    +0.000 A 
ATOM     15  C   UNL     1      52.986   0.930  17.661  0.00  0.00    +0.000 A 
ATOM     16  C   UNL     1      51.704   1.309  17.268  0.00  0.00    +0.000 A 
ATOM     17  C   UNL     1      51.189   2.546  17.660  0.00  0.00    +0.000 A 
ENDBRANCH  11  12
ENDBRANCH   8  11
ENDBRANCH   7   8
ENDBRANCH   1   7
BRANCH   4  18
ATOM     18  C   UNL     1      46.949   3.767  14.014  0.00  0.00    +0.000 C 
BRANCH  18  19
ATOM     19  N   UNL     1      46.364   4.888  13.331  0.00  0.00    +0.000 N 
ATOM     20  C   UNL     1      45.010   4.955  13.113  0.00  0.00    +0.000 C 
ATOM     21  O   UNL     1      44.232   4.108  13.545  0.00  0.00    +0.000 OA
ATOM     22  H   UNL     1      46.966   5.508  12.800  0.00  0.00    +0.000 HD
BRANCH  20  23
ATOM     23  C   UNL     1      44.546   6.124  12.368  0.00  0.00    +0.000 A 
ATOM     24  C   UNL     1      43.459   6.077  11.500  0.00  0.00    +0.000 A 
ATOM     25  N   UNL     1      43.259   7.327  10.979  0.00  0.00    +0.000 N 
ATOM     26  C   UNL     1      44.211   8.180  11.457  0.00  0.00    +0.000 A 
ATOM     27  N   UNL     1      44.295   9.479  11.110  0.00  0.00    +0.000 NA
ATOM     28  C   UNL     1      45.327  10.121  11.697  0.00  0.00    +0.000 A 
ATOM     29  C   UNL     1      46.236   9.556  12.576  0.00  0.00    +0.000 A 
ATOM     30  C   UNL     1      46.093   8.209  12.903  0.00  0.00    +0.000 A 
ATOM     31  C   UNL     1      45.036   7.474  12.327  0.00  0.00    +0.000 A 
ATOM     32  H   UNL     1      42.532   7.598  10.334  0.00  0.00    +0.000 HD
BRANCH  30  33
ATOM     33  O   UNL     1      46.968   7.614  13.773  0.00  0.00    +0.000 OA
ATOM     34  H   UNL     1      46.497   7.404  14.598  0.00  0.00    +0.000 HD
ENDBRANCH  30  33
ENDBRANCH  20  23
ENDBRANCH  18  19
ENDBRANCH   4  18
TORSDOF 8
ENDMDL
