MODEL 1
REMARK VINA RESULT:    -7.417      0.000      0.000
REMARK INTER + INTRA:         -11.327
REMARK INTER:                 -10.668
REMARK INTRA:                  -0.658
REMARK UNBOUND:                -0.658
REMARK  Name = 
REMARK  9 active torsions:
REMARK  status: ('A' for Active; 'I' for Inactive)
REMARK    1  A    between atoms: C_1  and  O_2
REMARK    2  A    between atoms: O_2  and  C_3
REMARK    3  A    between atoms: C_10  and  C_11
REMARK    4  A    between atoms: N_13  and  C_14
REMARK    5  A    between atoms: C_14  and  C_15
REMARK    6  A    between atoms: C_18  and  N_19
REMARK    7  A    between atoms: N_19  and  C_20
REMARK    8  A    between atoms: C_20  and  C_21
REMARK    9  A    between atoms: C_21  and  N_22
REMARK                            x       y       z     vdW  Elec       q    Type
REMARK                         _______ _______ _______ _____ _____    ______ ____
ROOT
ATOM      1  C   UNL     1      45.067   5.440  11.701  0.00  0.00    +0.000 C 
ATOM      2  O   UNL     1      44.840   4.480  12.436  0.00  0.00    +0.000 OA
ATOM      3  N   UNL     1      44.760   5.395  10.364  0.00  0.00    +0.000 N 
ATOM      4  H   UNL     1      44.930   6.192   9.766  0.00  0.00    +0.000 HD
ENDROOT
BRANCH   1  12
ATOM      5  C   UNL     1      47.706   6.109  13.800  0.00  0.00    +0.000 A 
ATOM      6  N   UNL     1      48.722   6.646  14.507  0.00  0.00    +0.000 NA
ATOM      7  C   UNL     1      48.812   7.977  14.565  0.00  0.00    +0.000 A 
ATOM      8  N   UNL     1      47.987   8.860  14.007  0.00  0.00    +0.000 NA
ATOM      9  C   UNL     1      47.001   8.282  13.299  0.00  0.00    +0.000 A 
ATOM     10  S   UNL     1      45.836   9.255  12.541  0.00  0.00    +0.000 S 
ATOM     11  C   UNL     1      45.042   7.892  11.910  0.00  0.00    +0.000 A 
ATOM     12  C   UNL     1      45.646   6.682  12.240  0.00  0.00    +0.000 A 
ATOM     13  C   UNL     1      46.791   6.920  13.110  0.00  0.00    +0.000 A 
BRANCH   5  15
ATOM     14  C   UNL     1      47.094   4.192  14.968  0.00  0.00    +0.000 C 
ATOM     15  O   UNL     1      47.607   4.734  13.752  0.00  0.00    +0.000 OA
ENDBRANCH   5  15
ENDBRANCH   1  12
BRANCH   3  16
ATOM     16  C   UNL     1      44.138   4.225   9.792  0.00  0.00    +0.000 C 
BRANCH  16  17
ATOM     17  C   UNL     1      45.041   3.472   8.848  0.00  0.00    +0.000 A 
ATOM     18  C   UNL     1      45.788   4.159   7.882  0.00  0.00    +0.000 A 
ATOM     19  C   UNL     1      46.726   3.485   7.090  0.00  0.00    +0.000 A 
ATOM     20  C   UNL     1      46.959   2.116   7.252  0.00  0.00    +0.000 A 
ATOM     21  C   UNL     1      46.129   1.415   8.133  0.00  0.00    +0.000 A 
ATOM     22  C   UNL     1      45.190   2.083   8.935  0.00  0.00    +0.000 A 
BRANCH  20  23
ATOM     23  N   UNL     1      47.918   1.392   6.518  0.00  0.00    +0.000 N 
ATOM     24  H   UNL     1      48.542   0.910   7.165  0.00  0.00    +0.000 HD
BRANCH  23  25
ATOM     25  C   UNL     1      47.398   0.444   5.518  0.00  0.00    +0.000 C 
BRANCH  25  26
ATOM     26  C   UNL     1      46.993   1.177   4.226  0.00  0.00    +0.000 C 
BRANCH  26  27
ATOM     27  N   UNL     1      47.157   0.356   3.020  0.00  0.00    +0.000 NA
ATOM     28  H   UNL     1      47.705   0.897   2.352  0.00  0.00    +0.000 HD
ATOM     29  H   UNL     1      46.241   0.230   2.586  0.00  0.00    +0.000 HD
ENDBRANCH  26  27
ENDBRANCH  25  26
ENDBRANCH  23  25
ENDBRANCH  20  23
ENDBRANCH  16  17
ENDBRANCH   3  16
TORSDOF 8
ENDMDL
MODEL 2
REMARK VINA RESULT:    -7.015      2.290      3.208
REMARK INTER + INTRA:         -10.750
REMARK INTER:                  -9.976
REMARK INTRA:                  -0.773
REMARK UNBOUND:                -0.658
REMARK  Name = 
REMARK  9 active torsions:
REMARK  status: ('A' for Active; 'I' for Inactive)
REMARK    1  A    between atoms: C_1  and  O_2
REMARK    2  A    between atoms: O_2  and  C_3
REMARK    3  A    between atoms: C_10  and  C_11
REMARK    4  A    between atoms: N_13  and  C_14
REMARK    5  A    between atoms: C_14  and  C_15
REMARK    6  A    between atoms: C_18  and  N_19
REMARK    7  A    between atoms: N_19  and  C_20
REMARK    8  A    between atoms: C_20  and  C_21
REMARK    9  A    between atoms: C_21  and  N_22
REMARK                            x       y       z     vdW  Elec       q    Type
REMARK                         _______ _______ _______ _____ _____    ______ ____
ROOT
ATOM      1  C   UNL     1      46.613   4.656  13.882  0.00  0.00    +0.000 C 
ATOM      2  O   UNL     1      46.778   3.437  13.883  0.00  0.00    +0.000 OA
ATOM      3  N   UNL     1      45.481   5.215  13.342  0.00  0.00    +0.000 N 
ATOM      4  H   UNL     1      45.338   6.216  13.360  0.00  0.00    +0.000 HD
ENDROOT
BRANCH   1  12
ATOM      5  C   UNL     1      47.824   5.032  17.077  0.00  0.00    +0.000 A 
ATOM      6  N   UNL     1      48.524   5.320  18.194  0.00  0.00    +0.000 NA
ATOM      7  C   UNL     1      49.479   6.250  18.114  0.00  0.00    +0.000 A 
ATOM      8  N   UNL     1      49.820   6.955  17.039  0.00  0.00    +0.000 NA
ATOM      9  C   UNL     1      49.110   6.625  15.947  0.00  0.00    +0.000 A 
ATOM     10  S   UNL     1      49.389   7.445  14.487  0.00  0.00    +0.000 S 
ATOM     11  C   UNL     1      48.217   6.511  13.685  0.00  0.00    +0.000 A 
ATOM     12  C   UNL     1      47.608   5.554  14.491  0.00  0.00    +0.000 A 
ATOM     13  C   UNL     1      48.113   5.658  15.855  0.00  0.00    +0.000 A 
BRANCH   5  15
ATOM     14  C   UNL     1      47.352   2.779  17.425  0.00  0.00    +0.000 C 
ATOM     15  O   UNL     1      46.828   4.081  17.165  0.00  0.00    +0.000 OA
ENDBRANCH   5  15
ENDBRANCH   1  12
BRANCH   3  16
ATOM     16  C   UNL     1      44.444   4.381  12.783  0.00  0.00    +0.000 C 
BRANCH  16  17
ATOM     17  C   UNL     1      44.637   4.095  11.316  0.00  0.00    +0.000 A 
ATOM     18  C   UNL     1      45.150   5.081  10.462  0.00  0.00    +0.000 A 
ATOM     19  C   UNL     1      45.455   4.784   9.127  0.00  0.00    +0.000 A 
ATOM     20  C   UNL     1      45.277   3.495   8.614  0.00  0.00    +0.000 A 
ATOM     21  C   UNL     1      44.656   2.548   9.436  0.00  0.00    +0.000 A 
ATOM     22  C   UNL     1      44.352   2.835  10.775  0.00  0.00    +0.000 A 
BRANCH  20  23
ATOM     23  N   UNL     1      45.606   3.125   7.297  0.00  0.00    +0.000 N 
ATOM     24  H   UNL     1      45.036   3.663   6.645  0.00  0.00    +0.000 HD
BRANCH  23  25
ATOM     25  C   UNL     1      47.028   3.224   6.924  0.00  0.00    +0.000 C 
BRANCH  25  26
ATOM     26  C   UNL     1      47.664   1.826   6.809  0.00  0.00    +0.000 C 
BRANCH  26  27
ATOM     27  N   UNL     1      48.303   1.588   5.510  0.00  0.00    +0.000 NA
ATOM     28  H   UNL     1      48.344   0.579   5.367  0.00  0.00    +0.000 HD
ATOM     29  H   UNL     1      49.275   1.897   5.565  0.00  0.00    +0.000 HD
ENDBRANCH  26  27
ENDBRANCH  25  26
ENDBRANCH  23  25
ENDBRANCH  20  23
ENDBRANCH  16  17
ENDBRANCH   3  16
TORSDOF 8
ENDMDL
MODEL 3
REMARK VINA RESULT:    -6.933      4.005      6.096
REMARK INTER + INTRA:         -10.630
REMARK INTER:                  -9.371
REMARK INTRA:                  -1.259
REMARK UNBOUND:                -0.658
REMARK  Name = 
REMARK  9 active torsions:
REMARK  status: ('A' for Active; 'I' for Inactive)
REMARK    1  A    between atoms: C_1  and  O_2
REMARK    2  A    between atoms: O_2  and  C_3
REMARK    3  A    between atoms: C_10  and  C_11
REMARK    4  A    between atoms: N_13  and  C_14
REMARK    5  A    between atoms: C_14  and  C_15
REMARK    6  A    between atoms: C_18  and  N_19
REMARK    7  A    between atoms: N_19  and  C_20
REMARK    8  A    between atoms: C_20  and  C_21
REMARK    9  A    between atoms: C_21  and  N_22
REMARK                            x       y       z     vdW  Elec       q    Type
REMARK                         _______ _______ _______ _____ _____    ______ ____
ROOT
ATOM      1  C   UNL     1      48.840   6.973  14.861  0.00  0.00    +0.000 C 
ATOM      2  O   UNL     1      49.707   6.949  13.989  0.00  0.00    +0.000 OA
ATOM      3  N   UNL     1      47.678   7.684  14.685  0.00  0.00    +0.000 N 
ATOM      4  H   UNL     1      46.958   7.686  15.395  0.00  0.00    +0.000 HD
ENDROOT
BRANCH   1  12
ATOM      5  C   UNL     1      47.239   4.238  16.196  0.00  0.00    +0.000 A 
ATOM      6  N   UNL     1      46.856   3.147  16.889  0.00  0.00    +0.000 NA
ATOM      7  C   UNL     1      47.506   2.860  18.019  0.00  0.00    +0.000 A 
ATOM      8  N   UNL     1      48.503   3.552  18.566  0.00  0.00    +0.000 NA
ATOM      9  C   UNL     1      48.863   4.621  17.835  0.00  0.00    +0.000 A 
ATOM     10  S   UNL     1      50.100   5.639  18.395  0.00  0.00    +0.000 S 
ATOM     11  C   UNL     1      49.965   6.634  17.023  0.00  0.00    +0.000 A 
ATOM     12  C   UNL     1      49.004   6.210  16.111  0.00  0.00    +0.000 A 
ATOM     13  C   UNL     1      48.315   5.032  16.624  0.00  0.00    +0.000 A 
BRANCH   5  15
ATOM     14  C   UNL     1      47.002   3.751  13.932  0.00  0.00    +0.000 C 
ATOM     15  O   UNL     1      46.557   4.540  15.035  0.00  0.00    +0.000 OA
ENDBRANCH   5  15
ENDBRANCH   1  12
BRANCH   3  16
ATOM     16  C   UNL     1      47.437   8.403  13.457  0.00  0.00    +0.000 C 
BRANCH  16  17
ATOM     17  C   UNL     1      46.525   7.671  12.507  0.00  0.00    +0.000 A 
ATOM     18  C   UNL     1      47.031   6.670  11.667  0.00  0.00    +0.000 A 
ATOM     19  C   UNL     1      46.171   5.895  10.877  0.00  0.00    +0.000 A 
ATOM     20  C   UNL     1      44.786   6.083  10.919  0.00  0.00    +0.000 A 
ATOM     21  C   UNL     1      44.298   7.158  11.667  0.00  0.00    +0.000 A 
ATOM     22  C   UNL     1      45.151   7.936  12.465  0.00  0.00    +0.000 A 
BRANCH  20  23
ATOM     23  N   UNL     1      43.870   5.308  10.184  0.00  0.00    +0.000 N 
ATOM     24  H   UNL     1      43.940   5.551   9.196  0.00  0.00    +0.000 HD
BRANCH  23  25
ATOM     25  C   UNL     1      43.964   3.847  10.351  0.00  0.00    +0.000 C 
BRANCH  25  26
ATOM     26  C   UNL     1      43.259   3.396  11.643  0.00  0.00    +0.000 C 
BRANCH  26  27
ATOM     27  N   UNL     1      43.996   2.355  12.370  0.00  0.00    +0.000 NA
ATOM     28  H   UNL     1      44.806   2.798  12.803  0.00  0.00    +0.000 HD
ATOM     29  H   UNL     1      44.376   1.693  11.692  0.00  0.00    +0.000 HD
ENDBRANCH  26  27
ENDBRANCH  25  26
ENDBRANCH  23  25
ENDBRANCH  20  23
ENDBRANCH  16  17
ENDBRANCH   3  16
TORSDOF 8
ENDMDL
MODEL 4
REMARK VINA RESULT:    -6.916      1.935      2.904
REMARK INTER + INTRA:         -10.607
REMARK INTER:                  -9.736
REMARK INTRA:                  -0.871
REMARK UNBOUND:                -0.658
REMARK  Name = 
REMARK  9 active torsions:
REMARK  status: ('A' for Active; 'I' for Inactive)
REMARK    1  A    between atoms: C_1  and  O_2
REMARK    2  A    between atoms: O_2  and  C_3
REMARK    3  A    between atoms: C_10  and  C_11
REMARK    4  A    between atoms: N_13  and  C_14
REMARK    5  A    between atoms: C_14  and  C_15
REMARK    6  A    between atoms: C_18  and  N_19
REMARK    7  A    between atoms: N_19  and  C_20
REMARK    8  A    between atoms: C_20  and  C_21
REMARK    9  A    between atoms: C_21  and  N_22
REMARK                            x       y       z     vdW  Elec       q    Type
REMARK                         _______ _______ _______ _____ _____    ______ ____
ROOT
ATOM      1  C   UNL     1      46.000   4.286  13.540  0.00  0.00    +0.000 C 
ATOM      2  O   UNL     1      46.053   3.082  13.293  0.00  0.00    +0.000 OA
ATOM      3  N   UNL     1      44.998   5.071  13.023  0.00  0.00    +0.000 N 
ATOM      4  H   UNL     1      44.946   6.056  13.244  0.00  0.00    +0.000 HD
ENDROOT
BRANCH   1  12
ATOM      5  C   UNL     1      47.959   7.098  13.277  0.00  0.00    +0.000 A 
ATOM      6  N   UNL     1      48.749   8.174  13.470  0.00  0.00    +0.000 NA
ATOM      7  C   UNL     1      49.391   8.281  14.637  0.00  0.00    +0.000 A 
ATOM      8  N   UNL     1      49.354   7.421  15.651  0.00  0.00    +0.000 NA
ATOM      9  C   UNL     1      48.544   6.374  15.423  0.00  0.00    +0.000 A 
ATOM     10  S   UNL     1      48.397   5.158  16.597  0.00  0.00    +0.000 S 
ATOM     11  C   UNL     1      47.287   4.301  15.638  0.00  0.00    +0.000 A 
ATOM     12  C   UNL     1      46.991   4.919  14.427  0.00  0.00    +0.000 A 
ATOM     13  C   UNL     1      47.781   6.136  14.284  0.00  0.00    +0.000 A 
BRANCH   5  15
ATOM     14  C   UNL     1      46.365   8.034  11.863  0.00  0.00    +0.000 C 
ATOM     15  O   UNL     1      47.308   6.983  12.066  0.00  0.00    +0.000 OA
ENDBRANCH   5  15
ENDBRANCH   1  12
BRANCH   3  16
ATOM     16  C   UNL     1      43.967   4.494  12.195  0.00  0.00    +0.000 C 
BRANCH  16  17
ATOM     17  C   UNL     1      44.457   4.098  10.825  0.00  0.00    +0.000 A 
ATOM     18  C   UNL     1      45.147   5.017  10.024  0.00  0.00    +0.000 A 
ATOM     19  C   UNL     1      45.718   4.621   8.808  0.00  0.00    +0.000 A 
ATOM     20  C   UNL     1      45.635   3.296   8.369  0.00  0.00    +0.000 A 
ATOM     21  C   UNL     1      44.846   2.412   9.112  0.00  0.00    +0.000 A 
ATOM     22  C   UNL     1      44.275   2.799  10.334  0.00  0.00    +0.000 A 
BRANCH  20  23
ATOM     23  N   UNL     1      46.226   2.828   7.180  0.00  0.00    +0.000 N 
ATOM     24  H   UNL     1      46.821   3.558   6.790  0.00  0.00    +0.000 HD
BRANCH  23  25
ATOM     25  C   UNL     1      46.976   1.564   7.275  0.00  0.00    +0.000 C 
BRANCH  25  26
ATOM     26  C   UNL     1      47.358   1.046   5.876  0.00  0.00    +0.000 C 
BRANCH  26  27
ATOM     27  N   UNL     1      48.438   1.817   5.250  0.00  0.00    +0.000 NA
ATOM     28  H   UNL     1      48.296   1.781   4.240  0.00  0.00    +0.000 HD
ATOM     29  H   UNL     1      49.322   1.335   5.420  0.00  0.00    +0.000 HD
ENDBRANCH  26  27
ENDBRANCH  25  26
ENDBRANCH  23  25
ENDBRANCH  20  23
ENDBRANCH  16  17
ENDBRANCH   3  16
TORSDOF 8
ENDMDL
MODEL 5
REMARK VINA RESULT:    -6.819      4.699      8.482
REMARK INTER + INTRA:         -10.466
REMARK INTER:                  -9.761
REMARK INTRA:                  -0.706
REMARK UNBOUND:                -0.658
REMARK  Name = 
REMARK  9 active torsions:
REMARK  status: ('A' for Active; 'I' for Inactive)
REMARK    1  A    between atoms: C_1  and  O_2
REMARK    2  A    between atoms: O_2  and  C_3
REMARK    3  A    between atoms: C_10  and  C_11
REMARK    4  A    between atoms: N_13  and  C_14
REMARK    5  A    between atoms: C_14  and  C_15
REMARK    6  A    between atoms: C_18  and  N_19
REMARK    7  A    between atoms: N_19  and  C_20
REMARK    8  A    between atoms: C_20  and  C_21
REMARK    9  A    between atoms: C_21  and  N_22
REMARK                            x       y       z     vdW  Elec       q    Type
REMARK                         _______ _______ _______ _____ _____    ______ ____
ROOT
ATOM      1  C   UNL     1      47.012   4.196  14.602  0.00  0.00    +0.000 C 
ATOM      2  O   UNL     1      47.300   3.081  14.170  0.00  0.00    +0.000 OA
ATOM      3  N   UNL     1      46.978   4.445  15.952  0.00  0.00    +0.000 N 
ATOM      4  H   UNL     1      46.761   5.368  16.304  0.00  0.00    +0.000 HD
ENDROOT
BRANCH   1  12
ATOM      5  C   UNL     1      44.295   5.041  12.672  0.00  0.00    +0.000 A 
ATOM      6  N   UNL     1      43.356   5.643  11.914  0.00  0.00    +0.000 NA
ATOM      7  C   UNL     1      43.659   6.817  11.354  0.00  0.00    +0.000 A 
ATOM      8  N   UNL     1      44.813   7.473  11.445  0.00  0.00    +0.000 NA
ATOM      9  C   UNL     1      45.712   6.847  12.222  0.00  0.00    +0.000 A 
ATOM     10  S   UNL     1      47.255   7.524  12.429  0.00  0.00    +0.000 S 
ATOM     11  C   UNL     1      47.724   6.256  13.459  0.00  0.00    +0.000 A 
ATOM     12  C   UNL     1      46.727   5.311  13.683  0.00  0.00    +0.000 A 
ATOM     13  C   UNL     1      45.542   5.645  12.903  0.00  0.00    +0.000 A 
BRANCH   5  15
ATOM     14  C   UNL     1      43.590   2.862  12.261  0.00  0.00    +0.000 C 
ATOM     15  O   UNL     1      43.986   3.822  13.239  0.00  0.00    +0.000 OA
ENDBRANCH   5  15
ENDBRANCH   1  12
BRANCH   3  16
ATOM     16  C   UNL     1      47.304   3.406  16.899  0.00  0.00    +0.000 C 
BRANCH  16  17
ATOM     17  C   UNL     1      48.787   3.232  17.104  0.00  0.00    +0.000 A 
ATOM     18  C   UNL     1      49.558   4.277  17.629  0.00  0.00    +0.000 A 
ATOM     19  C   UNL     1      50.909   4.081  17.946  0.00  0.00    +0.000 A 
ATOM     20  C   UNL     1      51.520   2.837  17.768  0.00  0.00    +0.000 A 
ATOM     21  C   UNL     1      50.779   1.833  17.135  0.00  0.00    +0.000 A 
ATOM     22  C   UNL     1      49.425   2.018  16.819  0.00  0.00    +0.000 A 
BRANCH  20  23
ATOM     23  N   UNL     1      52.859   2.567  18.108  0.00  0.00    +0.000 N 
ATOM     24  H   UNL     1      52.918   2.365  19.106  0.00  0.00    +0.000 HD
BRANCH  23  25
ATOM     25  C   UNL     1      53.529   1.503  17.339  0.00  0.00    +0.000 C 
BRANCH  25  26
ATOM     26  C   UNL     1      53.996   0.367  18.267  0.00  0.00    +0.000 C 
BRANCH  26  27
ATOM     27  N   UNL     1      52.956  -0.637  18.518  0.00  0.00    +0.000 NA
ATOM     28  H   UNL     1      52.854  -0.728  19.529  0.00  0.00    +0.000 HD
ATOM     29  H   UNL     1      53.295  -1.544  18.195  0.00  0.00    +0.000 HD
ENDBRANCH  26  27
ENDBRANCH  25  26
ENDBRANCH  23  25
ENDBRANCH  20  23
ENDBRANCH  16  17
ENDBRANCH   3  16
TORSDOF 8
ENDMDL
MODEL 6
REMARK VINA RESULT:    -6.306      4.276      8.451
REMARK INTER + INTRA:          -9.729
REMARK INTER:                  -8.891
REMARK INTRA:                  -0.839
REMARK UNBOUND:                -0.658
REMARK  Name = 
REMARK  9 active torsions:
REMARK  status: ('A' for Active; 'I' for Inactive)
REMARK    1  A    between atoms: C_1  and  O_2
REMARK    2  A    between atoms: O_2  and  C_3
REMARK    3  A    between atoms: C_10  and  C_11
REMARK    4  A    between atoms: N_13  and  C_14
REMARK    5  A    between atoms: C_14  and  C_15
REMARK    6  A    between atoms: C_18  and  N_19
REMARK    7  A    between atoms: N_19  and  C_20
REMARK    8  A    between atoms: C_20  and  C_21
REMARK    9  A    between atoms: C_21  and  N_22
REMARK                            x       y       z     vdW  Elec       q    Type
REMARK                         _______ _______ _______ _____ _____    ______ ____
ROOT
ATOM      1  C   UNL     1      48.115   6.860  13.666  0.00  0.00    +0.000 C 
ATOM      2  O   UNL     1      49.210   6.555  13.198  0.00  0.00    +0.000 OA
ATOM      3  N   UNL     1      48.017   7.522  14.866  0.00  0.00    +0.000 N 
ATOM      4  H   UNL     1      47.116   7.789  15.239  0.00  0.00    +0.000 HD
ENDROOT
BRANCH   1  12
ATOM      5  C   UNL     1      46.354   3.964  13.094  0.00  0.00    +0.000 A 
ATOM      6  N   UNL     1      45.440   3.015  12.806  0.00  0.00    +0.000 NA
ATOM      7  C   UNL     1      44.339   3.382  12.145  0.00  0.00    +0.000 A 
ATOM      8  N   UNL     1      44.038   4.603  11.710  0.00  0.00    +0.000 NA
ATOM      9  C   UNL     1      44.967   5.519  12.032  0.00  0.00    +0.000 A 
ATOM     10  S   UNL     1      44.764   7.128  11.532  0.00  0.00    +0.000 S 
ATOM     11  C   UNL     1      46.216   7.593  12.283  0.00  0.00    +0.000 A 
ATOM     12  C   UNL     1      46.871   6.556  12.939  0.00  0.00    +0.000 A 
ATOM     13  C   UNL     1      46.143   5.307  12.746  0.00  0.00    +0.000 A 
BRANCH   5  15
ATOM     14  C   UNL     1      47.325   3.620  15.181  0.00  0.00    +0.000 C 
ATOM     15  O   UNL     1      47.496   3.579  13.765  0.00  0.00    +0.000 OA
ENDBRANCH   5  15
ENDBRANCH   1  12
BRANCH   3  16
ATOM     16  C   UNL     1      49.204   7.897  15.596  0.00  0.00    +0.000 C 
BRANCH  16  17
ATOM     17  C   UNL     1      49.819   6.754  16.361  0.00  0.00    +0.000 A 
ATOM     18  C   UNL     1      51.192   6.489  16.259  0.00  0.00    +0.000 A 
ATOM     19  C   UNL     1      51.794   5.514  17.065  0.00  0.00    +0.000 A 
ATOM     20  C   UNL     1      51.051   4.793  18.005  0.00  0.00    +0.000 A 
ATOM     21  C   UNL     1      49.665   4.978  18.019  0.00  0.00    +0.000 A 
ATOM     22  C   UNL     1      49.053   5.956  17.220  0.00  0.00    +0.000 A 
BRANCH  20  23
ATOM     23  N   UNL     1      51.607   3.834  18.873  0.00  0.00    +0.000 N 
ATOM     24  H   UNL     1      50.865   3.423  19.439  0.00  0.00    +0.000 HD
BRANCH  23  25
ATOM     25  C   UNL     1      52.410   2.770  18.245  0.00  0.00    +0.000 C 
BRANCH  25  26
ATOM     26  C   UNL     1      51.509   1.784  17.478  0.00  0.00    +0.000 C 
BRANCH  26  27
ATOM     27  N   UNL     1      51.605   0.407  17.976  0.00  0.00    +0.000 NA
ATOM     28  H   UNL     1      51.135   0.375  18.881  0.00  0.00    +0.000 HD
ATOM     29  H   UNL     1      52.586   0.199  18.168  0.00  0.00    +0.000 HD
ENDBRANCH  26  27
ENDBRANCH  25  26
ENDBRANCH  23  25
ENDBRANCH  20  23
ENDBRANCH  16  17
ENDBRANCH   3  16
TORSDOF 8
ENDMDL
MODEL 7
REMARK VINA RESULT:    -6.236      4.668      8.595
REMARK INTER + INTRA:          -9.628
REMARK INTER:                  -8.870
REMARK INTRA:                  -0.758
REMARK UNBOUND:                -0.658
REMARK  Name = 
REMARK  9 active torsions:
REMARK  status: ('A' for Active; 'I' for Inactive)
REMARK    1  A    between atoms: C_1  and  O_2
REMARK    2  A    between atoms: O_2  and  C_3
REMARK    3  A    between atoms: C_10  and  C_11
REMARK    4  A    between atoms: N_13  and  C_14
REMARK    5  A    between atoms: C_14  and  C_15
REMARK    6  A    between atoms: C_18  and  N_19
REMARK    7  A    between atoms: N_19  and  C_20
REMARK    8  A    between atoms: C_20  and  C_21
REMARK    9  A    between atoms: C_21  and  N_22
REMARK                            x       y       z     vdW  Elec       q    Type
REMARK                         _______ _______ _______ _____ _____    ______ ____
ROOT
ATOM      1  C   UNL     1      46.943   4.184  14.498  0.00  0.00    +0.000 C 
ATOM      2  O   UNL     1      47.307   3.108  14.026  0.00  0.00    +0.000 OA
ATOM      3  N   UNL     1      46.932   4.394  15.855  0.00  0.00    +0.000 N 
ATOM      4  H   UNL     1      46.651   5.286  16.240  0.00  0.00    +0.000 HD
ENDROOT
BRANCH   1  12
ATOM      5  C   UNL     1      44.135   4.818  12.619  0.00  0.00    +0.000 A 
ATOM      6  N   UNL     1      43.132   5.348  11.889  0.00  0.00    +0.000 NA
ATOM      7  C   UNL     1      43.310   6.564  11.368  0.00  0.00    +0.000 A 
ATOM      8  N   UNL     1      44.394   7.329  11.473  0.00  0.00    +0.000 NA
ATOM      9  C   UNL     1      45.360   6.770  12.222  0.00  0.00    +0.000 A 
ATOM     10  S   UNL     1      46.829   7.591  12.440  0.00  0.00    +0.000 S 
ATOM     11  C   UNL     1      47.434   6.342  13.422  0.00  0.00    +0.000 A 
ATOM     12  C   UNL     1      46.539   5.295  13.620  0.00  0.00    +0.000 A 
ATOM     13  C   UNL     1      45.317   5.535  12.862  0.00  0.00    +0.000 A 
BRANCH   5  15
ATOM     14  C   UNL     1      43.526   2.619  12.158  0.00  0.00    +0.000 C 
ATOM     15  O   UNL     1      43.954   3.555  13.146  0.00  0.00    +0.000 OA
ENDBRANCH   5  15
ENDBRANCH   1  12
BRANCH   3  16
ATOM     16  C   UNL     1      47.372   3.361  16.762  0.00  0.00    +0.000 C 
BRANCH  16  17
ATOM     17  C   UNL     1      48.815   3.505  17.173  0.00  0.00    +0.000 A 
ATOM     18  C   UNL     1      49.663   2.390  17.189  0.00  0.00    +0.000 A 
ATOM     19  C   UNL     1      51.034   2.536  17.442  0.00  0.00    +0.000 A 
ATOM     20  C   UNL     1      51.597   3.796  17.665  0.00  0.00    +0.000 A 
ATOM     21  C   UNL     1      50.729   4.888  17.765  0.00  0.00    +0.000 A 
ATOM     22  C   UNL     1      49.356   4.753  17.508  0.00  0.00    +0.000 A 
BRANCH  20  23
ATOM     23  N   UNL     1      52.971   4.012  17.881  0.00  0.00    +0.000 N 
ATOM     24  H   UNL     1      53.507   3.462  17.209  0.00  0.00    +0.000 HD
BRANCH  23  25
ATOM     25  C   UNL     1      53.425   5.413  17.862  0.00  0.00    +0.000 C 
BRANCH  25  26
ATOM     26  C   UNL     1      54.154   5.736  16.544  0.00  0.00    +0.000 C 
BRANCH  26  27
ATOM     27  N   UNL     1      54.180   7.170  16.235  0.00  0.00    +0.000 NA
ATOM     28  H   UNL     1      53.277   7.559  16.506  0.00  0.00    +0.000 HD
ATOM     29  H   UNL     1      54.235   7.283  15.222  0.00  0.00    +0.000 HD
ENDBRANCH  26  27
ENDBRANCH  25  26
ENDBRANCH  23  25
ENDBRANCH  20  23
ENDBRANCH  16  17
ENDBRANCH   3  16
TORSDOF 8
ENDMDL
MODEL 8
REMARK VINA RESULT:    -6.012      3.353      5.772
REMARK INTER + INTRA:          -9.306
REMARK INTER:                  -8.486
REMARK INTRA:                  -0.820
REMARK UNBOUND:                -0.658
REMARK  Name = 
REMARK  9 active torsions:
REMARK  status: ('A' for Active; 'I' for Inactive)
REMARK    1  A    between atoms: C_1  and  O_2
REMARK    2  A    between atoms: O_2  and  C_3
REMARK    3  A    between atoms: C_10  and  C_11
REMARK    4  A    between atoms: N_13  and  C_14
REMARK    5  A    between atoms: C_14  and  C_15
REMARK    6  A    between atoms: C_18  and  N_19
REMARK    7  A    between atoms: N_19  and  C_20
REMARK    8  A    between atoms: C_20  and  C_21
REMARK    9  A    between atoms: C_21  and  N_22
REMARK                            x       y       z     vdW  Elec       q    Type
REMARK                         _______ _______ _______ _____ _____    ______ ____
ROOT
ATOM      1  C   UNL     1      49.186   6.962  15.568  0.00  0.00    +0.000 C 
ATOM      2  O   UNL     1      50.314   6.874  15.085  0.00  0.00    +0.000 OA
ATOM      3  N   UNL     1      48.071   6.967  14.767  0.00  0.00    +0.000 N 
ATOM      4  H   UNL     1      47.144   7.020  15.168  0.00  0.00    +0.000 HD
ENDROOT
BRANCH   1  12
ATOM      5  C   UNL     1      48.892   4.586  18.035  0.00  0.00    +0.000 A 
ATOM      6  N   UNL     1      48.845   3.881  19.184  0.00  0.00    +0.000 NA
ATOM      7  C   UNL     1      48.770   4.557  20.333  0.00  0.00    +0.000 A 
ATOM      8  N   UNL     1      48.718   5.878  20.482  0.00  0.00    +0.000 NA
ATOM      9  C   UNL     1      48.784   6.541  19.315  0.00  0.00    +0.000 A 
ATOM     10  S   UNL     1      48.701   8.236  19.309  0.00  0.00    +0.000 S 
ATOM     11  C   UNL     1      48.857   8.284  17.618  0.00  0.00    +0.000 A 
ATOM     12  C   UNL     1      48.993   7.032  17.027  0.00  0.00    +0.000 A 
ATOM     13  C   UNL     1      48.902   5.990  18.042  0.00  0.00    +0.000 A 
BRANCH   5  15
ATOM     14  C   UNL     1      47.671   3.435  16.423  0.00  0.00    +0.000 C 
ATOM     15  O   UNL     1      48.956   3.886  16.849  0.00  0.00    +0.000 OA
ENDBRANCH   5  15
ENDBRANCH   1  12
BRANCH   3  16
ATOM     16  C   UNL     1      48.196   6.844  13.335  0.00  0.00    +0.000 C 
BRANCH  16  17
ATOM     17  C   UNL     1      46.977   6.244  12.680  0.00  0.00    +0.000 A 
ATOM     18  C   UNL     1      46.609   6.623  11.383  0.00  0.00    +0.000 A 
ATOM     19  C   UNL     1      45.559   5.977  10.719  0.00  0.00    +0.000 A 
ATOM     20  C   UNL     1      44.862   4.924  11.320  0.00  0.00    +0.000 A 
ATOM     21  C   UNL     1      45.155   4.630  12.655  0.00  0.00    +0.000 A 
ATOM     22  C   UNL     1      46.209   5.268  13.327  0.00  0.00    +0.000 A 
BRANCH  20  23
ATOM     23  N   UNL     1      43.829   4.208  10.688  0.00  0.00    +0.000 N 
ATOM     24  H   UNL     1      43.633   4.630   9.781  0.00  0.00    +0.000 HD
BRANCH  23  25
ATOM     25  C   UNL     1      44.036   2.757  10.534  0.00  0.00    +0.000 C 
BRANCH  25  26
ATOM     26  C   UNL     1      44.639   2.433   9.155  0.00  0.00    +0.000 C 
BRANCH  26  27
ATOM     27  N   UNL     1      44.346   3.454   8.142  0.00  0.00    +0.000 NA
ATOM     28  H   UNL     1      44.111   2.969   7.276  0.00  0.00    +0.000 HD
ATOM     29  H   UNL     1      45.204   3.970   7.943  0.00  0.00    +0.000 HD
ENDBRANCH  26  27
ENDBRANCH  25  26
ENDBRANCH  23  25
ENDBRANCH  20  23
ENDBRANCH  16  17
ENDBRANCH   3  16
TORSDOF 8
ENDMDL
MODEL 9
REMARK VINA RESULT:    -5.853      5.135      8.433
REMARK INTER + INTRA:          -9.078
REMARK INTER:                  -7.917
REMARK INTRA:                  -1.161
REMARK UNBOUND:                -0.658
REMARK  Name = 
REMARK  9 active torsions:
REMARK  status: ('A' for Active; 'I' for Inactive)
REMARK    1  A    between atoms: C_1  and  O_2
REMARK    2  A    between atoms: O_2  and  C_3
REMARK    3  A    between atoms: C_10  and  C_11
REMARK    4  A    between atoms: N_13  and  C_14
REMARK    5  A    between atoms: C_14  and  C_15
REMARK    6  A    between atoms: C_18  and  N_19
REMARK    7  A    between atoms: N_19  and  C_20
REMARK    8  A    between atoms: C_20  and  C_21
REMARK    9  A    between atoms: C_21  and  N_22
REMARK                            x       y       z     vdW  Elec       q    Type
REMARK                         _______ _______ _______ _____ _____    ______ ____
ROOT
ATOM      1  C   UNL     1      46.981   4.345  14.512  0.00  0.00    +0.000 C 
ATOM      2  O   UNL     1      47.010   3.182  14.113  0.00  0.00    +0.000 OA
ATOM      3  N   UNL     1      47.137   4.640  15.844  0.00  0.00    +0.000 N 
ATOM      4  H   UNL     1      47.132   5.598  16.167  0.00  0.00    +0.000 HD
ENDROOT
BRANCH   1  12
ATOM      5  C   UNL     1      48.862   7.126  13.771  0.00  0.00    +0.000 A 
ATOM      6  N   UNL     1      49.437   8.219  13.231  0.00  0.00    +0.000 NA
ATOM      7  C   UNL     1      48.806   8.827  12.223  0.00  0.00    +0.000 A 
ATOM      8  N   UNL     1      47.639   8.483  11.686  0.00  0.00    +0.000 NA
ATOM      9  C   UNL     1      47.110   7.380  12.243  0.00  0.00    +0.000 A 
ATOM     10  S   UNL     1      45.605   6.809  11.703  0.00  0.00    +0.000 S 
ATOM     11  C   UNL     1      45.657   5.506  12.793  0.00  0.00    +0.000 A 
ATOM     12  C   UNL     1      46.811   5.463  13.569  0.00  0.00    +0.000 A 
ATOM     13  C   UNL     1      47.655   6.613  13.268  0.00  0.00    +0.000 A 
BRANCH   5  15
ATOM     14  C   UNL     1      50.153   7.445  15.681  0.00  0.00    +0.000 C 
ATOM     15  O   UNL     1      49.508   6.507  14.821  0.00  0.00    +0.000 OA
ENDBRANCH   5  15
ENDBRANCH   1  12
BRANCH   3  16
ATOM     16  C   UNL     1      47.364   3.589  16.807  0.00  0.00    +0.000 C 
BRANCH  16  17
ATOM     17  C   UNL     1      48.825   3.305  17.045  0.00  0.00    +0.000 A 
ATOM     18  C   UNL     1      49.652   4.278  17.622  0.00  0.00    +0.000 A 
ATOM     19  C   UNL     1      50.977   3.978  17.966  0.00  0.00    +0.000 A 
ATOM     20  C   UNL     1      51.505   2.700  17.765  0.00  0.00    +0.000 A 
ATOM     21  C   UNL     1      50.714   1.770  17.083  0.00  0.00    +0.000 A 
ATOM     22  C   UNL     1      49.385   2.059  16.738  0.00  0.00    +0.000 A 
BRANCH  20  23
ATOM     23  N   UNL     1      52.812   2.326  18.131  0.00  0.00    +0.000 N 
ATOM     24  H   UNL     1      53.377   2.215  17.289  0.00  0.00    +0.000 HD
BRANCH  23  25
ATOM     25  C   UNL     1      53.502   3.209  19.088  0.00  0.00    +0.000 C 
BRANCH  25  26
ATOM     26  C   UNL     1      54.762   3.827  18.453  0.00  0.00    +0.000 C 
BRANCH  26  27
ATOM     27  N   UNL     1      54.497   5.093  17.760  0.00  0.00    +0.000 NA
ATOM     28  H   UNL     1      55.162   5.166  16.990  0.00  0.00    +0.000 HD
ATOM     29  H   UNL     1      54.724   5.862  18.392  0.00  0.00    +0.000 HD
ENDBRANCH  26  27
ENDBRANCH  25  26
ENDBRANCH  23  25
ENDBRANCH  20  23
ENDBRANCH  16  17
ENDBRANCH   3  16
TORSDOF 8
ENDMDL
