MODEL 1
REMARK VINA RESULT:    -7.957      0.000      0.000
REMARK INTER + INTRA:         -11.981
REMARK INTER:                 -11.214
REMARK INTRA:                  -0.767
REMARK UNBOUND:                -0.767
REMARK  Name = 
REMARK  7 active torsions:
REMARK  status: ('A' for Active; 'I' for Inactive)
REMARK    1  A    between atoms: C_2  and  C_4
REMARK    2  A    between atoms: C_7  and  O_8
REMARK    3  A    between atoms: O_8  and  C_9
REMARK    4  A    between atoms: C_9  and  C_10
REMARK    5  A    between atoms: C_10  and  C_11
REMARK    6  A    between atoms: C_16  and  C_17
REMARK    7  A    between atoms: C_17  and  C_18
REMARK                            x       y       z     vdW  Elec       q    Type
REMARK                         _______ _______ _______ _____ _____    ______ ____
ROOT
ATOM      1  C   UNL     1      45.801   6.612  11.022  0.00  0.00    +0.000 C 
ENDROOT
BRANCH   1   2
ATOM      2  C   UNL     1      45.244   5.308  10.511  0.00  0.00    +0.000 A 
ATOM      3  C   UNL     1      44.532   4.450  11.354  0.00  0.00    +0.000 A 
ATOM      4  C   UNL     1      44.089   3.224  10.870  0.00  0.00    +0.000 A 
ATOM      5  F   UNL     1      43.382   2.416  11.671  0.00  0.00    +0.000 F 
ATOM      6  C   UNL     1      44.370   2.817   9.568  0.00  0.00    +0.000 A 
ATOM      7  C   UNL     1      45.101   3.651   8.714  0.00  0.00    +0.000 A 
ATOM      8  C   UNL     1      45.499   4.911   9.189  0.00  0.00    +0.000 A 
BRANCH   7   9
ATOM      9  C   UNL     1      45.415   3.233   7.299  0.00  0.00    +0.000 C 
BRANCH   9  10
ATOM     10  C   UNL     1      46.820   2.680   6.984  0.00  0.00    +0.000 C 
ATOM     11  C   UNL     1      47.248   2.724   5.532  0.00  0.00    +0.000 C 
ATOM     12  C   UNL     1      47.236   1.284   5.067  0.00  0.00    +0.000 C 
ATOM     13  O   UNL     1      47.217   0.442   6.218  0.00  0.00    +0.000 OA
ATOM     14  C   UNL     1      47.068   1.238   7.394  0.00  0.00    +0.000 C 
ENDBRANCH   9  10
ENDBRANCH   7   9
ENDBRANCH   1   2
BRANCH   1  15
ATOM     15  C   UNL     1      45.921   6.603  12.548  0.00  0.00    +0.000 C 
BRANCH  15  16
ATOM     16  O   UNL     1      47.294   6.379  12.894  0.00  0.00    +0.000 OA
BRANCH  16  20
ATOM     17  C   UNL     1      47.617   4.315  16.376  0.00  0.00    +0.000 A 
ATOM     18  C   UNL     1      48.458   5.388  16.124  0.00  0.00    +0.000 A 
ATOM     19  N   UNL     1      48.391   6.113  14.976  0.00  0.00    +0.000 NA
ATOM     20  C   UNL     1      47.442   5.720  14.097  0.00  0.00    +0.000 A 
ATOM     21  C   UNL     1      46.593   4.648  14.356  0.00  0.00    +0.000 A 
ATOM     22  N   UNL     1      46.656   3.909  15.495  0.00  0.00    +0.000 NA
BRANCH  17  24
ATOM     23  N   UNL     1      46.878   2.529  17.839  0.00  0.00    +0.000 N 
ATOM     24  C   UNL     1      47.770   3.548  17.646  0.00  0.00    +0.000 C 
ATOM     25  O   UNL     1      48.642   3.806  18.463  0.00  0.00    +0.000 OA
ATOM     26  H   UNL     1      46.952   1.958  18.668  0.00  0.00    +0.000 HD
ATOM     27  H   UNL     1      46.187   2.311  17.131  0.00  0.00    +0.000 HD
ENDBRANCH  17  24
ENDBRANCH  16  20
ENDBRANCH  15  16
ENDBRANCH   1  15
TORSDOF 7
ENDMDL
MODEL 2
REMARK VINA RESULT:    -7.882      3.492      8.204
REMARK INTER + INTRA:         -11.875
REMARK INTER:                 -10.953
REMARK INTRA:                  -0.922
REMARK UNBOUND:                -0.767
REMARK  Name = 
REMARK  7 active torsions:
REMARK  status: ('A' for Active; 'I' for Inactive)
REMARK    1  A    between atoms: C_2  and  C_4
REMARK    2  A    between atoms: C_7  and  O_8
REMARK    3  A    between atoms: O_8  and  C_9
REMARK    4  A    between atoms: C_9  and  C_10
REMARK    5  A    between atoms: C_10  and  C_11
REMARK    6  A    between atoms: C_16  and  C_17
REMARK    7  A    between atoms: C_17  and  C_18
REMARK                            x       y       z     vdW  Elec       q    Type
REMARK                         _______ _______ _______ _____ _____    ______ ____
ROOT
ATOM      1  C   UNL     1      43.420   5.365  12.118  0.00  0.00    +0.000 C 
ENDROOT
BRANCH   1   2
ATOM      2  C   UNL     1      44.863   5.524  12.522  0.00  0.00    +0.000 A 
ATOM      3  C   UNL     1      45.697   6.438  11.871  0.00  0.00    +0.000 A 
ATOM      4  C   UNL     1      47.041   6.513  12.223  0.00  0.00    +0.000 A 
ATOM      5  F   UNL     1      47.831   7.409  11.617  0.00  0.00    +0.000 F 
ATOM      6  C   UNL     1      47.583   5.669  13.189  0.00  0.00    +0.000 A 
ATOM      7  C   UNL     1      46.771   4.731  13.838  0.00  0.00    +0.000 A 
ATOM      8  C   UNL     1      45.404   4.696  13.519  0.00  0.00    +0.000 A 
BRANCH   7   9
ATOM      9  C   UNL     1      47.335   3.809  14.890  0.00  0.00    +0.000 C 
BRANCH   9  10
ATOM     10  C   UNL     1      47.331   4.273  16.361  0.00  0.00    +0.000 C 
ATOM     11  C   UNL     1      48.477   5.169  16.784  0.00  0.00    +0.000 C 
ATOM     12  C   UNL     1      49.341   4.314  17.686  0.00  0.00    +0.000 C 
ATOM     13  O   UNL     1      48.577   3.180  18.094  0.00  0.00    +0.000 OA
ATOM     14  C   UNL     1      47.329   3.166  17.402  0.00  0.00    +0.000 C 
ENDBRANCH   9  10
ENDBRANCH   7   9
ENDBRANCH   1   2
BRANCH   1  15
ATOM     15  C   UNL     1      43.298   4.975  10.644  0.00  0.00    +0.000 C 
BRANCH  15  16
ATOM     16  O   UNL     1      43.545   3.568  10.525  0.00  0.00    +0.000 OA
BRANCH  16  20
ATOM     17  C   UNL     1      46.336   2.863   7.660  0.00  0.00    +0.000 A 
ATOM     18  C   UNL     1      45.806   1.809   8.388  0.00  0.00    +0.000 A 
ATOM     19  N   UNL     1      44.869   1.990   9.356  0.00  0.00    +0.000 NA
ATOM     20  C   UNL     1      44.483   3.270   9.558  0.00  0.00    +0.000 A 
ATOM     21  C   UNL     1      45.010   4.325   8.820  0.00  0.00    +0.000 A 
ATOM     22  N   UNL     1      45.954   4.160   7.856  0.00  0.00    +0.000 NA
BRANCH  17  24
ATOM     23  N   UNL     1      47.173   3.150   5.404  0.00  0.00    +0.000 N 
ATOM     24  C   UNL     1      47.383   2.591   6.634  0.00  0.00    +0.000 C 
ATOM     25  O   UNL     1      48.374   1.917   6.876  0.00  0.00    +0.000 OA
ATOM     26  H   UNL     1      47.864   3.022   4.678  0.00  0.00    +0.000 HD
ATOM     27  H   UNL     1      46.363   3.735   5.237  0.00  0.00    +0.000 HD
ENDBRANCH  17  24
ENDBRANCH  16  20
ENDBRANCH  15  16
ENDBRANCH   1  15
TORSDOF 7
ENDMDL
MODEL 3
REMARK VINA RESULT:    -7.413      4.027      7.842
REMARK INTER + INTRA:         -11.214
REMARK INTER:                 -10.258
REMARK INTRA:                  -0.956
REMARK UNBOUND:                -0.767
REMARK  Name = 
REMARK  7 active torsions:
REMARK  status: ('A' for Active; 'I' for Inactive)
REMARK    1  A    between atoms: C_2  and  C_4
REMARK    2  A    between atoms: C_7  and  O_8
REMARK    3  A    between atoms: O_8  and  C_9
REMARK    4  A    between atoms: C_9  and  C_10
REMARK    5  A    between atoms: C_10  and  C_11
REMARK    6  A    between atoms: C_16  and  C_17
REMARK    7  A    between atoms: C_17  and  C_18
REMARK                            x       y       z     vdW  Elec       q    Type
REMARK                         _______ _______ _______ _____ _____    ______ ____
ROOT
ATOM      1  C   UNL     1      43.643   5.475  11.655  0.00  0.00    +0.000 C 
ENDROOT
BRANCH   1   2
ATOM      2  C   UNL     1      45.045   5.550  12.202  0.00  0.00    +0.000 A 
ATOM      3  C   UNL     1      45.410   4.838  13.349  0.00  0.00    +0.000 A 
ATOM      4  C   UNL     1      46.693   4.981  13.866  0.00  0.00    +0.000 A 
ATOM      5  F   UNL     1      47.049   4.276  14.948  0.00  0.00    +0.000 F 
ATOM      6  C   UNL     1      47.615   5.848  13.283  0.00  0.00    +0.000 A 
ATOM      7  C   UNL     1      47.263   6.587  12.148  0.00  0.00    +0.000 A 
ATOM      8  C   UNL     1      45.986   6.399  11.597  0.00  0.00    +0.000 A 
BRANCH   7   9
ATOM      9  C   UNL     1      48.245   7.530  11.498  0.00  0.00    +0.000 C 
BRANCH   9  10
ATOM     10  C   UNL     1      48.559   8.869  12.195  0.00  0.00    +0.000 C 
ATOM     11  C   UNL     1      47.404   9.837  12.337  0.00  0.00    +0.000 C 
ATOM     12  C   UNL     1      47.703  10.963  11.370  0.00  0.00    +0.000 C 
ATOM     13  O   UNL     1      49.080  10.886  11.007  0.00  0.00    +0.000 OA
ATOM     14  C   UNL     1      49.658   9.703  11.557  0.00  0.00    +0.000 C 
ENDBRANCH   9  10
ENDBRANCH   7   9
ENDBRANCH   1   2
BRANCH   1  15
ATOM     15  C   UNL     1      43.645   5.044  10.186  0.00  0.00    +0.000 C 
BRANCH  15  16
ATOM     16  O   UNL     1      43.872   3.630  10.128  0.00  0.00    +0.000 OA
BRANCH  16  20
ATOM     17  C   UNL     1      46.635   2.428   7.406  0.00  0.00    +0.000 A 
ATOM     18  C   UNL     1      46.263   3.761   7.476  0.00  0.00    +0.000 A 
ATOM     19  N   UNL     1      45.345   4.216   8.369  0.00  0.00    +0.000 NA
ATOM     20  C   UNL     1      44.822   3.279   9.191  0.00  0.00    +0.000 A 
ATOM     21  C   UNL     1      45.203   1.942   9.125  0.00  0.00    +0.000 A 
ATOM     22  N   UNL     1      46.113   1.473   8.231  0.00  0.00    +0.000 NA
BRANCH  17  24
ATOM     23  N   UNL     1      48.772   2.742   6.305  0.00  0.00    +0.000 N 
ATOM     24  C   UNL     1      47.628   1.997   6.380  0.00  0.00    +0.000 C 
ATOM     25  O   UNL     1      47.438   1.032   5.653  0.00  0.00    +0.000 OA
ATOM     26  H   UNL     1      49.492   2.479   5.648  0.00  0.00    +0.000 HD
ATOM     27  H   UNL     1      48.923   3.516   6.943  0.00  0.00    +0.000 HD
ENDBRANCH  17  24
ENDBRANCH  16  20
ENDBRANCH  15  16
ENDBRANCH   1  15
TORSDOF 7
ENDMDL
MODEL 4
REMARK VINA RESULT:    -7.319      0.907      1.299
REMARK INTER + INTRA:         -11.081
REMARK INTER:                 -10.890
REMARK INTRA:                  -0.191
REMARK UNBOUND:                -0.767
REMARK  Name = 
REMARK  7 active torsions:
REMARK  status: ('A' for Active; 'I' for Inactive)
REMARK    1  A    between atoms: C_2  and  C_4
REMARK    2  A    between atoms: C_7  and  O_8
REMARK    3  A    between atoms: O_8  and  C_9
REMARK    4  A    between atoms: C_9  and  C_10
REMARK    5  A    between atoms: C_10  and  C_11
REMARK    6  A    between atoms: C_16  and  C_17
REMARK    7  A    between atoms: C_17  and  C_18
REMARK                            x       y       z     vdW  Elec       q    Type
REMARK                         _______ _______ _______ _____ _____    ______ ____
ROOT
ATOM      1  C   UNL     1      45.480   6.455  11.451  0.00  0.00    +0.000 C 
ENDROOT
BRANCH   1   2
ATOM      2  C   UNL     1      45.026   5.195  10.761  0.00  0.00    +0.000 A 
ATOM      3  C   UNL     1      44.243   4.249  11.429  0.00  0.00    +0.000 A 
ATOM      4  C   UNL     1      43.896   3.066  10.785  0.00  0.00    +0.000 A 
ATOM      5  F   UNL     1      43.123   2.174  11.418  0.00  0.00    +0.000 F 
ATOM      6  C   UNL     1      44.342   2.788   9.496  0.00  0.00    +0.000 A 
ATOM      7  C   UNL     1      45.146   3.711   8.816  0.00  0.00    +0.000 A 
ATOM      8  C   UNL     1      45.448   4.927   9.448  0.00  0.00    +0.000 A 
BRANCH   7   9
ATOM      9  C   UNL     1      45.638   3.433   7.417  0.00  0.00    +0.000 C 
BRANCH   9  10
ATOM     10  C   UNL     1      46.955   2.651   7.237  0.00  0.00    +0.000 C 
ATOM     11  C   UNL     1      47.536   2.630   5.839  0.00  0.00    +0.000 C 
ATOM     12  C   UNL     1      47.332   1.215   5.342  0.00  0.00    +0.000 C 
ATOM     13  O   UNL     1      47.050   0.383   6.465  0.00  0.00    +0.000 OA
ATOM     14  C   UNL     1      46.913   1.186   7.637  0.00  0.00    +0.000 C 
ENDBRANCH   9  10
ENDBRANCH   7   9
ENDBRANCH   1   2
BRANCH   1  15
ATOM     15  C   UNL     1      46.702   6.192  12.335  0.00  0.00    +0.000 C 
BRANCH  15  16
ATOM     16  O   UNL     1      46.549   4.907  12.950  0.00  0.00    +0.000 OA
BRANCH  16  20
ATOM     17  C   UNL     1      48.190   4.918  16.665  0.00  0.00    +0.000 A 
ATOM     18  C   UNL     1      47.284   3.931  16.308  0.00  0.00    +0.000 A 
ATOM     19  N   UNL     1      46.708   3.880  15.079  0.00  0.00    +0.000 NA
ATOM     20  C   UNL     1      47.082   4.857  14.222  0.00  0.00    +0.000 A 
ATOM     21  C   UNL     1      47.998   5.842  14.579  0.00  0.00    +0.000 A 
ATOM     22  N   UNL     1      48.574   5.909  15.808  0.00  0.00    +0.000 NA
BRANCH  17  24
ATOM     23  N   UNL     1      48.216   4.030  18.920  0.00  0.00    +0.000 N 
ATOM     24  C   UNL     1      48.760   4.926  18.043  0.00  0.00    +0.000 C 
ATOM     25  O   UNL     1      49.663   5.683  18.371  0.00  0.00    +0.000 OA
ATOM     26  H   UNL     1      48.582   3.971  19.859  0.00  0.00    +0.000 HD
ATOM     27  H   UNL     1      47.492   3.389  18.616  0.00  0.00    +0.000 HD
ENDBRANCH  17  24
ENDBRANCH  16  20
ENDBRANCH  15  16
ENDBRANCH   1  15
TORSDOF 7
ENDMDL
MODEL 5
REMARK VINA RESULT:    -6.909      3.921      8.223
REMARK INTER + INTRA:         -10.504
REMARK INTER:                  -9.628
REMARK INTRA:                  -0.876
REMARK UNBOUND:                -0.767
REMARK  Name = 
REMARK  7 active torsions:
REMARK  status: ('A' for Active; 'I' for Inactive)
REMARK    1  A    between atoms: C_2  and  C_4
REMARK    2  A    between atoms: C_7  and  O_8
REMARK    3  A    between atoms: O_8  and  C_9
REMARK    4  A    between atoms: C_9  and  C_10
REMARK    5  A    between atoms: C_10  and  C_11
REMARK    6  A    between atoms: C_16  and  C_17
REMARK    7  A    between atoms: C_17  and  C_18
REMARK                            x       y       z     vdW  Elec       q    Type
REMARK                         _______ _______ _______ _____ _____    ______ ____
ROOT
ATOM      1  C   UNL     1      44.244   5.126  12.120  0.00  0.00    +0.000 C 
ENDROOT
BRANCH   1   2
ATOM      2  C   UNL     1      45.183   6.303  12.179  0.00  0.00    +0.000 A 
ATOM      3  C   UNL     1      44.722   7.605  11.965  0.00  0.00    +0.000 A 
ATOM      4  C   UNL     1      45.626   8.662  11.961  0.00  0.00    +0.000 A 
ATOM      5  F   UNL     1      45.177   9.911  11.782  0.00  0.00    +0.000 F 
ATOM      6  C   UNL     1      46.990   8.446  12.132  0.00  0.00    +0.000 A 
ATOM      7  C   UNL     1      47.477   7.148  12.326  0.00  0.00    +0.000 A 
ATOM      8  C   UNL     1      46.556   6.090  12.385  0.00  0.00    +0.000 A 
BRANCH   7   9
ATOM      9  C   UNL     1      48.951   6.890  12.518  0.00  0.00    +0.000 C 
BRANCH   9  10
ATOM     10  C   UNL     1      49.606   7.289  13.856  0.00  0.00    +0.000 C 
ATOM     11  C   UNL     1      48.728   7.191  15.087  0.00  0.00    +0.000 C 
ATOM     12  C   UNL     1      48.445   8.622  15.491  0.00  0.00    +0.000 C 
ATOM     13  O   UNL     1      49.388   9.468  14.835  0.00  0.00    +0.000 OA
ATOM     14  C   UNL     1      50.169   8.699  13.920  0.00  0.00    +0.000 C 
ENDBRANCH   9  10
ENDBRANCH   7   9
ENDBRANCH   1   2
BRANCH   1  15
ATOM     15  C   UNL     1      43.586   5.012  10.742  0.00  0.00    +0.000 C 
BRANCH  15  16
ATOM     16  O   UNL     1      43.525   3.626  10.381  0.00  0.00    +0.000 OA
BRANCH  16  20
ATOM     17  C   UNL     1      46.343   2.766   7.586  0.00  0.00    +0.000 A 
ATOM     18  C   UNL     1      45.877   1.772   8.432  0.00  0.00    +0.000 A 
ATOM     19  N   UNL     1      44.935   2.006   9.383  0.00  0.00    +0.000 NA
ATOM     20  C   UNL     1      44.476   3.276   9.444  0.00  0.00    +0.000 A 
ATOM     21  C   UNL     1      44.939   4.271   8.588  0.00  0.00    +0.000 A 
ATOM     22  N   UNL     1      45.888   4.052   7.640  0.00  0.00    +0.000 NA
BRANCH  17  24
ATOM     23  N   UNL     1      47.345   3.137   5.410  0.00  0.00    +0.000 N 
ATOM     24  C   UNL     1      47.401   2.441   6.586  0.00  0.00    +0.000 C 
ATOM     25  O   UNL     1      48.271   1.610   6.803  0.00  0.00    +0.000 OA
ATOM     26  H   UNL     1      48.053   2.978   4.708  0.00  0.00    +0.000 HD
ATOM     27  H   UNL     1      46.636   3.846   5.267  0.00  0.00    +0.000 HD
ENDBRANCH  17  24
ENDBRANCH  16  20
ENDBRANCH  15  16
ENDBRANCH   1  15
TORSDOF 7
ENDMDL
MODEL 6
REMARK VINA RESULT:    -6.650      3.843      4.950
REMARK INTER + INTRA:         -10.138
REMARK INTER:                  -9.129
REMARK INTRA:                  -1.009
REMARK UNBOUND:                -0.767
REMARK  Name = 
REMARK  7 active torsions:
REMARK  status: ('A' for Active; 'I' for Inactive)
REMARK    1  A    between atoms: C_2  and  C_4
REMARK    2  A    between atoms: C_7  and  O_8
REMARK    3  A    between atoms: O_8  and  C_9
REMARK    4  A    between atoms: C_9  and  C_10
REMARK    5  A    between atoms: C_10  and  C_11
REMARK    6  A    between atoms: C_16  and  C_17
REMARK    7  A    between atoms: C_17  and  C_18
REMARK                            x       y       z     vdW  Elec       q    Type
REMARK                         _______ _______ _______ _____ _____    ______ ____
ROOT
ATOM      1  C   UNL     1      49.234   8.615  12.637  0.00  0.00    +0.000 C 
ENDROOT
BRANCH   1   2
ATOM      2  C   UNL     1      47.795   8.384  12.254  0.00  0.00    +0.000 A 
ATOM      3  C   UNL     1      46.809   9.330  12.550  0.00  0.00    +0.000 A 
ATOM      4  C   UNL     1      45.481   9.057  12.242  0.00  0.00    +0.000 A 
ATOM      5  F   UNL     1      44.543   9.978  12.501  0.00  0.00    +0.000 F 
ATOM      6  C   UNL     1      45.105   7.842  11.675  0.00  0.00    +0.000 A 
ATOM      7  C   UNL     1      46.073   6.871  11.391  0.00  0.00    +0.000 A 
ATOM      8  C   UNL     1      47.419   7.172  11.652  0.00  0.00    +0.000 A 
BRANCH   7   9
ATOM      9  C   UNL     1      45.690   5.549  10.773  0.00  0.00    +0.000 C 
BRANCH   9  10
ATOM     10  C   UNL     1      44.732   4.620  11.546  0.00  0.00    +0.000 C 
ATOM     11  C   UNL     1      43.288   4.616  11.088  0.00  0.00    +0.000 C 
ATOM     12  C   UNL     1      42.519   5.323  12.183  0.00  0.00    +0.000 C 
ATOM     13  O   UNL     1      43.338   5.365  13.350  0.00  0.00    +0.000 OA
ATOM     14  C   UNL     1      44.639   4.865  13.043  0.00  0.00    +0.000 C 
ENDBRANCH   9  10
ENDBRANCH   7   9
ENDBRANCH   1   2
BRANCH   1  15
ATOM     15  C   UNL     1      49.721   7.552  13.626  0.00  0.00    +0.000 C 
BRANCH  15  16
ATOM     16  O   UNL     1      49.292   7.926  14.941  0.00  0.00    +0.000 OA
BRANCH  16  20
ATOM     17  C   UNL     1      48.012   4.673  17.008  0.00  0.00    +0.000 A 
ATOM     18  C   UNL     1      48.740   5.663  17.651  0.00  0.00    +0.000 A 
ATOM     19  N   UNL     1      49.190   6.771  17.006  0.00  0.00    +0.000 NA
ATOM     20  C   UNL     1      48.875   6.848  15.694  0.00  0.00    +0.000 A 
ATOM     21  C   UNL     1      48.137   5.857  15.052  0.00  0.00    +0.000 A 
ATOM     22  N   UNL     1      47.689   4.739  15.683  0.00  0.00    +0.000 NA
BRANCH  17  24
ATOM     23  N   UNL     1      48.330   3.153  18.869  0.00  0.00    +0.000 N 
ATOM     24  C   UNL     1      47.577   3.469  17.773  0.00  0.00    +0.000 C 
ATOM     25  O   UNL     1      46.601   2.808  17.448  0.00  0.00    +0.000 OA
ATOM     26  H   UNL     1      48.065   2.365  19.441  0.00  0.00    +0.000 HD
ATOM     27  H   UNL     1      49.113   3.737  19.139  0.00  0.00    +0.000 HD
ENDBRANCH  17  24
ENDBRANCH  16  20
ENDBRANCH  15  16
ENDBRANCH   1  15
TORSDOF 7
ENDMDL
MODEL 7
REMARK VINA RESULT:    -6.614      2.738      3.915
REMARK INTER + INTRA:         -10.087
REMARK INTER:                  -9.907
REMARK INTRA:                  -0.180
REMARK UNBOUND:                -0.767
REMARK  Name = 
REMARK  7 active torsions:
REMARK  status: ('A' for Active; 'I' for Inactive)
REMARK    1  A    between atoms: C_2  and  C_4
REMARK    2  A    between atoms: C_7  and  O_8
REMARK    3  A    between atoms: O_8  and  C_9
REMARK    4  A    between atoms: C_9  and  C_10
REMARK    5  A    between atoms: C_10  and  C_11
REMARK    6  A    between atoms: C_16  and  C_17
REMARK    7  A    between atoms: C_17  and  C_18
REMARK                            x       y       z     vdW  Elec       q    Type
REMARK                         _______ _______ _______ _____ _____    ______ ____
ROOT
ATOM      1  C   UNL     1      47.353   5.449  14.380  0.00  0.00    +0.000 C 
ENDROOT
BRANCH   1   2
ATOM      2  C   UNL     1      46.377   5.543  13.235  0.00  0.00    +0.000 A 
ATOM      3  C   UNL     1      45.852   6.776  12.836  0.00  0.00    +0.000 A 
ATOM      4  C   UNL     1      44.904   6.821  11.819  0.00  0.00    +0.000 A 
ATOM      5  F   UNL     1      44.423   8.006  11.420  0.00  0.00    +0.000 F 
ATOM      6  C   UNL     1      44.439   5.657  11.212  0.00  0.00    +0.000 A 
ATOM      7  C   UNL     1      44.935   4.410  11.612  0.00  0.00    +0.000 A 
ATOM      8  C   UNL     1      45.932   4.373  12.600  0.00  0.00    +0.000 A 
BRANCH   7   9
ATOM      9  C   UNL     1      44.450   3.136  10.966  0.00  0.00    +0.000 C 
BRANCH   9  10
ATOM     10  C   UNL     1      44.357   3.074   9.428  0.00  0.00    +0.000 C 
ATOM     11  C   UNL     1      44.765   1.765   8.785  0.00  0.00    +0.000 C 
ATOM     12  C   UNL     1      46.079   2.053   8.091  0.00  0.00    +0.000 C 
ATOM     13  O   UNL     1      46.224   3.467   7.975  0.00  0.00    +0.000 OA
ATOM     14  C   UNL     1      45.164   4.118   8.675  0.00  0.00    +0.000 C 
ENDBRANCH   9  10
ENDBRANCH   7   9
ENDBRANCH   1   2
BRANCH   1  15
ATOM     15  C   UNL     1      47.022   4.265  15.292  0.00  0.00    +0.000 C 
BRANCH  15  16
ATOM     16  O   UNL     1      47.526   4.547  16.604  0.00  0.00    +0.000 OA
BRANCH  16  20
ATOM     17  C   UNL     1      50.788   2.266  17.409  0.00  0.00    +0.000 A 
ATOM     18  C   UNL     1      50.773   3.606  17.762  0.00  0.00    +0.000 A 
ATOM     19  N   UNL     1      49.707   4.413  17.517  0.00  0.00    +0.000 NA
ATOM     20  C   UNL     1      48.656   3.817  16.910  0.00  0.00    +0.000 A 
ATOM     21  C   UNL     1      48.670   2.469  16.564  0.00  0.00    +0.000 A 
ATOM     22  N   UNL     1      49.733   1.654  16.795  0.00  0.00    +0.000 NA
BRANCH  17  24
ATOM     23  N   UNL     1      51.784   0.187  18.160  0.00  0.00    +0.000 N 
ATOM     24  C   UNL     1      52.006   1.449  17.683  0.00  0.00    +0.000 C 
ATOM     25  O   UNL     1      53.135   1.876  17.489  0.00  0.00    +0.000 OA
ATOM     26  H   UNL     1      52.571  -0.420  18.336  0.00  0.00    +0.000 HD
ATOM     27  H   UNL     1      50.838  -0.157  18.280  0.00  0.00    +0.000 HD
ENDBRANCH  17  24
ENDBRANCH  16  20
ENDBRANCH  15  16
ENDBRANCH   1  15
TORSDOF 7
ENDMDL
MODEL 8
REMARK VINA RESULT:    -6.446      4.478      9.894
REMARK INTER + INTRA:          -9.850
REMARK INTER:                  -9.083
REMARK INTRA:                  -0.767
REMARK UNBOUND:                -0.767
REMARK  Name = 
REMARK  7 active torsions:
REMARK  status: ('A' for Active; 'I' for Inactive)
REMARK    1  A    between atoms: C_2  and  C_4
REMARK    2  A    between atoms: C_7  and  O_8
REMARK    3  A    between atoms: O_8  and  C_9
REMARK    4  A    between atoms: C_9  and  C_10
REMARK    5  A    between atoms: C_10  and  C_11
REMARK    6  A    between atoms: C_16  and  C_17
REMARK    7  A    between atoms: C_17  and  C_18
REMARK                            x       y       z     vdW  Elec       q    Type
REMARK                         _______ _______ _______ _____ _____    ______ ____
ROOT
ATOM      1  C   UNL     1      48.098   2.473  16.551  0.00  0.00    +0.000 C 
ENDROOT
BRANCH   1   2
ATOM      2  C   UNL     1      49.473   2.818  17.065  0.00  0.00    +0.000 A 
ATOM      3  C   UNL     1      50.496   1.865  17.082  0.00  0.00    +0.000 A 
ATOM      4  C   UNL     1      51.733   2.196  17.624  0.00  0.00    +0.000 A 
ATOM      5  F   UNL     1      52.720   1.291  17.613  0.00  0.00    +0.000 F 
ATOM      6  C   UNL     1      51.965   3.451  18.183  0.00  0.00    +0.000 A 
ATOM      7  C   UNL     1      50.948   4.412  18.196  0.00  0.00    +0.000 A 
ATOM      8  C   UNL     1      49.718   4.093  17.600  0.00  0.00    +0.000 A 
BRANCH   7   9
ATOM      9  C   UNL     1      51.177   5.779  18.793  0.00  0.00    +0.000 C 
BRANCH   9  10
ATOM     10  C   UNL     1      50.440   6.151  20.096  0.00  0.00    +0.000 C 
ATOM     11  C   UNL     1      50.260   5.037  21.106  0.00  0.00    +0.000 C 
ATOM     12  C   UNL     1      48.783   4.706  21.077  0.00  0.00    +0.000 C 
ATOM     13  O   UNL     1      48.096   5.780  20.440  0.00  0.00    +0.000 OA
ATOM     14  C   UNL     1      49.040   6.718  19.923  0.00  0.00    +0.000 C 
ENDBRANCH   9  10
ENDBRANCH   7   9
ENDBRANCH   1   2
BRANCH   1  15
ATOM     15  C   UNL     1      47.475   3.653  15.803  0.00  0.00    +0.000 C 
BRANCH  15  16
ATOM     16  O   UNL     1      47.707   3.474  14.400  0.00  0.00    +0.000 OA
BRANCH  16  20
ATOM     17  C   UNL     1      44.803   5.182  12.131  0.00  0.00    +0.000 A 
ATOM     18  C   UNL     1      44.932   3.802  12.171  0.00  0.00    +0.000 A 
ATOM     19  N   UNL     1      45.885   3.180  12.914  0.00  0.00    +0.000 NA
ATOM     20  C   UNL     1      46.697   4.000  13.620  0.00  0.00    +0.000 A 
ATOM     21  C   UNL     1      46.560   5.384  13.586  0.00  0.00    +0.000 A 
ATOM     22  N   UNL     1      45.617   6.019  12.839  0.00  0.00    +0.000 NA
BRANCH  17  24
ATOM     23  N   UNL     1      43.663   7.158  11.313  0.00  0.00    +0.000 N 
ATOM     24  C   UNL     1      43.752   5.795  11.269  0.00  0.00    +0.000 C 
ATOM     25  O   UNL     1      43.017   5.123  10.560  0.00  0.00    +0.000 OA
ATOM     26  H   UNL     1      42.988   7.629  10.728  0.00  0.00    +0.000 HD
ATOM     27  H   UNL     1      44.307   7.696  11.881  0.00  0.00    +0.000 HD
ENDBRANCH  17  24
ENDBRANCH  16  20
ENDBRANCH  15  16
ENDBRANCH   1  15
TORSDOF 7
ENDMDL
MODEL 9
REMARK VINA RESULT:    -6.380      4.119      8.096
REMARK INTER + INTRA:          -9.759
REMARK INTER:                  -8.715
REMARK INTRA:                  -1.044
REMARK UNBOUND:                -0.767
REMARK  Name = 
REMARK  7 active torsions:
REMARK  status: ('A' for Active; 'I' for Inactive)
REMARK    1  A    between atoms: C_2  and  C_4
REMARK    2  A    between atoms: C_7  and  O_8
REMARK    3  A    between atoms: O_8  and  C_9
REMARK    4  A    between atoms: C_9  and  C_10
REMARK    5  A    between atoms: C_10  and  C_11
REMARK    6  A    between atoms: C_16  and  C_17
REMARK    7  A    between atoms: C_17  and  C_18
REMARK                            x       y       z     vdW  Elec       q    Type
REMARK                         _______ _______ _______ _____ _____    ______ ____
ROOT
ATOM      1  C   UNL     1      49.598   7.885  13.664  0.00  0.00    +0.000 C 
ENDROOT
BRANCH   1   2
ATOM      2  C   UNL     1      49.871   7.269  15.012  0.00  0.00    +0.000 A 
ATOM      3  C   UNL     1      51.170   7.206  15.527  0.00  0.00    +0.000 A 
ATOM      4  C   UNL     1      51.396   6.572  16.743  0.00  0.00    +0.000 A 
ATOM      5  F   UNL     1      52.636   6.538  17.247  0.00  0.00    +0.000 F 
ATOM      6  C   UNL     1      50.358   5.964  17.445  0.00  0.00    +0.000 A 
ATOM      7  C   UNL     1      49.054   5.995  16.937  0.00  0.00    +0.000 A 
ATOM      8  C   UNL     1      48.820   6.684  15.737  0.00  0.00    +0.000 A 
BRANCH   7   9
ATOM      9  C   UNL     1      47.913   5.346  17.682  0.00  0.00    +0.000 C 
BRANCH   9  10
ATOM     10  C   UNL     1      47.680   3.832  17.506  0.00  0.00    +0.000 C 
ATOM     11  C   UNL     1      48.677   2.917  18.187  0.00  0.00    +0.000 C 
ATOM     12  C   UNL     1      49.491   2.309  17.065  0.00  0.00    +0.000 C 
ATOM     13  O   UNL     1      48.787   2.508  15.841  0.00  0.00    +0.000 OA
ATOM     14  C   UNL     1      47.644   3.332  16.072  0.00  0.00    +0.000 C 
ENDBRANCH   9  10
ENDBRANCH   7   9
ENDBRANCH   1   2
BRANCH   1  15
ATOM     15  C   UNL     1      48.922   6.884  12.724  0.00  0.00    +0.000 C 
BRANCH  15  16
ATOM     16  O   UNL     1      47.574   7.315  12.496  0.00  0.00    +0.000 OA
BRANCH  16  20
ATOM     17  C   UNL     1      45.013   4.262  11.712  0.00  0.00    +0.000 A 
ATOM     18  C   UNL     1      45.611   4.365  12.959  0.00  0.00    +0.000 A 
ATOM     19  N   UNL     1      46.474   5.367  13.273  0.00  0.00    +0.000 NA
ATOM     20  C   UNL     1      46.705   6.264  12.288  0.00  0.00    +0.000 A 
ATOM     21  C   UNL     1      46.097   6.164  11.040  0.00  0.00    +0.000 A 
ATOM     22  N   UNL     1      45.240   5.162  10.710  0.00  0.00    +0.000 NA
BRANCH  17  24
ATOM     23  N   UNL     1      43.687   2.399  12.518  0.00  0.00    +0.000 N 
ATOM     24  C   UNL     1      44.099   3.118  11.430  0.00  0.00    +0.000 C 
ATOM     25  O   UNL     1      43.733   2.840  10.297  0.00  0.00    +0.000 OA
ATOM     26  H   UNL     1      43.045   1.631  12.389  0.00  0.00    +0.000 HD
ATOM     27  H   UNL     1      43.976   2.671  13.450  0.00  0.00    +0.000 HD
ENDBRANCH  17  24
ENDBRANCH  16  20
ENDBRANCH  15  16
ENDBRANCH   1  15
TORSDOF 7
ENDMDL
