MODEL 1
REMARK VINA RESULT:    -7.607      0.000      0.000
REMARK INTER + INTRA:         -10.592
REMARK INTER:                  -9.831
REMARK INTRA:                  -0.761
REMARK UNBOUND:                -0.761
REMARK  Name = 
REMARK  5 active torsions:
REMARK  status: ('A' for Active; 'I' for Inactive)
REMARK    1  A    between atoms: C_2  and  C_3
REMARK    2  A    between atoms: C_6  and  N_7
REMARK    3  A    between atoms: N_7  and  C_8
REMARK    4  A    between atoms: C_8  and  C_9
REMARK    5  A    between atoms: C_14  and  N_15
REMARK                            x       y       z     vdW  Elec       q    Type
REMARK                         _______ _______ _______ _____ _____    ______ ____
ROOT
ATOM      1  C   UNL     1      44.109   4.720  11.333  0.00  0.00    +0.000 C 
ATOM      2  C   UNL     1      43.234   3.542  11.734  0.00  0.00    +0.000 C 
ATOM      3  C   UNL     1      42.701   4.922  11.898  0.00  0.00    +0.000 C 
ENDROOT
BRANCH   1   4
ATOM      4  C   UNL     1      45.180   5.254  12.277  0.00  0.00    +0.000 A 
ATOM      5  C   UNL     1      45.605   4.513  13.390  0.00  0.00    +0.000 A 
ATOM      6  C   UNL     1      46.759   4.867  14.081  0.00  0.00    +0.000 A 
ATOM      7  C   UNL     1      47.499   5.975  13.672  0.00  0.00    +0.000 A 
ATOM      8  F   UNL     1      48.671   6.188  14.291  0.00  0.00    +0.000 F 
ATOM      9  C   UNL     1      47.077   6.806  12.618  0.00  0.00    +0.000 A 
ATOM     10  C   UNL     1      45.883   6.432  11.978  0.00  0.00    +0.000 A 
BRANCH   9  11
ATOM     11  N   UNL     1      47.749   7.942  12.197  0.00  0.00    +0.000 N 
ATOM     12  C   UNL     1      48.968   7.864  11.394  0.00  0.00    +0.000 C 
ATOM     13  C   UNL     1      49.957   8.897  11.938  0.00  0.00    +0.000 C 
ATOM     14  C   UNL     1      49.347  10.297  12.001  0.00  0.00    +0.000 C 
ATOM     15  C   UNL     1      48.004  10.296  12.732  0.00  0.00    +0.000 C 
ATOM     16  C   UNL     1      47.067   9.239  12.154  0.00  0.00    +0.000 C 
ENDBRANCH   9  11
ENDBRANCH   1   4
BRANCH   1  17
ATOM     17  N   UNL     1      44.348   4.970   9.907  0.00  0.00    +0.000 N 
ATOM     18  H   UNL     1      43.798   5.686   9.446  0.00  0.00    +0.000 HD
BRANCH  17  22
ATOM     19  C   UNL     1      46.679   2.620   7.361  0.00  0.00    +0.000 A 
ATOM     20  C   UNL     1      45.899   1.968   8.309  0.00  0.00    +0.000 A 
ATOM     21  C   UNL     1      45.107   2.736   9.166  0.00  0.00    +0.000 A 
ATOM     22  C   UNL     1      45.077   4.125   9.052  0.00  0.00    +0.000 A 
ATOM     23  C   UNL     1      45.917   4.673   8.077  0.00  0.00    +0.000 A 
ATOM     24  N   UNL     1      46.704   3.964   7.227  0.00  0.00    +0.000 NA
BRANCH  19  26
ATOM     25  N   UNL     1      48.224   1.313   5.723  0.00  0.00    +0.000 NA
ATOM     26  C   UNL     1      47.529   1.873   6.462  0.00  0.00    +0.000 C 
ENDBRANCH  19  26
ENDBRANCH  17  22
ENDBRANCH   1  17
TORSDOF 5
ENDMDL
MODEL 2
REMARK VINA RESULT:    -7.601      1.876      3.509
REMARK INTER + INTRA:         -10.584
REMARK INTER:                 -10.306
REMARK INTRA:                  -0.278
REMARK UNBOUND:                -0.761
REMARK  Name = 
REMARK  5 active torsions:
REMARK  status: ('A' for Active; 'I' for Inactive)
REMARK    1  A    between atoms: C_2  and  C_3
REMARK    2  A    between atoms: C_6  and  N_7
REMARK    3  A    between atoms: N_7  and  C_8
REMARK    4  A    between atoms: C_8  and  C_9
REMARK    5  A    between atoms: C_14  and  N_15
REMARK                            x       y       z     vdW  Elec       q    Type
REMARK                         _______ _______ _______ _____ _____    ______ ____
ROOT
ATOM      1  C   UNL     1      44.431   4.487  11.788  0.00  0.00    +0.000 C 
ATOM      2  C   UNL     1      43.716   3.404  12.581  0.00  0.00    +0.000 C 
ATOM      3  C   UNL     1      43.254   4.813  12.710  0.00  0.00    +0.000 C 
ENDROOT
BRANCH   1   4
ATOM      4  C   UNL     1      45.734   5.094  12.295  0.00  0.00    +0.000 A 
ATOM      5  C   UNL     1      46.327   6.188  11.648  0.00  0.00    +0.000 A 
ATOM      6  C   UNL     1      47.348   6.908  12.261  0.00  0.00    +0.000 A 
ATOM      7  C   UNL     1      47.796   6.534  13.527  0.00  0.00    +0.000 A 
ATOM      8  F   UNL     1      48.687   7.344  14.123  0.00  0.00    +0.000 F 
ATOM      9  C   UNL     1      47.300   5.397  14.188  0.00  0.00    +0.000 A 
ATOM     10  C   UNL     1      46.299   4.677  13.511  0.00  0.00    +0.000 A 
BRANCH   9  11
ATOM     11  N   UNL     1      47.737   4.955  15.427  0.00  0.00    +0.000 N 
ATOM     12  C   UNL     1      48.455   5.833  16.349  0.00  0.00    +0.000 C 
ATOM     13  C   UNL     1      49.610   5.034  16.956  0.00  0.00    +0.000 C 
ATOM     14  C   UNL     1      49.132   3.728  17.591  0.00  0.00    +0.000 C 
ATOM     15  C   UNL     1      48.270   2.913  16.626  0.00  0.00    +0.000 C 
ATOM     16  C   UNL     1      47.144   3.765  16.046  0.00  0.00    +0.000 C 
ENDBRANCH   9  11
ENDBRANCH   1   4
BRANCH   1  17
ATOM     17  N   UNL     1      44.236   4.545  10.335  0.00  0.00    +0.000 N 
ATOM     18  H   UNL     1      43.391   4.980   9.981  0.00  0.00    +0.000 HD
BRANCH  17  22
ATOM     19  C   UNL     1      46.597   2.539   7.535  0.00  0.00    +0.000 A 
ATOM     20  C   UNL     1      45.892   1.771   8.455  0.00  0.00    +0.000 A 
ATOM     21  C   UNL     1      45.091   2.424   9.396  0.00  0.00    +0.000 A 
ATOM     22  C   UNL     1      44.978   3.813   9.392  0.00  0.00    +0.000 A 
ATOM     23  C   UNL     1      45.748   4.483   8.436  0.00  0.00    +0.000 A 
ATOM     24  N   UNL     1      46.541   3.889   7.507  0.00  0.00    +0.000 NA
BRANCH  19  26
ATOM     25  N   UNL     1      48.114   1.376   5.768  0.00  0.00    +0.000 NA
ATOM     26  C   UNL     1      47.452   1.915   6.552  0.00  0.00    +0.000 C 
ENDBRANCH  19  26
ENDBRANCH  17  22
ENDBRANCH   1  17
TORSDOF 5
ENDMDL
MODEL 3
REMARK VINA RESULT:    -7.537      1.676      2.510
REMARK INTER + INTRA:         -10.501
REMARK INTER:                  -9.647
REMARK INTRA:                  -0.854
REMARK UNBOUND:                -0.761
REMARK  Name = 
REMARK  5 active torsions:
REMARK  status: ('A' for Active; 'I' for Inactive)
REMARK    1  A    between atoms: C_2  and  C_3
REMARK    2  A    between atoms: C_6  and  N_7
REMARK    3  A    between atoms: N_7  and  C_8
REMARK    4  A    between atoms: C_8  and  C_9
REMARK    5  A    between atoms: C_14  and  N_15
REMARK                            x       y       z     vdW  Elec       q    Type
REMARK                         _______ _______ _______ _____ _____    ______ ____
ROOT
ATOM      1  C   UNL     1      44.302   4.315  11.529  0.00  0.00    +0.000 C 
ATOM      2  C   UNL     1      44.433   3.236  12.592  0.00  0.00    +0.000 C 
ATOM      3  C   UNL     1      43.237   4.121  12.610  0.00  0.00    +0.000 C 
ENDROOT
BRANCH   1   4
ATOM      4  C   UNL     1      45.025   5.649  11.678  0.00  0.00    +0.000 A 
ATOM      5  C   UNL     1      44.399   6.858  11.342  0.00  0.00    +0.000 A 
ATOM      6  C   UNL     1      44.946   8.076  11.734  0.00  0.00    +0.000 A 
ATOM      7  C   UNL     1      46.136   8.098  12.460  0.00  0.00    +0.000 A 
ATOM      8  F   UNL     1      46.544   9.291  12.924  0.00  0.00    +0.000 F 
ATOM      9  C   UNL     1      46.854   6.925  12.753  0.00  0.00    +0.000 A 
ATOM     10  C   UNL     1      46.282   5.723  12.299  0.00  0.00    +0.000 A 
BRANCH   9  11
ATOM     11  N   UNL     1      48.060   6.892  13.433  0.00  0.00    +0.000 N 
ATOM     12  C   UNL     1      48.199   6.219  14.724  0.00  0.00    +0.000 C 
ATOM     13  C   UNL     1      49.046   7.114  15.632  0.00  0.00    +0.000 C 
ATOM     14  C   UNL     1      50.378   7.491  14.984  0.00  0.00    +0.000 C 
ATOM     15  C   UNL     1      50.182   8.062  13.579  0.00  0.00    +0.000 C 
ATOM     16  C   UNL     1      49.322   7.133  12.726  0.00  0.00    +0.000 C 
ENDBRANCH   9  11
ENDBRANCH   1   4
BRANCH   1  17
ATOM     17  N   UNL     1      43.999   3.917  10.150  0.00  0.00    +0.000 N 
ATOM     18  H   UNL     1      43.029   3.769   9.894  0.00  0.00    +0.000 HD
BRANCH  17  22
ATOM     19  C   UNL     1      46.686   2.355   7.361  0.00  0.00    +0.000 A 
ATOM     20  C   UNL     1      46.478   3.729   7.358  0.00  0.00    +0.000 A 
ATOM     21  C   UNL     1      45.587   4.272   8.288  0.00  0.00    +0.000 A 
ATOM     22  C   UNL     1      44.945   3.456   9.218  0.00  0.00    +0.000 A 
ATOM     23  C   UNL     1      45.215   2.088   9.113  0.00  0.00    +0.000 A 
ATOM     24  N   UNL     1      46.069   1.519   8.224  0.00  0.00    +0.000 NA
BRANCH  19  26
ATOM     25  N   UNL     1      48.280   1.270   5.612  0.00  0.00    +0.000 NA
ATOM     26  C   UNL     1      47.583   1.741   6.408  0.00  0.00    +0.000 C 
ENDBRANCH  19  26
ENDBRANCH  17  22
ENDBRANCH   1  17
TORSDOF 5
ENDMDL
MODEL 4
REMARK VINA RESULT:    -7.191      2.144      2.807
REMARK INTER + INTRA:         -10.054
REMARK INTER:                  -9.661
REMARK INTRA:                  -0.393
REMARK UNBOUND:                -0.761
REMARK  Name = 
REMARK  5 active torsions:
REMARK  status: ('A' for Active; 'I' for Inactive)
REMARK    1  A    between atoms: C_2  and  C_3
REMARK    2  A    between atoms: C_6  and  N_7
REMARK    3  A    between atoms: N_7  and  C_8
REMARK    4  A    between atoms: C_8  and  C_9
REMARK    5  A    between atoms: C_14  and  N_15
REMARK                            x       y       z     vdW  Elec       q    Type
REMARK                         _______ _______ _______ _____ _____    ______ ____
ROOT
ATOM      1  C   UNL     1      44.319   4.696  11.655  0.00  0.00    +0.000 C 
ATOM      2  C   UNL     1      44.360   3.470  12.553  0.00  0.00    +0.000 C 
ATOM      3  C   UNL     1      43.218   4.416  12.680  0.00  0.00    +0.000 C 
ENDROOT
BRANCH   1   4
ATOM      4  C   UNL     1      45.115   5.948  12.005  0.00  0.00    +0.000 A 
ATOM      5  C   UNL     1      46.426   5.863  12.499  0.00  0.00    +0.000 A 
ATOM      6  C   UNL     1      47.239   6.991  12.553  0.00  0.00    +0.000 A 
ATOM      7  C   UNL     1      46.746   8.222  12.124  0.00  0.00    +0.000 A 
ATOM      8  F   UNL     1      47.617   9.243  12.074  0.00  0.00    +0.000 F 
ATOM      9  C   UNL     1      45.416   8.386  11.700  0.00  0.00    +0.000 A 
ATOM     10  C   UNL     1      44.620   7.227  11.702  0.00  0.00    +0.000 A 
BRANCH   9  11
ATOM     11  N   UNL     1      44.861   9.592  11.303  0.00  0.00    +0.000 N 
ATOM     12  C   UNL     1      43.478   9.689  10.839  0.00  0.00    +0.000 C 
ATOM     13  C   UNL     1      43.455  10.611   9.619  0.00  0.00    +0.000 C 
ATOM     14  C   UNL     1      44.107  11.963   9.908  0.00  0.00    +0.000 C 
ATOM     15  C   UNL     1      45.498  11.800  10.521  0.00  0.00    +0.000 C 
ATOM     16  C   UNL     1      45.459  10.863  11.725  0.00  0.00    +0.000 C 
ENDBRANCH   9  11
ENDBRANCH   1   4
BRANCH   1  17
ATOM     17  N   UNL     1      44.027   4.518  10.228  0.00  0.00    +0.000 N 
ATOM     18  H   UNL     1      43.097   4.750   9.895  0.00  0.00    +0.000 HD
BRANCH  17  22
ATOM     19  C   UNL     1      46.559   2.554   7.552  0.00  0.00    +0.000 A 
ATOM     20  C   UNL     1      45.831   1.774   8.443  0.00  0.00    +0.000 A 
ATOM     21  C   UNL     1      44.973   2.412   9.342  0.00  0.00    +0.000 A 
ATOM     22  C   UNL     1      44.828   3.799   9.325  0.00  0.00    +0.000 A 
ATOM     23  C   UNL     1      45.626   4.481   8.401  0.00  0.00    +0.000 A 
ATOM     24  N   UNL     1      46.474   3.901   7.513  0.00  0.00    +0.000 NA
BRANCH  19  26
ATOM     25  N   UNL     1      48.235   1.490   5.866  0.00  0.00    +0.000 NA
ATOM     26  C   UNL     1      47.474   1.944   6.613  0.00  0.00    +0.000 C 
ENDBRANCH  19  26
ENDBRANCH  17  22
ENDBRANCH   1  17
TORSDOF 5
ENDMDL
MODEL 5
REMARK VINA RESULT:    -6.021      3.611      6.318
REMARK INTER + INTRA:          -8.541
REMARK INTER:                  -7.919
REMARK INTRA:                  -0.623
REMARK UNBOUND:                -0.761
REMARK  Name = 
REMARK  5 active torsions:
REMARK  status: ('A' for Active; 'I' for Inactive)
REMARK    1  A    between atoms: C_2  and  C_3
REMARK    2  A    between atoms: C_6  and  N_7
REMARK    3  A    between atoms: N_7  and  C_8
REMARK    4  A    between atoms: C_8  and  C_9
REMARK    5  A    between atoms: C_14  and  N_15
REMARK                            x       y       z     vdW  Elec       q    Type
REMARK                         _______ _______ _______ _____ _____    ______ ____
ROOT
ATOM      1  C   UNL     1      47.993   7.848  13.858  0.00  0.00    +0.000 C 
ATOM      2  C   UNL     1      46.945   8.895  13.514  0.00  0.00    +0.000 C 
ATOM      3  C   UNL     1      48.383   9.228  13.323  0.00  0.00    +0.000 C 
ENDROOT
BRANCH   1   4
ATOM      4  C   UNL     1      48.453   7.647  15.297  0.00  0.00    +0.000 A 
ATOM      5  C   UNL     1      48.279   8.648  16.264  0.00  0.00    +0.000 A 
ATOM      6  C   UNL     1      48.441   8.366  17.617  0.00  0.00    +0.000 A 
ATOM      7  C   UNL     1      48.789   7.077  18.018  0.00  0.00    +0.000 A 
ATOM      8  F   UNL     1      48.799   6.832  19.338  0.00  0.00    +0.000 F 
ATOM      9  C   UNL     1      49.061   6.055  17.092  0.00  0.00    +0.000 A 
ATOM     10  C   UNL     1      48.926   6.399  15.735  0.00  0.00    +0.000 A 
BRANCH   9  11
ATOM     11  N   UNL     1      49.452   4.770  17.433  0.00  0.00    +0.000 N 
ATOM     12  C   UNL     1      50.705   4.507  18.137  0.00  0.00    +0.000 C 
ATOM     13  C   UNL     1      51.358   3.282  17.494  0.00  0.00    +0.000 C 
ATOM     14  C   UNL     1      50.411   2.083  17.449  0.00  0.00    +0.000 C 
ATOM     15  C   UNL     1      49.063   2.452  16.827  0.00  0.00    +0.000 C 
ATOM     16  C   UNL     1      48.468   3.684  17.501  0.00  0.00    +0.000 C 
ENDBRANCH   9  11
ENDBRANCH   1   4
BRANCH   1  17
ATOM     17  N   UNL     1      48.137   6.678  12.984  0.00  0.00    +0.000 N 
ATOM     18  H   UNL     1      48.994   6.579  12.451  0.00  0.00    +0.000 HD
BRANCH  17  22
ATOM     19  C   UNL     1      44.978   4.101  12.081  0.00  0.00    +0.000 A 
ATOM     20  C   UNL     1      45.215   5.160  11.213  0.00  0.00    +0.000 A 
ATOM     21  C   UNL     1      46.272   6.031  11.494  0.00  0.00    +0.000 A 
ATOM     22  C   UNL     1      47.089   5.821  12.605  0.00  0.00    +0.000 A 
ATOM     23  C   UNL     1      46.743   4.738  13.418  0.00  0.00    +0.000 A 
ATOM     24  N   UNL     1      45.724   3.871  13.183  0.00  0.00    +0.000 NA
BRANCH  19  26
ATOM     25  N   UNL     1      43.042   2.412  11.659  0.00  0.00    +0.000 NA
ATOM     26  C   UNL     1      43.887   3.183  11.845  0.00  0.00    +0.000 C 
ENDBRANCH  19  26
ENDBRANCH  17  22
ENDBRANCH   1  17
TORSDOF 5
ENDMDL
MODEL 6
REMARK VINA RESULT:    -6.013      3.354      6.109
REMARK INTER + INTRA:          -8.531
REMARK INTER:                  -8.268
REMARK INTRA:                  -0.263
REMARK UNBOUND:                -0.761
REMARK  Name = 
REMARK  5 active torsions:
REMARK  status: ('A' for Active; 'I' for Inactive)
REMARK    1  A    between atoms: C_2  and  C_3
REMARK    2  A    between atoms: C_6  and  N_7
REMARK    3  A    between atoms: N_7  and  C_8
REMARK    4  A    between atoms: C_8  and  C_9
REMARK    5  A    between atoms: C_14  and  N_15
REMARK                            x       y       z     vdW  Elec       q    Type
REMARK                         _______ _______ _______ _____ _____    ______ ____
ROOT
ATOM      1  C   UNL     1      47.681   7.917  13.272  0.00  0.00    +0.000 C 
ATOM      2  C   UNL     1      48.363   8.718  12.174  0.00  0.00    +0.000 C 
ATOM      3  C   UNL     1      48.546   7.241  12.206  0.00  0.00    +0.000 C 
ENDROOT
BRANCH   1   4
ATOM      4  C   UNL     1      48.302   7.808  14.659  0.00  0.00    +0.000 A 
ATOM      5  C   UNL     1      48.448   8.934  15.483  0.00  0.00    +0.000 A 
ATOM      6  C   UNL     1      48.751   8.793  16.833  0.00  0.00    +0.000 A 
ATOM      7  C   UNL     1      48.922   7.520  17.375  0.00  0.00    +0.000 A 
ATOM      8  F   UNL     1      49.080   7.440  18.706  0.00  0.00    +0.000 F 
ATOM      9  C   UNL     1      48.873   6.359  16.583  0.00  0.00    +0.000 A 
ATOM     10  C   UNL     1      48.606   6.555  15.217  0.00  0.00    +0.000 A 
BRANCH   9  11
ATOM     11  N   UNL     1      49.077   5.074  17.060  0.00  0.00    +0.000 N 
ATOM     12  C   UNL     1      50.253   4.724  17.856  0.00  0.00    +0.000 C 
ATOM     13  C   UNL     1      50.769   3.371  17.363  0.00  0.00    +0.000 C 
ATOM     14  C   UNL     1      49.676   2.302  17.372  0.00  0.00    +0.000 C 
ATOM     15  C   UNL     1      48.418   2.775  16.644  0.00  0.00    +0.000 C 
ATOM     16  C   UNL     1      47.958   4.132  17.170  0.00  0.00    +0.000 C 
ENDBRANCH   9  11
ENDBRANCH   1   4
BRANCH   1  17
ATOM     17  N   UNL     1      46.224   7.746  13.221  0.00  0.00    +0.000 N 
ATOM     18  H   UNL     1      45.645   8.402  13.735  0.00  0.00    +0.000 HD
BRANCH  17  22
ATOM     19  C   UNL     1      44.217   4.281  12.038  0.00  0.00    +0.000 A 
ATOM     20  C   UNL     1      44.114   5.399  11.218  0.00  0.00    +0.000 A 
ATOM     21  C   UNL     1      44.784   6.567  11.594  0.00  0.00    +0.000 A 
ATOM     22  C   UNL     1      45.563   6.599  12.749  0.00  0.00    +0.000 A 
ATOM     23  C   UNL     1      45.576   5.424  13.506  0.00  0.00    +0.000 A 
ATOM     24  N   UNL     1      44.938   4.270  13.180  0.00  0.00    +0.000 NA
BRANCH  19  26
ATOM     25  N   UNL     1      43.008   2.048  11.464  0.00  0.00    +0.000 NA
ATOM     26  C   UNL     1      43.530   3.054  11.705  0.00  0.00    +0.000 C 
ENDBRANCH  19  26
ENDBRANCH  17  22
ENDBRANCH   1  17
TORSDOF 5
ENDMDL
MODEL 7
REMARK VINA RESULT:    -5.986      3.205      7.711
REMARK INTER + INTRA:          -8.496
REMARK INTER:                  -7.743
REMARK INTRA:                  -0.753
REMARK UNBOUND:                -0.761
REMARK  Name = 
REMARK  5 active torsions:
REMARK  status: ('A' for Active; 'I' for Inactive)
REMARK    1  A    between atoms: C_2  and  C_3
REMARK    2  A    between atoms: C_6  and  N_7
REMARK    3  A    between atoms: N_7  and  C_8
REMARK    4  A    between atoms: C_8  and  C_9
REMARK    5  A    between atoms: C_14  and  N_15
REMARK                            x       y       z     vdW  Elec       q    Type
REMARK                         _______ _______ _______ _____ _____    ______ ____
ROOT
ATOM      1  C   UNL     1      48.762   8.273  12.622  0.00  0.00    +0.000 C 
ATOM      2  C   UNL     1      49.830   7.757  11.669  0.00  0.00    +0.000 C 
ATOM      3  C   UNL     1      49.276   9.123  11.458  0.00  0.00    +0.000 C 
ENDROOT
BRANCH   1   4
ATOM      4  C   UNL     1      47.299   7.886  12.438  0.00  0.00    +0.000 A 
ATOM      5  C   UNL     1      46.266   8.798  12.701  0.00  0.00    +0.000 A 
ATOM      6  C   UNL     1      44.967   8.543  12.274  0.00  0.00    +0.000 A 
ATOM      7  C   UNL     1      44.683   7.364  11.587  0.00  0.00    +0.000 A 
ATOM      8  F   UNL     1      43.444   7.235  11.084  0.00  0.00    +0.000 F 
ATOM      9  C   UNL     1      45.657   6.374  11.369  0.00  0.00    +0.000 A 
ATOM     10  C   UNL     1      46.945   6.658  11.856  0.00  0.00    +0.000 A 
BRANCH   9  11
ATOM     11  N   UNL     1      45.421   5.167  10.730  0.00  0.00    +0.000 N 
ATOM     12  C   UNL     1      45.759   4.961   9.323  0.00  0.00    +0.000 C 
ATOM     13  C   UNL     1      44.604   4.199   8.669  0.00  0.00    +0.000 C 
ATOM     14  C   UNL     1      44.269   2.910   9.420  0.00  0.00    +0.000 C 
ATOM     15  C   UNL     1      44.062   3.164  10.913  0.00  0.00    +0.000 C 
ATOM     16  C   UNL     1      45.238   3.936  11.506  0.00  0.00    +0.000 C 
ENDBRANCH   9  11
ENDBRANCH   1   4
BRANCH   1  17
ATOM     17  N   UNL     1      49.149   8.630  13.992  0.00  0.00    +0.000 N 
ATOM     18  H   UNL     1      49.250   9.612  14.221  0.00  0.00    +0.000 HD
BRANCH  17  22
ATOM     19  C   UNL     1      50.524   5.800  16.737  0.00  0.00    +0.000 A 
ATOM     20  C   UNL     1      51.429   6.753  16.284  0.00  0.00    +0.000 A 
ATOM     21  C   UNL     1      50.986   7.713  15.369  0.00  0.00    +0.000 A 
ATOM     22  C   UNL     1      49.658   7.732  14.945  0.00  0.00    +0.000 A 
ATOM     23  C   UNL     1      48.844   6.714  15.451  0.00  0.00    +0.000 A 
ATOM     24  N   UNL     1      49.234   5.761  16.337  0.00  0.00    +0.000 NA
BRANCH  19  26
ATOM     25  N   UNL     1      51.255   3.923  18.386  0.00  0.00    +0.000 NA
ATOM     26  C   UNL     1      50.935   4.776  17.670  0.00  0.00    +0.000 C 
ENDBRANCH  19  26
ENDBRANCH  17  22
ENDBRANCH   1  17
TORSDOF 5
ENDMDL
MODEL 8
REMARK VINA RESULT:    -5.700      4.649      9.184
REMARK INTER + INTRA:          -8.127
REMARK INTER:                  -7.567
REMARK INTRA:                  -0.560
REMARK UNBOUND:                -0.761
REMARK  Name = 
REMARK  5 active torsions:
REMARK  status: ('A' for Active; 'I' for Inactive)
REMARK    1  A    between atoms: C_2  and  C_3
REMARK    2  A    between atoms: C_6  and  N_7
REMARK    3  A    between atoms: N_7  and  C_8
REMARK    4  A    between atoms: C_8  and  C_9
REMARK    5  A    between atoms: C_14  and  N_15
REMARK                            x       y       z     vdW  Elec       q    Type
REMARK                         _______ _______ _______ _____ _____    ______ ____
ROOT
ATOM      1  C   UNL     1      48.173   4.245  16.906  0.00  0.00    +0.000 C 
ATOM      2  C   UNL     1      47.321   3.088  17.405  0.00  0.00    +0.000 C 
ATOM      3  C   UNL     1      48.497   2.794  16.541  0.00  0.00    +0.000 C 
ENDROOT
BRANCH   1   4
ATOM      4  C   UNL     1      47.752   5.057  15.687  0.00  0.00    +0.000 A 
ATOM      5  C   UNL     1      48.508   6.152  15.245  0.00  0.00    +0.000 A 
ATOM      6  C   UNL     1      48.283   6.711  13.991  0.00  0.00    +0.000 A 
ATOM      7  C   UNL     1      47.288   6.187  13.167  0.00  0.00    +0.000 A 
ATOM      8  F   UNL     1      47.207   6.680  11.921  0.00  0.00    +0.000 F 
ATOM      9  C   UNL     1      46.441   5.147  13.590  0.00  0.00    +0.000 A 
ATOM     10  C   UNL     1      46.680   4.643  14.880  0.00  0.00    +0.000 A 
BRANCH   9  11
ATOM     11  N   UNL     1      45.410   4.617  12.830  0.00  0.00    +0.000 N 
ATOM     12  C   UNL     1      45.412   3.221  12.396  0.00  0.00    +0.000 C 
ATOM     13  C   UNL     1      44.943   3.182  10.940  0.00  0.00    +0.000 C 
ATOM     14  C   UNL     1      43.600   3.886  10.751  0.00  0.00    +0.000 C 
ATOM     15  C   UNL     1      43.612   5.294  11.348  0.00  0.00    +0.000 C 
ATOM     16  C   UNL     1      44.098   5.270  12.794  0.00  0.00    +0.000 C 
ENDBRANCH   9  11
ENDBRANCH   1   4
BRANCH   1  17
ATOM     17  N   UNL     1      49.037   4.949  17.861  0.00  0.00    +0.000 N 
ATOM     18  H   UNL     1      49.998   4.642  17.957  0.00  0.00    +0.000 HD
BRANCH  17  22
ATOM     19  C   UNL     1      47.636   7.727  20.647  0.00  0.00    +0.000 A 
ATOM     20  C   UNL     1      47.482   6.378  20.946  0.00  0.00    +0.000 A 
ATOM     21  C   UNL     1      47.950   5.433  20.029  0.00  0.00    +0.000 A 
ATOM     22  C   UNL     1      48.585   5.835  18.855  0.00  0.00    +0.000 A 
ATOM     23  C   UNL     1      48.665   7.216  18.650  0.00  0.00    +0.000 A 
ATOM     24  N   UNL     1      48.221   8.167  19.512  0.00  0.00    +0.000 NA
BRANCH  19  26
ATOM     25  N   UNL     1      46.730   9.536  22.285  0.00  0.00    +0.000 NA
ATOM     26  C   UNL     1      47.154   8.745  21.553  0.00  0.00    +0.000 C 
ENDBRANCH  19  26
ENDBRANCH  17  22
ENDBRANCH   1  17
TORSDOF 5
ENDMDL
MODEL 9
REMARK VINA RESULT:    -5.647      3.220      8.042
REMARK INTER + INTRA:          -8.059
REMARK INTER:                  -7.114
REMARK INTRA:                  -0.945
REMARK UNBOUND:                -0.761
REMARK  Name = 
REMARK  5 active torsions:
REMARK  status: ('A' for Active; 'I' for Inactive)
REMARK    1  A    between atoms: C_2  and  C_3
REMARK    2  A    between atoms: C_6  and  N_7
REMARK    3  A    between atoms: N_7  and  C_8
REMARK    4  A    between atoms: C_8  and  C_9
REMARK    5  A    between atoms: C_14  and  N_15
REMARK                            x       y       z     vdW  Elec       q    Type
REMARK                         _______ _______ _______ _____ _____    ______ ____
ROOT
ATOM      1  C   UNL     1      49.218   8.516  12.644  0.00  0.00    +0.000 C 
ATOM      2  C   UNL     1      50.076   7.637  11.748  0.00  0.00    +0.000 C 
ATOM      3  C   UNL     1      49.906   9.073  11.395  0.00  0.00    +0.000 C 
ENDROOT
BRANCH   1   4
ATOM      4  C   UNL     1      47.700   8.526  12.508  0.00  0.00    +0.000 A 
ATOM      5  C   UNL     1      46.994   9.722  12.314  0.00  0.00    +0.000 A 
ATOM      6  C   UNL     1      45.661   9.704  11.916  0.00  0.00    +0.000 A 
ATOM      7  C   UNL     1      45.014   8.485  11.718  0.00  0.00    +0.000 A 
ATOM      8  F   UNL     1      43.773   8.530  11.206  0.00  0.00    +0.000 F 
ATOM      9  C   UNL     1      45.643   7.255  11.979  0.00  0.00    +0.000 A 
ATOM     10  C   UNL     1      46.976   7.326  12.419  0.00  0.00    +0.000 A 
BRANCH   9  11
ATOM     11  N   UNL     1      45.036   6.017  11.840  0.00  0.00    +0.000 N 
ATOM     12  C   UNL     1      45.114   5.256  10.594  0.00  0.00    +0.000 C 
ATOM     13  C   UNL     1      43.730   4.666  10.316  0.00  0.00    +0.000 C 
ATOM     14  C   UNL     1      43.202   3.859  11.502  0.00  0.00    +0.000 C 
ATOM     15  C   UNL     1      43.272   4.657  12.804  0.00  0.00    +0.000 C 
ATOM     16  C   UNL     1      44.670   5.229  13.021  0.00  0.00    +0.000 C 
ENDBRANCH   9  11
ENDBRANCH   1   4
BRANCH   1  17
ATOM     17  N   UNL     1      49.732   8.890  13.967  0.00  0.00    +0.000 N 
ATOM     18  H   UNL     1      50.539   9.502  14.014  0.00  0.00    +0.000 HD
BRANCH  17  22
ATOM     19  C   UNL     1      48.507   7.181  17.575  0.00  0.00    +0.000 A 
ATOM     20  C   UNL     1      49.055   6.339  16.614  0.00  0.00    +0.000 A 
ATOM     21  C   UNL     1      49.477   6.893  15.402  0.00  0.00    +0.000 A 
ATOM     22  C   UNL     1      49.378   8.265  15.175  0.00  0.00    +0.000 A 
ATOM     23  C   UNL     1      48.792   9.010  16.203  0.00  0.00    +0.000 A 
ATOM     24  N   UNL     1      48.366   8.512  17.393  0.00  0.00    +0.000 NA
BRANCH  19  26
ATOM     25  N   UNL     1      47.622   6.244  19.837  0.00  0.00    +0.000 NA
ATOM     26  C   UNL     1      48.039   6.656  18.838  0.00  0.00    +0.000 C 
ENDBRANCH  19  26
ENDBRANCH  17  22
ENDBRANCH   1  17
TORSDOF 5
ENDMDL
