MODEL 1
REMARK VINA RESULT:    -7.437      0.000      0.000
REMARK INTER + INTRA:         -11.491
REMARK INTER:                 -10.480
REMARK INTRA:                  -1.011
REMARK UNBOUND:                -1.011
REMARK  Name = 
REMARK  9 active torsions:
REMARK  status: ('A' for Active; 'I' for Inactive)
REMARK    1  A    between atoms: C_1  and  C_2
REMARK    2  A    between atoms: C_7  and  C_8
REMARK    3  A    between atoms: N_10  and  C_11
REMARK    4  A    between atoms: C_11  and  C_12
REMARK    5  A    between atoms: C_15  and  C_16
REMARK    6  A    between atoms: C_16  and  N_17
REMARK    7  A    between atoms: N_17  and  C_18
REMARK    8  A    between atoms: N_17  and  C_19
REMARK    9  A    between atoms: C_19  and  C_20
REMARK                            x       y       z     vdW  Elec       q    Type
REMARK                         _______ _______ _______ _____ _____    ______ ____
ROOT
ATOM      1  C   UNL     1      48.846   6.960  14.350  0.00  0.00    +0.000 C 
ENDROOT
BRANCH   1   2
ATOM      2  C   UNL     1      47.739   6.415  13.486  0.00  0.00    +0.000 A 
ATOM      3  C   UNL     1      46.933   5.363  13.940  0.00  0.00    +0.000 A 
ATOM      4  C   UNL     1      45.882   4.885  13.154  0.00  0.00    +0.000 A 
ATOM      5  C   UNL     1      45.619   5.449  11.897  0.00  0.00    +0.000 A 
ATOM      6  C   UNL     1      46.460   6.464  11.421  0.00  0.00    +0.000 A 
ATOM      7  C   UNL     1      47.512   6.940  12.207  0.00  0.00    +0.000 A 
BRANCH   5   8
ATOM      8  C   UNL     1      44.424   5.002  11.080  0.00  0.00    +0.000 C 
BRANCH   8   9
ATOM      9  N   UNL     1      44.463   3.564  10.724  0.00  0.00    +0.000 NA
ATOM     10  C   UNL     1      43.461   2.805  11.486  0.00  0.00    +0.000 C 
BRANCH   9  11
ATOM     11  C   UNL     1      44.191   3.383   9.279  0.00  0.00    +0.000 C 
BRANCH  11  12
ATOM     12  C   UNL     1      45.393   2.986   8.450  0.00  0.00    +0.000 A 
ATOM     13  C   UNL     1      45.860   1.676   8.453  0.00  0.00    +0.000 A 
ATOM     14  N   UNL     1      46.921   1.271   7.715  0.00  0.00    +0.000 NA
ATOM     15  C   UNL     1      47.506   2.236   6.971  0.00  0.00    +0.000 A 
ATOM     16  C   UNL     1      47.055   3.545   6.967  0.00  0.00    +0.000 A 
ATOM     17  N   UNL     1      45.995   3.950   7.702  0.00  0.00    +0.000 NA
ENDBRANCH  11  12
ENDBRANCH   9  11
ENDBRANCH   8   9
ENDBRANCH   5   8
ENDBRANCH   1   2
BRANCH   1  20
ATOM     18  C   UNL     1      49.385   6.285  16.643  0.00  0.00    +0.000 C 
ATOM     19  O   UNL     1      50.469   5.831  16.281  0.00  0.00    +0.000 OA
ATOM     20  N   UNL     1      48.522   6.862  15.750  0.00  0.00    +0.000 N 
ATOM     21  H   UNL     1      47.637   7.257  16.052  0.00  0.00    +0.000 HD
BRANCH  18  28
ATOM     22  C   UNL     1      46.560   9.490  22.006  0.00  0.00    +0.000 C 
ATOM     23  C   UNL     1      47.204   8.617  20.971  0.00  0.00    +0.000 A 
ATOM     24  N   UNL     1      47.531   7.391  21.231  0.00  0.00    +0.000 NA
ATOM     25  C   UNL     1      48.103   6.722  20.193  0.00  0.00    +0.000 A 
ATOM     26  S   UNL     1      48.587   5.101  20.369  0.00  0.00    +0.000 S 
ATOM     27  C   UNL     1      49.134   5.034  18.757  0.00  0.00    +0.000 A 
ATOM     28  C   UNL     1      48.964   6.220  18.053  0.00  0.00    +0.000 A 
ATOM     29  C   UNL     1      48.363   7.208  18.924  0.00  0.00    +0.000 A 
ATOM     30  C   UNL     1      47.992   8.590  18.686  0.00  0.00    +0.000 A 
ATOM     31  O   UNL     1      48.175   9.186  17.631  0.00  0.00    +0.000 OA
ATOM     32  N   UNL     1      47.408   9.223  19.756  0.00  0.00    +0.000 N 
ATOM     33  H   UNL     1      47.147  10.186  19.603  0.00  0.00    +0.000 HD
ENDBRANCH  18  28
ENDBRANCH   1  20
TORSDOF 7
ENDMDL
MODEL 2
REMARK VINA RESULT:    -7.217      1.611      2.206
REMARK INTER + INTRA:         -11.182
REMARK INTER:                 -10.281
REMARK INTRA:                  -0.901
REMARK UNBOUND:                -1.011
REMARK  Name = 
REMARK  9 active torsions:
REMARK  status: ('A' for Active; 'I' for Inactive)
REMARK    1  A    between atoms: C_1  and  C_2
REMARK    2  A    between atoms: C_7  and  C_8
REMARK    3  A    between atoms: N_10  and  C_11
REMARK    4  A    between atoms: C_11  and  C_12
REMARK    5  A    between atoms: C_15  and  C_16
REMARK    6  A    between atoms: C_16  and  N_17
REMARK    7  A    between atoms: N_17  and  C_18
REMARK    8  A    between atoms: N_17  and  C_19
REMARK    9  A    between atoms: C_19  and  C_20
REMARK                            x       y       z     vdW  Elec       q    Type
REMARK                         _______ _______ _______ _____ _____    ______ ____
ROOT
ATOM      1  C   UNL     1      48.104   4.959  15.931  0.00  0.00    +0.000 C 
ENDROOT
BRANCH   1   2
ATOM      2  C   UNL     1      47.395   5.130  14.614  0.00  0.00    +0.000 A 
ATOM      3  C   UNL     1      47.537   6.311  13.875  0.00  0.00    +0.000 A 
ATOM      4  C   UNL     1      46.910   6.451  12.634  0.00  0.00    +0.000 A 
ATOM      5  C   UNL     1      46.127   5.413  12.111  0.00  0.00    +0.000 A 
ATOM      6  C   UNL     1      45.942   4.253  12.875  0.00  0.00    +0.000 A 
ATOM      7  C   UNL     1      46.567   4.114  14.116  0.00  0.00    +0.000 A 
BRANCH   5   8
ATOM      8  C   UNL     1      45.523   5.519  10.725  0.00  0.00    +0.000 C 
BRANCH   8   9
ATOM      9  N   UNL     1      44.512   4.473  10.446  0.00  0.00    +0.000 NA
ATOM     10  C   UNL     1      43.197   4.855  10.983  0.00  0.00    +0.000 C 
BRANCH   9  11
ATOM     11  C   UNL     1      44.379   4.259   8.987  0.00  0.00    +0.000 C 
BRANCH  11  12
ATOM     12  C   UNL     1      45.406   3.326   8.384  0.00  0.00    +0.000 A 
ATOM     13  C   UNL     1      45.444   1.982   8.740  0.00  0.00    +0.000 A 
ATOM     14  N   UNL     1      46.335   1.106   8.215  0.00  0.00    +0.000 NA
ATOM     15  C   UNL     1      47.197   1.632   7.317  0.00  0.00    +0.000 A 
ATOM     16  C   UNL     1      47.174   2.971   6.962  0.00  0.00    +0.000 A 
ATOM     17  N   UNL     1      46.285   3.845   7.484  0.00  0.00    +0.000 NA
ENDBRANCH  11  12
ENDBRANCH   9  11
ENDBRANCH   8   9
ENDBRANCH   5   8
ENDBRANCH   1   2
BRANCH   1  20
ATOM     18  C   UNL     1      48.500   6.221  17.995  0.00  0.00    +0.000 C 
ATOM     19  O   UNL     1      49.458   5.503  18.279  0.00  0.00    +0.000 OA
ATOM     20  N   UNL     1      47.777   6.020  16.850  0.00  0.00    +0.000 N 
ATOM     21  H   UNL     1      47.001   6.626  16.604  0.00  0.00    +0.000 HD
BRANCH  18  28
ATOM     22  C   UNL     1      46.920  12.863  18.631  0.00  0.00    +0.000 C 
ATOM     23  C   UNL     1      47.233  11.398  18.712  0.00  0.00    +0.000 A 
ATOM     24  N   UNL     1      47.134  10.748  19.827  0.00  0.00    +0.000 NA
ATOM     25  C   UNL     1      47.447   9.426  19.744  0.00  0.00    +0.000 A 
ATOM     26  S   UNL     1      47.364   8.428  21.119  0.00  0.00    +0.000 S 
ATOM     27  C   UNL     1      47.853   7.063  20.223  0.00  0.00    +0.000 A 
ATOM     28  C   UNL     1      48.086   7.324  18.878  0.00  0.00    +0.000 A 
ATOM     29  C   UNL     1      47.851   8.729  18.618  0.00  0.00    +0.000 A 
ATOM     30  C   UNL     1      47.961   9.504  17.398  0.00  0.00    +0.000 A 
ATOM     31  O   UNL     1      48.330   9.053  16.320  0.00  0.00    +0.000 OA
ATOM     32  N   UNL     1      47.624  10.829  17.524  0.00  0.00    +0.000 N 
ATOM     33  H   UNL     1      47.699  11.380  16.682  0.00  0.00    +0.000 HD
ENDBRANCH  18  28
ENDBRANCH   1  20
TORSDOF 7
ENDMDL
MODEL 3
REMARK VINA RESULT:    -7.203      1.814      2.750
REMARK INTER + INTRA:         -11.161
REMARK INTER:                 -10.457
REMARK INTRA:                  -0.704
REMARK UNBOUND:                -1.011
REMARK  Name = 
REMARK  9 active torsions:
REMARK  status: ('A' for Active; 'I' for Inactive)
REMARK    1  A    between atoms: C_1  and  C_2
REMARK    2  A    between atoms: C_7  and  C_8
REMARK    3  A    between atoms: N_10  and  C_11
REMARK    4  A    between atoms: C_11  and  C_12
REMARK    5  A    between atoms: C_15  and  C_16
REMARK    6  A    between atoms: C_16  and  N_17
REMARK    7  A    between atoms: N_17  and  C_18
REMARK    8  A    between atoms: N_17  and  C_19
REMARK    9  A    between atoms: C_19  and  C_20
REMARK                            x       y       z     vdW  Elec       q    Type
REMARK                         _______ _______ _______ _____ _____    ______ ____
ROOT
ATOM      1  C   UNL     1      47.495   8.751  12.995  0.00  0.00    +0.000 C 
ENDROOT
BRANCH   1   2
ATOM      2  C   UNL     1      46.551   7.717  12.441  0.00  0.00    +0.000 A 
ATOM      3  C   UNL     1      45.283   8.086  11.975  0.00  0.00    +0.000 A 
ATOM      4  C   UNL     1      44.424   7.130  11.425  0.00  0.00    +0.000 A 
ATOM      5  C   UNL     1      44.818   5.788  11.334  0.00  0.00    +0.000 A 
ATOM      6  C   UNL     1      46.065   5.411  11.851  0.00  0.00    +0.000 A 
ATOM      7  C   UNL     1      46.922   6.366  12.402  0.00  0.00    +0.000 A 
BRANCH   5   8
ATOM      8  C   UNL     1      43.933   4.764  10.653  0.00  0.00    +0.000 C 
BRANCH   8   9
ATOM      9  N   UNL     1      44.354   3.366  10.905  0.00  0.00    +0.000 NA
ATOM     10  C   UNL     1      43.578   2.771  12.003  0.00  0.00    +0.000 C 
BRANCH   9  11
ATOM     11  C   UNL     1      44.159   2.541   9.690  0.00  0.00    +0.000 C 
BRANCH  11  12
ATOM     12  C   UNL     1      45.294   2.599   8.692  0.00  0.00    +0.000 A 
ATOM     13  C   UNL     1      45.616   3.789   8.048  0.00  0.00    +0.000 A 
ATOM     14  N   UNL     1      46.633   3.892   7.158  0.00  0.00    +0.000 NA
ATOM     15  C   UNL     1      47.317   2.749   6.932  0.00  0.00    +0.000 A 
ATOM     16  C   UNL     1      46.999   1.557   7.560  0.00  0.00    +0.000 A 
ATOM     17  N   UNL     1      45.986   1.453   8.449  0.00  0.00    +0.000 NA
ENDBRANCH  11  12
ENDBRANCH   9  11
ENDBRANCH   8   9
ENDBRANCH   5   8
ENDBRANCH   1   2
BRANCH   1  20
ATOM     18  C   UNL     1      48.617   8.245  15.114  0.00  0.00    +0.000 C 
ATOM     19  O   UNL     1      49.609   7.827  14.518  0.00  0.00    +0.000 OA
ATOM     20  N   UNL     1      47.528   8.722  14.435  0.00  0.00    +0.000 N 
ATOM     21  H   UNL     1      46.719   9.088  14.927  0.00  0.00    +0.000 HD
BRANCH  18  28
ATOM     22  C   UNL     1      48.908   4.625  20.930  0.00  0.00    +0.000 C 
ATOM     23  C   UNL     1      48.805   5.593  19.788  0.00  0.00    +0.000 A 
ATOM     24  N   UNL     1      48.634   6.860  19.992  0.00  0.00    +0.000 NA
ATOM     25  C   UNL     1      48.563   7.613  18.861  0.00  0.00    +0.000 A 
ATOM     26  S   UNL     1      48.343   9.297  18.953  0.00  0.00    +0.000 S 
ATOM     27  C   UNL     1      48.377   9.448  17.256  0.00  0.00    +0.000 A 
ATOM     28  C   UNL     1      48.556   8.244  16.586  0.00  0.00    +0.000 A 
ATOM     29  C   UNL     1      48.653   7.171  17.552  0.00  0.00    +0.000 A 
ATOM     30  C   UNL     1      48.830   5.743  17.376  0.00  0.00    +0.000 A 
ATOM     31  O   UNL     1      48.900   5.180  16.289  0.00  0.00    +0.000 OA
ATOM     32  N   UNL     1      48.908   5.023  18.543  0.00  0.00    +0.000 N 
ATOM     33  H   UNL     1      49.029   4.027  18.434  0.00  0.00    +0.000 HD
ENDBRANCH  18  28
ENDBRANCH   1  20
TORSDOF 7
ENDMDL
MODEL 4
REMARK VINA RESULT:    -6.813      4.044      6.331
REMARK INTER + INTRA:         -10.612
REMARK INTER:                  -9.616
REMARK INTRA:                  -0.995
REMARK UNBOUND:                -1.011
REMARK  Name = 
REMARK  9 active torsions:
REMARK  status: ('A' for Active; 'I' for Inactive)
REMARK    1  A    between atoms: C_1  and  C_2
REMARK    2  A    between atoms: C_7  and  C_8
REMARK    3  A    between atoms: N_10  and  C_11
REMARK    4  A    between atoms: C_11  and  C_12
REMARK    5  A    between atoms: C_15  and  C_16
REMARK    6  A    between atoms: C_16  and  N_17
REMARK    7  A    between atoms: N_17  and  C_18
REMARK    8  A    between atoms: N_17  and  C_19
REMARK    9  A    between atoms: C_19  and  C_20
REMARK                            x       y       z     vdW  Elec       q    Type
REMARK                         _______ _______ _______ _____ _____    ______ ____
ROOT
ATOM      1  C   UNL     1      48.520   4.385  17.551  0.00  0.00    +0.000 C 
ENDROOT
BRANCH   1   2
ATOM      2  C   UNL     1      48.156   5.001  16.226  0.00  0.00    +0.000 A 
ATOM      3  C   UNL     1      47.264   4.355  15.361  0.00  0.00    +0.000 A 
ATOM      4  C   UNL     1      46.896   4.947  14.150  0.00  0.00    +0.000 A 
ATOM      5  C   UNL     1      47.416   6.196  13.781  0.00  0.00    +0.000 A 
ATOM      6  C   UNL     1      48.349   6.816  14.623  0.00  0.00    +0.000 A 
ATOM      7  C   UNL     1      48.718   6.223  15.832  0.00  0.00    +0.000 A 
BRANCH   5   8
ATOM      8  C   UNL     1      46.950   6.888  12.516  0.00  0.00    +0.000 C 
BRANCH   8   9
ATOM      9  N   UNL     1      45.554   7.380  12.598  0.00  0.00    +0.000 NA
ATOM     10  C   UNL     1      45.515   8.849  12.635  0.00  0.00    +0.000 C 
BRANCH   9  11
ATOM     11  C   UNL     1      44.774   6.917  11.428  0.00  0.00    +0.000 C 
BRANCH  11  12
ATOM     12  C   UNL     1      44.245   5.504  11.533  0.00  0.00    +0.000 A 
ATOM     13  C   UNL     1      44.200   4.675  10.417  0.00  0.00    +0.000 A 
ATOM     14  N   UNL     1      43.749   3.398  10.467  0.00  0.00    +0.000 NA
ATOM     15  C   UNL     1      43.337   2.981  11.684  0.00  0.00    +0.000 A 
ATOM     16  C   UNL     1      43.368   3.801  12.800  0.00  0.00    +0.000 A 
ATOM     17  N   UNL     1      43.819   5.074  12.752  0.00  0.00    +0.000 NA
ENDBRANCH  11  12
ENDBRANCH   9  11
ENDBRANCH   8   9
ENDBRANCH   5   8
ENDBRANCH   1   2
BRANCH   1  20
ATOM     18  C   UNL     1      50.773   4.255  18.508  0.00  0.00    +0.000 C 
ATOM     19  O   UNL     1      50.461   5.032  19.410  0.00  0.00    +0.000 OA
ATOM     20  N   UNL     1      49.870   3.883  17.548  0.00  0.00    +0.000 N 
ATOM     21  H   UNL     1      50.121   3.225  16.817  0.00  0.00    +0.000 HD
BRANCH  18  28
ATOM     22  C   UNL     1      54.786  -0.977  16.628  0.00  0.00    +0.000 C 
ATOM     23  C   UNL     1      54.095   0.263  17.113  0.00  0.00    +0.000 A 
ATOM     24  N   UNL     1      54.761   1.255  17.612  0.00  0.00    +0.000 NA
ATOM     25  C   UNL     1      53.999   2.312  18.005  0.00  0.00    +0.000 A 
ATOM     26  S   UNL     1      54.720   3.697  18.678  0.00  0.00    +0.000 S 
ATOM     27  C   UNL     1      53.208   4.461  18.859  0.00  0.00    +0.000 A 
ATOM     28  C   UNL     1      52.133   3.698  18.418  0.00  0.00    +0.000 A 
ATOM     29  C   UNL     1      52.622   2.427  17.927  0.00  0.00    +0.000 A 
ATOM     30  C   UNL     1      51.920   1.285  17.375  0.00  0.00    +0.000 A 
ATOM     31  O   UNL     1      50.702   1.207  17.259  0.00  0.00    +0.000 OA
ATOM     32  N   UNL     1      52.728   0.247  16.980  0.00  0.00    +0.000 N 
ATOM     33  H   UNL     1      52.251  -0.556  16.596  0.00  0.00    +0.000 HD
ENDBRANCH  18  28
ENDBRANCH   1  20
TORSDOF 7
ENDMDL
MODEL 5
REMARK VINA RESULT:    -6.614      4.587      8.724
REMARK INTER + INTRA:         -10.332
REMARK INTER:                  -8.710
REMARK INTRA:                  -1.622
REMARK UNBOUND:                -1.011
REMARK  Name = 
REMARK  9 active torsions:
REMARK  status: ('A' for Active; 'I' for Inactive)
REMARK    1  A    between atoms: C_1  and  C_2
REMARK    2  A    between atoms: C_7  and  C_8
REMARK    3  A    between atoms: N_10  and  C_11
REMARK    4  A    between atoms: C_11  and  C_12
REMARK    5  A    between atoms: C_15  and  C_16
REMARK    6  A    between atoms: C_16  and  N_17
REMARK    7  A    between atoms: N_17  and  C_18
REMARK    8  A    between atoms: N_17  and  C_19
REMARK    9  A    between atoms: C_19  and  C_20
REMARK                            x       y       z     vdW  Elec       q    Type
REMARK                         _______ _______ _______ _____ _____    ______ ____
ROOT
ATOM      1  C   UNL     1      47.331   3.376  17.039  0.00  0.00    +0.000 C 
ENDROOT
BRANCH   1   2
ATOM      2  C   UNL     1      48.808   3.361  17.332  0.00  0.00    +0.000 A 
ATOM      3  C   UNL     1      49.576   2.221  17.066  0.00  0.00    +0.000 A 
ATOM      4  C   UNL     1      50.953   2.223  17.302  0.00  0.00    +0.000 A 
ATOM      5  C   UNL     1      51.587   3.366  17.811  0.00  0.00    +0.000 A 
ATOM      6  C   UNL     1      50.808   4.487  18.128  0.00  0.00    +0.000 A 
ATOM      7  C   UNL     1      49.431   4.484  17.894  0.00  0.00    +0.000 A 
BRANCH   5   8
ATOM      8  C   UNL     1      53.092   3.409  17.980  0.00  0.00    +0.000 C 
BRANCH   8   9
ATOM      9  N   UNL     1      53.631   4.786  18.078  0.00  0.00    +0.000 NA
ATOM     10  C   UNL     1      54.368   4.974  19.336  0.00  0.00    +0.000 C 
BRANCH   9  11
ATOM     11  C   UNL     1      54.548   5.063  16.949  0.00  0.00    +0.000 C 
BRANCH  11  12
ATOM     12  C   UNL     1      54.087   6.154  16.007  0.00  0.00    +0.000 A 
ATOM     13  C   UNL     1      54.859   6.521  14.910  0.00  0.00    +0.000 A 
ATOM     14  N   UNL     1      54.480   7.481  14.032  0.00  0.00    +0.000 NA
ATOM     15  C   UNL     1      53.292   8.067  14.298  0.00  0.00    +0.000 A 
ATOM     16  C   UNL     1      52.520   7.716  15.393  0.00  0.00    +0.000 A 
ATOM     17  N   UNL     1      52.896   6.757  16.269  0.00  0.00    +0.000 NA
ENDBRANCH  11  12
ENDBRANCH   9  11
ENDBRANCH   8   9
ENDBRANCH   5   8
ENDBRANCH   1   2
BRANCH   1  20
ATOM     18  C   UNL     1      47.011   4.133  14.730  0.00  0.00    +0.000 C 
ATOM     19  O   UNL     1      47.316   3.022  14.297  0.00  0.00    +0.000 OA
ATOM     20  N   UNL     1      46.992   4.390  16.075  0.00  0.00    +0.000 N 
ATOM     21  H   UNL     1      46.718   5.300  16.432  0.00  0.00    +0.000 HD
BRANCH  18  28
ATOM     22  C   UNL     1      48.754  10.171  11.988  0.00  0.00    +0.000 C 
ATOM     23  C   UNL     1      48.185   8.870  12.470  0.00  0.00    +0.000 A 
ATOM     24  N   UNL     1      47.052   8.424  12.028  0.00  0.00    +0.000 NA
ATOM     25  C   UNL     1      46.667   7.229  12.555  0.00  0.00    +0.000 A 
ATOM     26  S   UNL     1      45.205   6.503  12.076  0.00  0.00    +0.000 S 
ATOM     27  C   UNL     1      45.472   5.168  13.101  0.00  0.00    +0.000 A 
ATOM     28  C   UNL     1      46.659   5.236  13.819  0.00  0.00    +0.000 A 
ATOM     29  C   UNL     1      47.345   6.467  13.490  0.00  0.00    +0.000 A 
ATOM     30  C   UNL     1      48.600   7.016  13.965  0.00  0.00    +0.000 A 
ATOM     31  O   UNL     1      49.314   6.488  14.810  0.00  0.00    +0.000 OA
ATOM     32  N   UNL     1      48.957   8.216  13.399  0.00  0.00    +0.000 N 
ATOM     33  H   UNL     1      49.828   8.609  13.723  0.00  0.00    +0.000 HD
ENDBRANCH  18  28
ENDBRANCH   1  20
TORSDOF 7
ENDMDL
MODEL 6
REMARK VINA RESULT:    -6.481      3.770      6.092
REMARK INTER + INTRA:         -10.144
REMARK INTER:                  -9.143
REMARK INTRA:                  -1.001
REMARK UNBOUND:                -1.011
REMARK  Name = 
REMARK  9 active torsions:
REMARK  status: ('A' for Active; 'I' for Inactive)
REMARK    1  A    between atoms: C_1  and  C_2
REMARK    2  A    between atoms: C_7  and  C_8
REMARK    3  A    between atoms: N_10  and  C_11
REMARK    4  A    between atoms: C_11  and  C_12
REMARK    5  A    between atoms: C_15  and  C_16
REMARK    6  A    between atoms: C_16  and  N_17
REMARK    7  A    between atoms: N_17  and  C_18
REMARK    8  A    between atoms: N_17  and  C_19
REMARK    9  A    between atoms: C_19  and  C_20
REMARK                            x       y       z     vdW  Elec       q    Type
REMARK                         _______ _______ _______ _____ _____    ______ ____
ROOT
ATOM      1  C   UNL     1      48.719   6.657  15.016  0.00  0.00    +0.000 C 
ENDROOT
BRANCH   1   2
ATOM      2  C   UNL     1      47.609   6.421  14.026  0.00  0.00    +0.000 A 
ATOM      3  C   UNL     1      47.207   7.437  13.150  0.00  0.00    +0.000 A 
ATOM      4  C   UNL     1      46.205   7.204  12.205  0.00  0.00    +0.000 A 
ATOM      5  C   UNL     1      45.584   5.949  12.121  0.00  0.00    +0.000 A 
ATOM      6  C   UNL     1      45.949   4.951  13.034  0.00  0.00    +0.000 A 
ATOM      7  C   UNL     1      46.950   5.185  13.980  0.00  0.00    +0.000 A 
BRANCH   5   8
ATOM      8  C   UNL     1      44.564   5.659  11.039  0.00  0.00    +0.000 C 
BRANCH   8   9
ATOM      9  N   UNL     1      44.539   4.236  10.626  0.00  0.00    +0.000 NA
ATOM     10  C   UNL     1      43.428   3.520  11.271  0.00  0.00    +0.000 C 
BRANCH   9  11
ATOM     11  C   UNL     1      44.378   4.127   9.158  0.00  0.00    +0.000 C 
BRANCH  11  12
ATOM     12  C   UNL     1      45.421   3.279   8.464  0.00  0.00    +0.000 A 
ATOM     13  C   UNL     1      45.540   1.922   8.747  0.00  0.00    +0.000 A 
ATOM     14  N   UNL     1      46.448   1.121   8.140  0.00  0.00    +0.000 NA
ATOM     15  C   UNL     1      47.242   1.734   7.235  0.00  0.00    +0.000 A 
ATOM     16  C   UNL     1      47.139   3.085   6.952  0.00  0.00    +0.000 A 
ATOM     17  N   UNL     1      46.232   3.886   7.556  0.00  0.00    +0.000 NA
ENDBRANCH  11  12
ENDBRANCH   9  11
ENDBRANCH   8   9
ENDBRANCH   5   8
ENDBRANCH   1   2
BRANCH   1  20
ATOM     18  C   UNL     1      50.473   8.310  14.571  0.00  0.00    +0.000 C 
ATOM     19  O   UNL     1      49.938   9.119  15.328  0.00  0.00    +0.000 OA
ATOM     20  N   UNL     1      49.934   7.069  14.362  0.00  0.00    +0.000 N 
ATOM     21  H   UNL     1      50.388   6.394  13.754  0.00  0.00    +0.000 HD
BRANCH  18  28
ATOM     22  C   UNL     1      53.817   8.569   8.591  0.00  0.00    +0.000 C 
ATOM     23  C   UNL     1      53.274   8.588   9.989  0.00  0.00    +0.000 A 
ATOM     24  N   UNL     1      53.981   9.028  10.980  0.00  0.00    +0.000 NA
ATOM     25  C   UNL     1      53.354   8.987  12.188  0.00  0.00    +0.000 A 
ATOM     26  S   UNL     1      54.143   9.532  13.593  0.00  0.00    +0.000 S 
ATOM     27  C   UNL     1      52.784   9.177  14.558  0.00  0.00    +0.000 A 
ATOM     28  C   UNL     1      51.712   8.646  13.850  0.00  0.00    +0.000 A 
ATOM     29  C   UNL     1      52.074   8.531  12.453  0.00  0.00    +0.000 A 
ATOM     30  C   UNL     1      51.329   8.034  11.313  0.00  0.00    +0.000 A 
ATOM     31  O   UNL     1      50.196   7.571  11.372  0.00  0.00    +0.000 OA
ATOM     32  N   UNL     1      51.994   8.107  10.113  0.00  0.00    +0.000 N 
ATOM     33  H   UNL     1      51.486   7.762   9.312  0.00  0.00    +0.000 HD
ENDBRANCH  18  28
ENDBRANCH   1  20
TORSDOF 7
ENDMDL
MODEL 7
REMARK VINA RESULT:    -6.430      3.670      8.645
REMARK INTER + INTRA:         -10.073
REMARK INTER:                  -8.652
REMARK INTRA:                  -1.420
REMARK UNBOUND:                -1.011
REMARK  Name = 
REMARK  9 active torsions:
REMARK  status: ('A' for Active; 'I' for Inactive)
REMARK    1  A    between atoms: C_1  and  C_2
REMARK    2  A    between atoms: C_7  and  C_8
REMARK    3  A    between atoms: N_10  and  C_11
REMARK    4  A    between atoms: C_11  and  C_12
REMARK    5  A    between atoms: C_15  and  C_16
REMARK    6  A    between atoms: C_16  and  N_17
REMARK    7  A    between atoms: N_17  and  C_18
REMARK    8  A    between atoms: N_17  and  C_19
REMARK    9  A    between atoms: C_19  and  C_20
REMARK                            x       y       z     vdW  Elec       q    Type
REMARK                         _______ _______ _______ _____ _____    ______ ____
ROOT
ATOM      1  C   UNL     1      48.506   9.412  14.978  0.00  0.00    +0.000 C 
ENDROOT
BRANCH   1   2
ATOM      2  C   UNL     1      48.822   8.734  16.285  0.00  0.00    +0.000 A 
ATOM      3  C   UNL     1      49.899   7.843  16.384  0.00  0.00    +0.000 A 
ATOM      4  C   UNL     1      50.214   7.246  17.607  0.00  0.00    +0.000 A 
ATOM      5  C   UNL     1      49.457   7.527  18.753  0.00  0.00    +0.000 A 
ATOM      6  C   UNL     1      48.348   8.376  18.641  0.00  0.00    +0.000 A 
ATOM      7  C   UNL     1      48.031   8.971  17.417  0.00  0.00    +0.000 A 
BRANCH   5   8
ATOM      8  C   UNL     1      49.850   6.959  20.102  0.00  0.00    +0.000 C 
BRANCH   8   9
ATOM      9  N   UNL     1      49.997   5.485  20.096  0.00  0.00    +0.000 NA
ATOM     10  C   UNL     1      50.632   5.014  21.336  0.00  0.00    +0.000 C 
BRANCH   9  11
ATOM     11  C   UNL     1      48.673   4.835  19.969  0.00  0.00    +0.000 C 
BRANCH  11  12
ATOM     12  C   UNL     1      48.461   4.068  18.682  0.00  0.00    +0.000 A 
ATOM     13  C   UNL     1      47.285   4.211  17.953  0.00  0.00    +0.000 A 
ATOM     14  N   UNL     1      47.058   3.557  16.788  0.00  0.00    +0.000 NA
ATOM     15  C   UNL     1      48.057   2.744  16.380  0.00  0.00    +0.000 A 
ATOM     16  C   UNL     1      49.227   2.587  17.103  0.00  0.00    +0.000 A 
ATOM     17  N   UNL     1      49.457   3.240  18.265  0.00  0.00    +0.000 NA
ENDBRANCH  11  12
ENDBRANCH   9  11
ENDBRANCH   8   9
ENDBRANCH   5   8
ENDBRANCH   1   2
BRANCH   1  20
ATOM     18  C   UNL     1      47.509   7.929  13.300  0.00  0.00    +0.000 C 
ATOM     19  O   UNL     1      48.622   7.609  12.885  0.00  0.00    +0.000 OA
ATOM     20  N   UNL     1      47.364   8.815  14.334  0.00  0.00    +0.000 N 
ATOM     21  H   UNL     1      46.446   9.062  14.691  0.00  0.00    +0.000 HD
BRANCH  18  28
ATOM     22  C   UNL     1      43.597   2.424  12.113  0.00  0.00    +0.000 C 
ATOM     23  C   UNL     1      44.302   3.741  12.254  0.00  0.00    +0.000 A 
ATOM     24  N   UNL     1      43.796   4.831  11.773  0.00  0.00    +0.000 NA
ATOM     25  C   UNL     1      44.548   5.947  11.981  0.00  0.00    +0.000 A 
ATOM     26  S   UNL     1      44.024   7.463  11.415  0.00  0.00    +0.000 S 
ATOM     27  C   UNL     1      45.404   8.236  12.047  0.00  0.00    +0.000 A 
ATOM     28  C   UNL     1      46.284   7.378  12.697  0.00  0.00    +0.000 A 
ATOM     29  C   UNL     1      45.764   6.028  12.637  0.00  0.00    +0.000 A 
ATOM     30  C   UNL     1      46.296   4.778  13.145  0.00  0.00    +0.000 A 
ATOM     31  O   UNL     1      47.369   4.664  13.724  0.00  0.00    +0.000 OA
ATOM     32  N   UNL     1      45.500   3.681  12.923  0.00  0.00    +0.000 N 
ATOM     33  H   UNL     1      45.860   2.804  13.270  0.00  0.00    +0.000 HD
ENDBRANCH  18  28
ENDBRANCH   1  20
TORSDOF 7
ENDMDL
MODEL 8
REMARK VINA RESULT:    -6.213      2.886     10.182
REMARK INTER + INTRA:          -9.766
REMARK INTER:                  -8.644
REMARK INTRA:                  -1.122
REMARK UNBOUND:                -1.011
REMARK  Name = 
REMARK  9 active torsions:
REMARK  status: ('A' for Active; 'I' for Inactive)
REMARK    1  A    between atoms: C_1  and  C_2
REMARK    2  A    between atoms: C_7  and  C_8
REMARK    3  A    between atoms: N_10  and  C_11
REMARK    4  A    between atoms: C_11  and  C_12
REMARK    5  A    between atoms: C_15  and  C_16
REMARK    6  A    between atoms: C_16  and  N_17
REMARK    7  A    between atoms: N_17  and  C_18
REMARK    8  A    between atoms: N_17  and  C_19
REMARK    9  A    between atoms: C_19  and  C_20
REMARK                            x       y       z     vdW  Elec       q    Type
REMARK                         _______ _______ _______ _____ _____    ______ ____
ROOT
ATOM      1  C   UNL     1      48.905   5.455  17.095  0.00  0.00    +0.000 C 
ENDROOT
BRANCH   1   2
ATOM      2  C   UNL     1      48.457   6.316  18.246  0.00  0.00    +0.000 A 
ATOM      3  C   UNL     1      48.239   5.757  19.512  0.00  0.00    +0.000 A 
ATOM      4  C   UNL     1      47.861   6.564  20.588  0.00  0.00    +0.000 A 
ATOM      5  C   UNL     1      47.693   7.946  20.417  0.00  0.00    +0.000 A 
ATOM      6  C   UNL     1      47.858   8.495  19.139  0.00  0.00    +0.000 A 
ATOM      7  C   UNL     1      48.234   7.688  18.063  0.00  0.00    +0.000 A 
BRANCH   5   8
ATOM      8  C   UNL     1      47.378   8.841  21.598  0.00  0.00    +0.000 C 
BRANCH   8   9
ATOM      9  N   UNL     1      46.665  10.083  21.217  0.00  0.00    +0.000 NA
ATOM     10  C   UNL     1      45.512  10.320  22.098  0.00  0.00    +0.000 C 
BRANCH   9  11
ATOM     11  C   UNL     1      47.574  11.249  21.309  0.00  0.00    +0.000 C 
BRANCH  11  12
ATOM     12  C   UNL     1      47.994  11.835  19.979  0.00  0.00    +0.000 A 
ATOM     13  C   UNL     1      47.046  12.192  19.026  0.00  0.00    +0.000 A 
ATOM     14  N   UNL     1      47.375  12.734  17.829  0.00  0.00    +0.000 NA
ATOM     15  C   UNL     1      48.699  12.904  17.618  0.00  0.00    +0.000 A 
ATOM     16  C   UNL     1      49.651  12.544  18.556  0.00  0.00    +0.000 A 
ATOM     17  N   UNL     1      49.325  12.004  19.752  0.00  0.00    +0.000 NA
ENDBRANCH  11  12
ENDBRANCH   9  11
ENDBRANCH   8   9
ENDBRANCH   5   8
ENDBRANCH   1   2
BRANCH   1  20
ATOM     18  C   UNL     1      48.334   6.156  14.817  0.00  0.00    +0.000 C 
ATOM     19  O   UNL     1      49.442   6.670  14.671  0.00  0.00    +0.000 OA
ATOM     20  N   UNL     1      47.989   5.534  15.987  0.00  0.00    +0.000 N 
ATOM     21  H   UNL     1      47.082   5.090  16.099  0.00  0.00    +0.000 HD
BRANCH  18  28
ATOM     22  C   UNL     1      43.885   2.702  10.907  0.00  0.00    +0.000 C 
ATOM     23  C   UNL     1      44.797   3.637  11.645  0.00  0.00    +0.000 A 
ATOM     24  N   UNL     1      44.807   4.907  11.395  0.00  0.00    +0.000 NA
ATOM     25  C   UNL     1      45.684   5.628  12.146  0.00  0.00    +0.000 A 
ATOM     26  S   UNL     1      45.818   7.311  11.944  0.00  0.00    +0.000 S 
ATOM     27  C   UNL     1      47.008   7.416  13.159  0.00  0.00    +0.000 A 
ATOM     28  C   UNL     1      47.328   6.196  13.743  0.00  0.00    +0.000 A 
ATOM     29  C   UNL     1      46.542   5.151  13.122  0.00  0.00    +0.000 A 
ATOM     30  C   UNL     1      46.504   3.720  13.355  0.00  0.00    +0.000 A 
ATOM     31  O   UNL     1      47.214   3.128  14.160  0.00  0.00    +0.000 OA
ATOM     32  N   UNL     1      45.598   3.034  12.584  0.00  0.00    +0.000 N 
ATOM     33  H   UNL     1      45.563   2.036  12.736  0.00  0.00    +0.000 HD
ENDBRANCH  18  28
ENDBRANCH   1  20
TORSDOF 7
ENDMDL
MODEL 9
REMARK VINA RESULT:    -6.004      4.624      7.213
REMARK INTER + INTRA:          -9.472
REMARK INTER:                  -8.662
REMARK INTRA:                  -0.810
REMARK UNBOUND:                -1.011
REMARK  Name = 
REMARK  9 active torsions:
REMARK  status: ('A' for Active; 'I' for Inactive)
REMARK    1  A    between atoms: C_1  and  C_2
REMARK    2  A    between atoms: C_7  and  C_8
REMARK    3  A    between atoms: N_10  and  C_11
REMARK    4  A    between atoms: C_11  and  C_12
REMARK    5  A    between atoms: C_15  and  C_16
REMARK    6  A    between atoms: C_16  and  N_17
REMARK    7  A    between atoms: N_17  and  C_18
REMARK    8  A    between atoms: N_17  and  C_19
REMARK    9  A    between atoms: C_19  and  C_20
REMARK                            x       y       z     vdW  Elec       q    Type
REMARK                         _______ _______ _______ _____ _____    ______ ____
ROOT
ATOM      1  C   UNL     1      49.121   7.111  13.917  0.00  0.00    +0.000 C 
ENDROOT
BRANCH   1   2
ATOM      2  C   UNL     1      47.781   6.493  13.620  0.00  0.00    +0.000 A 
ATOM      3  C   UNL     1      46.869   7.140  12.776  0.00  0.00    +0.000 A 
ATOM      4  C   UNL     1      45.642   6.546  12.470  0.00  0.00    +0.000 A 
ATOM      5  C   UNL     1      45.303   5.296  13.006  0.00  0.00    +0.000 A 
ATOM      6  C   UNL     1      46.192   4.675  13.893  0.00  0.00    +0.000 A 
ATOM      7  C   UNL     1      47.418   5.270  14.200  0.00  0.00    +0.000 A 
BRANCH   5   8
ATOM      8  C   UNL     1      44.017   4.602  12.604  0.00  0.00    +0.000 C 
BRANCH   8   9
ATOM      9  N   UNL     1      44.217   3.539  11.592  0.00  0.00    +0.000 NA
ATOM     10  C   UNL     1      43.293   2.417  11.817  0.00  0.00    +0.000 C 
BRANCH   9  11
ATOM     11  C   UNL     1      43.985   4.073  10.230  0.00  0.00    +0.000 C 
BRANCH  11  12
ATOM     12  C   UNL     1      44.999   3.639   9.194  0.00  0.00    +0.000 A 
ATOM     13  C   UNL     1      45.664   4.576   8.411  0.00  0.00    +0.000 A 
ATOM     14  N   UNL     1      46.591   4.235   7.483  0.00  0.00    +0.000 NA
ATOM     15  C   UNL     1      46.825   2.909   7.364  0.00  0.00    +0.000 A 
ATOM     16  C   UNL     1      46.161   1.967   8.132  0.00  0.00    +0.000 A 
ATOM     17  N   UNL     1      45.238   2.306   9.059  0.00  0.00    +0.000 NA
ENDBRANCH  11  12
ENDBRANCH   9  11
ENDBRANCH   8   9
ENDBRANCH   5   8
ENDBRANCH   1   2
BRANCH   1  20
ATOM     18  C   UNL     1      50.756   8.590  12.845  0.00  0.00    +0.000 C 
ATOM     19  O   UNL     1      51.640   8.208  13.611  0.00  0.00    +0.000 OA
ATOM     20  N   UNL     1      49.482   8.095  12.930  0.00  0.00    +0.000 N 
ATOM     21  H   UNL     1      48.758   8.394  12.284  0.00  0.00    +0.000 HD
BRANCH  18  28
ATOM     22  C   UNL     1      53.579  10.059   6.772  0.00  0.00    +0.000 C 
ATOM     23  C   UNL     1      52.907   9.953   8.109  0.00  0.00    +0.000 A 
ATOM     24  N   UNL     1      52.314  10.970   8.648  0.00  0.00    +0.000 NA
ATOM     25  C   UNL     1      51.747  10.721   9.860  0.00  0.00    +0.000 A 
ATOM     26  S   UNL     1      50.926  11.950  10.701  0.00  0.00    +0.000 S 
ATOM     27  C   UNL     1      50.550  10.894  11.985  0.00  0.00    +0.000 A 
ATOM     28  C   UNL     1      51.028   9.601  11.810  0.00  0.00    +0.000 A 
ATOM     29  C   UNL     1      51.742   9.523  10.553  0.00  0.00    +0.000 A 
ATOM     30  C   UNL     1      52.431   8.418   9.915  0.00  0.00    +0.000 A 
ATOM     31  O   UNL     1      52.546   7.298  10.400  0.00  0.00    +0.000 OA
ATOM     32  N   UNL     1      52.977   8.710   8.689  0.00  0.00    +0.000 N 
ATOM     33  H   UNL     1      53.462   7.949   8.235  0.00  0.00    +0.000 HD
ENDBRANCH  18  28
ENDBRANCH   1  20
TORSDOF 7
ENDMDL
