MODEL 1
REMARK VINA RESULT:    -7.300      0.000      0.000
REMARK INTER + INTRA:         -11.735
REMARK INTER:                 -10.501
REMARK INTRA:                  -1.234
REMARK UNBOUND:                -1.234
REMARK  Name = 
REMARK  8 active torsions:
REMARK  status: ('A' for Active; 'I' for Inactive)
REMARK    1  A    between atoms: C_2  and  C_21
REMARK    2  A    between atoms: N_3  and  C_4
REMARK    3  A    between atoms: C_4  and  C_5
REMARK    4  A    between atoms: C_8  and  C_9
REMARK    5  A    between atoms: C_9  and  C_10
REMARK    6  A    between atoms: C_10  and  N_11
REMARK    7  A    between atoms: N_11  and  C_12
REMARK    8  A    between atoms: C_17  and  O_18
REMARK                            x       y       z     vdW  Elec       q    Type
REMARK                         _______ _______ _______ _____ _____    ______ ____
ROOT
ATOM      1  C   UNL     1      47.255   6.716  12.679  0.00  0.00    +0.000 A 
ATOM      2  C   UNL     1      47.229   5.446  13.264  0.00  0.00    +0.000 A 
ATOM      3  C   UNL     1      46.032   4.730  13.368  0.00  0.00    +0.000 A 
ATOM      4  C   UNL     1      44.832   5.268  12.879  0.00  0.00    +0.000 A 
ATOM      5  C   UNL     1      44.862   6.536  12.289  0.00  0.00    +0.000 A 
ATOM      6  C   UNL     1      46.060   7.253  12.185  0.00  0.00    +0.000 A 
ENDROOT
BRANCH   1   7
ATOM      7  C   UNL     1      48.550   7.480  12.595  0.00  0.00    +0.000 C 
BRANCH   7  10
ATOM      8  O   UNL     1      48.948   8.645  15.062  0.00  0.00    +0.000 OA
ATOM      9  C   UNL     1      49.625   7.669  14.772  0.00  0.00    +0.000 C 
ATOM     10  N   UNL     1      49.521   7.022  13.560  0.00  0.00    +0.000 N 
ATOM     11  H   UNL     1      49.859   6.072  13.485  0.00  0.00    +0.000 HD
BRANCH   9  12
ATOM     12  C   UNL     1      50.588   7.076  15.704  0.00  0.00    +0.000 A 
ATOM     13  C   UNL     1      51.908   7.478  15.807  0.00  0.00    +0.000 A 
ATOM     14  S   UNL     1      52.764   6.636  17.021  0.00  0.00    +0.000 S 
ATOM     15  C   UNL     1      51.395   5.713  17.428  0.00  0.00    +0.000 A 
ATOM     16  N   UNL     1      51.462   4.781  18.403  0.00  0.00    +0.000 NA
ATOM     17  C   UNL     1      50.308   4.116  18.609  0.00  0.00    +0.000 A 
ATOM     18  C   UNL     1      49.129   4.323  17.916  0.00  0.00    +0.000 A 
ATOM     19  C   UNL     1      49.102   5.300  16.924  0.00  0.00    +0.000 A 
ATOM     20  C   UNL     1      50.281   6.036  16.658  0.00  0.00    +0.000 A 
ENDBRANCH   9  12
ENDBRANCH   7  10
ENDBRANCH   1   7
BRANCH   4  21
ATOM     21  C   UNL     1      43.520   4.510  12.961  0.00  0.00    +0.000 C 
BRANCH  21  22
ATOM     22  C   UNL     1      43.650   3.091  12.410  0.00  0.00    +0.000 C 
BRANCH  22  23
ATOM     23  N   UNL     1      43.329   2.986  10.974  0.00  0.00    +0.000 NA
ATOM     24  H   UNL     1      42.748   3.787  10.717  0.00  0.00    +0.000 HD
BRANCH  23  25
ATOM     25  C   UNL     1      44.571   3.040  10.170  0.00  0.00    +0.000 C 
ATOM     26  C   UNL     1      44.619   1.837   9.209  0.00  0.00    +0.000 C 
ATOM     27  C   UNL     1      45.894   1.861   8.361  0.00  0.00    +0.000 C 
ATOM     28  C   UNL     1      46.073   3.177   7.607  0.00  0.00    +0.000 C 
ATOM     29  C   UNL     1      45.989   4.382   8.534  0.00  0.00    +0.000 C 
ATOM     30  C   UNL     1      44.724   4.371   9.381  0.00  0.00    +0.000 C 
BRANCH  30  31
ATOM     31  O   UNL     1      43.571   4.625   8.572  0.00  0.00    +0.000 OA
ATOM     32  H   UNL     1      43.437   3.868   7.979  0.00  0.00    +0.000 HD
ENDBRANCH  30  31
ENDBRANCH  23  25
ENDBRANCH  22  23
ENDBRANCH  21  22
ENDBRANCH   4  21
TORSDOF 8
ENDMDL
MODEL 2
REMARK VINA RESULT:    -7.119      2.848      3.121
REMARK INTER + INTRA:         -11.474
REMARK INTER:                 -10.367
REMARK INTRA:                  -1.107
REMARK UNBOUND:                -1.234
REMARK  Name = 
REMARK  8 active torsions:
REMARK  status: ('A' for Active; 'I' for Inactive)
REMARK    1  A    between atoms: C_2  and  C_21
REMARK    2  A    between atoms: N_3  and  C_4
REMARK    3  A    between atoms: C_4  and  C_5
REMARK    4  A    between atoms: C_8  and  C_9
REMARK    5  A    between atoms: C_9  and  C_10
REMARK    6  A    between atoms: C_10  and  N_11
REMARK    7  A    between atoms: N_11  and  C_12
REMARK    8  A    between atoms: C_17  and  O_18
REMARK                            x       y       z     vdW  Elec       q    Type
REMARK                         _______ _______ _______ _____ _____    ______ ____
ROOT
ATOM      1  C   UNL     1      46.928   7.199  13.373  0.00  0.00    +0.000 A 
ATOM      2  C   UNL     1      45.789   7.054  12.573  0.00  0.00    +0.000 A 
ATOM      3  C   UNL     1      45.268   5.787  12.291  0.00  0.00    +0.000 A 
ATOM      4  C   UNL     1      45.871   4.634  12.814  0.00  0.00    +0.000 A 
ATOM      5  C   UNL     1      47.006   4.781  13.618  0.00  0.00    +0.000 A 
ATOM      6  C   UNL     1      47.528   6.049  13.900  0.00  0.00    +0.000 A 
ENDROOT
BRANCH   1   7
ATOM      7  C   UNL     1      47.486   8.570  13.647  0.00  0.00    +0.000 C 
BRANCH   7  10
ATOM      8  O   UNL     1      49.556   8.785  15.456  0.00  0.00    +0.000 OA
ATOM      9  C   UNL     1      48.427   9.056  15.840  0.00  0.00    +0.000 C 
ATOM     10  N   UNL     1      47.319   8.965  15.025  0.00  0.00    +0.000 N 
ATOM     11  H   UNL     1      46.486   9.478  15.280  0.00  0.00    +0.000 HD
BRANCH   9  12
ATOM     12  C   UNL     1      48.153   9.538  17.197  0.00  0.00    +0.000 A 
ATOM     13  C   UNL     1      48.017  10.875  17.526  0.00  0.00    +0.000 A 
ATOM     14  S   UNL     1      47.648  11.116  19.177  0.00  0.00    +0.000 S 
ATOM     15  C   UNL     1      47.670   9.444  19.486  0.00  0.00    +0.000 A 
ATOM     16  N   UNL     1      47.437   8.975  20.730  0.00  0.00    +0.000 NA
ATOM     17  C   UNL     1      47.499   7.633  20.833  0.00  0.00    +0.000 A 
ATOM     18  C   UNL     1      47.775   6.761  19.794  0.00  0.00    +0.000 A 
ATOM     19  C   UNL     1      48.001   7.288  18.526  0.00  0.00    +0.000 A 
ATOM     20  C   UNL     1      47.949   8.691  18.349  0.00  0.00    +0.000 A 
ENDBRANCH   9  12
ENDBRANCH   7  10
ENDBRANCH   1   7
BRANCH   4  21
ATOM     21  C   UNL     1      45.321   3.246  12.541  0.00  0.00    +0.000 C 
BRANCH  21  22
ATOM     22  C   UNL     1      44.059   3.296  11.680  0.00  0.00    +0.000 C 
BRANCH  22  23
ATOM     23  N   UNL     1      44.109   2.399  10.510  0.00  0.00    +0.000 NA
ATOM     24  H   UNL     1      43.239   2.510   9.985  0.00  0.00    +0.000 HD
BRANCH  23  25
ATOM     25  C   UNL     1      45.234   2.779   9.625  0.00  0.00    +0.000 C 
ATOM     26  C   UNL     1      45.429   1.700   8.544  0.00  0.00    +0.000 C 
ATOM     27  C   UNL     1      46.587   2.061   7.609  0.00  0.00    +0.000 C 
ATOM     28  C   UNL     1      46.429   3.446   6.986  0.00  0.00    +0.000 C 
ATOM     29  C   UNL     1      46.195   4.523   8.037  0.00  0.00    +0.000 C 
ATOM     30  C   UNL     1      45.044   4.176   8.971  0.00  0.00    +0.000 C 
BRANCH  30  31
ATOM     31  O   UNL     1      43.792   4.255   8.282  0.00  0.00    +0.000 OA
ATOM     32  H   UNL     1      43.623   5.184   8.053  0.00  0.00    +0.000 HD
ENDBRANCH  30  31
ENDBRANCH  23  25
ENDBRANCH  22  23
ENDBRANCH  21  22
ENDBRANCH   4  21
TORSDOF 8
ENDMDL
MODEL 3
REMARK VINA RESULT:    -6.786      3.527      4.701
REMARK INTER + INTRA:         -10.995
REMARK INTER:                  -9.829
REMARK INTRA:                  -1.166
REMARK UNBOUND:                -1.234
REMARK  Name = 
REMARK  8 active torsions:
REMARK  status: ('A' for Active; 'I' for Inactive)
REMARK    1  A    between atoms: C_2  and  C_21
REMARK    2  A    between atoms: N_3  and  C_4
REMARK    3  A    between atoms: C_4  and  C_5
REMARK    4  A    between atoms: C_8  and  C_9
REMARK    5  A    between atoms: C_9  and  C_10
REMARK    6  A    between atoms: C_10  and  N_11
REMARK    7  A    between atoms: N_11  and  C_12
REMARK    8  A    between atoms: C_17  and  O_18
REMARK                            x       y       z     vdW  Elec       q    Type
REMARK                         _______ _______ _______ _____ _____    ______ ____
ROOT
ATOM      1  C   UNL     1      46.565   7.710  12.965  0.00  0.00    +0.000 A 
ATOM      2  C   UNL     1      45.276   7.364  12.548  0.00  0.00    +0.000 A 
ATOM      3  C   UNL     1      44.909   6.023  12.392  0.00  0.00    +0.000 A 
ATOM      4  C   UNL     1      45.826   4.995  12.661  0.00  0.00    +0.000 A 
ATOM      5  C   UNL     1      47.113   5.344  13.084  0.00  0.00    +0.000 A 
ATOM      6  C   UNL     1      47.480   6.686  13.239  0.00  0.00    +0.000 A 
ENDROOT
BRANCH   1   7
ATOM      7  C   UNL     1      46.947   9.160  13.106  0.00  0.00    +0.000 C 
BRANCH   7  10
ATOM      8  O   UNL     1      49.433  10.051  13.897  0.00  0.00    +0.000 OA
ATOM      9  C   UNL     1      49.211   9.959  12.698  0.00  0.00    +0.000 C 
ATOM     10  N   UNL     1      47.998   9.542  12.194  0.00  0.00    +0.000 N 
ATOM     11  H   UNL     1      47.961   9.193  11.246  0.00  0.00    +0.000 HD
BRANCH   9  12
ATOM     12  C   UNL     1      50.230  10.250  11.686  0.00  0.00    +0.000 A 
ATOM     13  C   UNL     1      50.571  11.529  11.282  0.00  0.00    +0.000 A 
ATOM     14  S   UNL     1      51.830  11.546  10.128  0.00  0.00    +0.000 S 
ATOM     15  C   UNL     1      51.941   9.849  10.139  0.00  0.00    +0.000 A 
ATOM     16  N   UNL     1      52.834   9.216   9.348  0.00  0.00    +0.000 NA
ATOM     17  C   UNL     1      52.802   7.873   9.447  0.00  0.00    +0.000 A 
ATOM     18  C   UNL     1      51.952   7.150  10.265  0.00  0.00    +0.000 A 
ATOM     19  C   UNL     1      51.053   7.842  11.070  0.00  0.00    +0.000 A 
ATOM     20  C   UNL     1      51.035   9.257  11.014  0.00  0.00    +0.000 A 
ENDBRANCH   9  12
ENDBRANCH   7  10
ENDBRANCH   1   7
BRANCH   4  21
ATOM     21  C   UNL     1      45.453   3.531  12.519  0.00  0.00    +0.000 C 
BRANCH  21  22
ATOM     22  C   UNL     1      44.056   3.356  11.926  0.00  0.00    +0.000 C 
BRANCH  22  23
ATOM     23  N   UNL     1      44.027   2.489  10.733  0.00  0.00    +0.000 NA
ATOM     24  H   UNL     1      43.147   2.655  10.240  0.00  0.00    +0.000 HD
BRANCH  23  25
ATOM     25  C   UNL     1      45.141   2.840   9.822  0.00  0.00    +0.000 C 
ATOM     26  C   UNL     1      45.301   1.741   8.754  0.00  0.00    +0.000 C 
ATOM     27  C   UNL     1      46.447   2.073   7.793  0.00  0.00    +0.000 C 
ATOM     28  C   UNL     1      46.296   3.449   7.151  0.00  0.00    +0.000 C 
ATOM     29  C   UNL     1      46.096   4.545   8.190  0.00  0.00    +0.000 C 
ATOM     30  C   UNL     1      44.958   4.230   9.150  0.00  0.00    +0.000 C 
BRANCH  30  31
ATOM     31  O   UNL     1      43.694   4.315   8.482  0.00  0.00    +0.000 OA
ATOM     32  H   UNL     1      43.811   4.823   7.662  0.00  0.00    +0.000 HD
ENDBRANCH  30  31
ENDBRANCH  23  25
ENDBRANCH  22  23
ENDBRANCH  21  22
ENDBRANCH   4  21
TORSDOF 8
ENDMDL
MODEL 4
REMARK VINA RESULT:    -6.764      1.463      1.753
REMARK INTER + INTRA:         -10.965
REMARK INTER:                 -10.362
REMARK INTRA:                  -0.602
REMARK UNBOUND:                -1.234
REMARK  Name = 
REMARK  8 active torsions:
REMARK  status: ('A' for Active; 'I' for Inactive)
REMARK    1  A    between atoms: C_2  and  C_21
REMARK    2  A    between atoms: N_3  and  C_4
REMARK    3  A    between atoms: C_4  and  C_5
REMARK    4  A    between atoms: C_8  and  C_9
REMARK    5  A    between atoms: C_9  and  C_10
REMARK    6  A    between atoms: C_10  and  N_11
REMARK    7  A    between atoms: N_11  and  C_12
REMARK    8  A    between atoms: C_17  and  O_18
REMARK                            x       y       z     vdW  Elec       q    Type
REMARK                         _______ _______ _______ _____ _____    ______ ____
ROOT
ATOM      1  C   UNL     1      47.346   6.953  13.005  0.00  0.00    +0.000 A 
ATOM      2  C   UNL     1      47.017   5.642  13.361  0.00  0.00    +0.000 A 
ATOM      3  C   UNL     1      45.707   5.169  13.226  0.00  0.00    +0.000 A 
ATOM      4  C   UNL     1      44.696   6.001  12.720  0.00  0.00    +0.000 A 
ATOM      5  C   UNL     1      45.030   7.311  12.359  0.00  0.00    +0.000 A 
ATOM      6  C   UNL     1      46.340   7.783  12.495  0.00  0.00    +0.000 A 
ENDROOT
BRANCH   1   7
ATOM      7  C   UNL     1      48.758   7.448  13.177  0.00  0.00    +0.000 C 
BRANCH   7  10
ATOM      8  O   UNL     1      48.279   8.800  15.532  0.00  0.00    +0.000 OA
ATOM      9  C   UNL     1      48.999   7.812  15.573  0.00  0.00    +0.000 C 
ATOM     10  N   UNL     1      49.318   7.074  14.454  0.00  0.00    +0.000 N 
ATOM     11  H   UNL     1      49.644   6.125  14.575  0.00  0.00    +0.000 HD
BRANCH   9  12
ATOM     12  C   UNL     1      49.561   7.301  16.827  0.00  0.00    +0.000 A 
ATOM     13  C   UNL     1      50.564   7.937  17.536  0.00  0.00    +0.000 A 
ATOM     14  S   UNL     1      50.968   7.126  18.984  0.00  0.00    +0.000 S 
ATOM     15  C   UNL     1      49.819   5.907  18.689  0.00  0.00    +0.000 A 
ATOM     16  N   UNL     1      49.666   4.886  19.559  0.00  0.00    +0.000 NA
ATOM     17  C   UNL     1      48.732   3.986  19.193  0.00  0.00    +0.000 A 
ATOM     18  C   UNL     1      47.969   4.048  18.042  0.00  0.00    +0.000 A 
ATOM     19  C   UNL     1      48.153   5.122  17.177  0.00  0.00    +0.000 A 
ATOM     20  C   UNL     1      49.119   6.104  17.503  0.00  0.00    +0.000 A 
ENDBRANCH   9  12
ENDBRANCH   7  10
ENDBRANCH   1   7
BRANCH   4  21
ATOM     21  C   UNL     1      43.270   5.515  12.545  0.00  0.00    +0.000 C 
BRANCH  21  22
ATOM     22  C   UNL     1      43.031   4.950  11.146  0.00  0.00    +0.000 C 
BRANCH  22  23
ATOM     23  N   UNL     1      44.083   5.312  10.177  0.00  0.00    +0.000 NA
ATOM     24  H   UNL     1      44.942   5.504  10.696  0.00  0.00    +0.000 HD
BRANCH  23  25
ATOM     25  C   UNL     1      44.341   4.179   9.259  0.00  0.00    +0.000 C 
ATOM     26  C   UNL     1      45.687   4.391   8.541  0.00  0.00    +0.000 C 
ATOM     27  C   UNL     1      45.985   3.235   7.581  0.00  0.00    +0.000 C 
ATOM     28  C   UNL     1      45.935   1.873   8.269  0.00  0.00    +0.000 C 
ATOM     29  C   UNL     1      44.627   1.660   9.019  0.00  0.00    +0.000 C 
ATOM     30  C   UNL     1      44.320   2.801   9.979  0.00  0.00    +0.000 C 
BRANCH  30  31
ATOM     31  O   UNL     1      45.225   2.786  11.088  0.00  0.00    +0.000 OA
ATOM     32  H   UNL     1      45.553   3.689  11.231  0.00  0.00    +0.000 HD
ENDBRANCH  30  31
ENDBRANCH  23  25
ENDBRANCH  22  23
ENDBRANCH  21  22
ENDBRANCH   4  21
TORSDOF 8
ENDMDL
MODEL 5
REMARK VINA RESULT:    -6.724      2.886      8.212
REMARK INTER + INTRA:         -10.906
REMARK INTER:                  -9.845
REMARK INTRA:                  -1.061
REMARK UNBOUND:                -1.234
REMARK  Name = 
REMARK  8 active torsions:
REMARK  status: ('A' for Active; 'I' for Inactive)
REMARK    1  A    between atoms: C_2  and  C_21
REMARK    2  A    between atoms: N_3  and  C_4
REMARK    3  A    between atoms: C_4  and  C_5
REMARK    4  A    between atoms: C_8  and  C_9
REMARK    5  A    between atoms: C_9  and  C_10
REMARK    6  A    between atoms: C_10  and  N_11
REMARK    7  A    between atoms: N_11  and  C_12
REMARK    8  A    between atoms: C_17  and  O_18
REMARK                            x       y       z     vdW  Elec       q    Type
REMARK                         _______ _______ _______ _____ _____    ______ ____
ROOT
ATOM      1  C   UNL     1      48.384   8.034  13.308  0.00  0.00    +0.000 A 
ATOM      2  C   UNL     1      47.669   8.754  14.270  0.00  0.00    +0.000 A 
ATOM      3  C   UNL     1      48.187   8.942  15.556  0.00  0.00    +0.000 A 
ATOM      4  C   UNL     1      49.441   8.420  15.905  0.00  0.00    +0.000 A 
ATOM      5  C   UNL     1      50.157   7.705  14.939  0.00  0.00    +0.000 A 
ATOM      6  C   UNL     1      49.639   7.516  13.652  0.00  0.00    +0.000 A 
ENDROOT
BRANCH   1   7
ATOM      7  C   UNL     1      47.800   7.825  11.936  0.00  0.00    +0.000 C 
BRANCH   7  10
ATOM      8  O   UNL     1      45.048   7.667  11.889  0.00  0.00    +0.000 OA
ATOM      9  C   UNL     1      45.684   6.626  11.805  0.00  0.00    +0.000 C 
ATOM     10  N   UNL     1      47.062   6.589  11.836  0.00  0.00    +0.000 N 
ATOM     11  H   UNL     1      47.534   5.777  11.463  0.00  0.00    +0.000 HD
BRANCH   9  12
ATOM     12  C   UNL     1      45.038   5.323  11.626  0.00  0.00    +0.000 A 
ATOM     13  C   UNL     1      44.323   4.676  12.619  0.00  0.00    +0.000 A 
ATOM     14  S   UNL     1      43.644   3.201  12.091  0.00  0.00    +0.000 S 
ATOM     15  C   UNL     1      44.296   3.391  10.532  0.00  0.00    +0.000 A 
ATOM     16  N   UNL     1      44.090   2.453   9.584  0.00  0.00    +0.000 NA
ATOM     17  C   UNL     1      44.676   2.726   8.402  0.00  0.00    +0.000 A 
ATOM     18  C   UNL     1      45.435   3.849   8.124  0.00  0.00    +0.000 A 
ATOM     19  C   UNL     1      45.615   4.795   9.129  0.00  0.00    +0.000 A 
ATOM     20  C   UNL     1      45.025   4.569  10.395  0.00  0.00    +0.000 A 
ENDBRANCH   9  12
ENDBRANCH   7  10
ENDBRANCH   1   7
BRANCH   4  21
ATOM     21  C   UNL     1      50.038   8.620  17.285  0.00  0.00    +0.000 C 
BRANCH  21  22
ATOM     22  C   UNL     1      50.213   7.296  18.026  0.00  0.00    +0.000 C 
BRANCH  22  23
ATOM     23  N   UNL     1      48.964   6.520  18.147  0.00  0.00    +0.000 NA
ATOM     24  H   UNL     1      48.203   7.078  17.754  0.00  0.00    +0.000 HD
BRANCH  23  25
ATOM     25  C   UNL     1      49.068   5.265  17.367  0.00  0.00    +0.000 C 
ATOM     26  C   UNL     1      49.888   4.230  18.160  0.00  0.00    +0.000 C 
ATOM     27  C   UNL     1      50.016   2.917  17.381  0.00  0.00    +0.000 C 
ATOM     28  C   UNL     1      48.662   2.347  16.964  0.00  0.00    +0.000 C 
ATOM     29  C   UNL     1      47.819   3.369  16.213  0.00  0.00    +0.000 C 
ATOM     30  C   UNL     1      47.682   4.678  16.978  0.00  0.00    +0.000 C 
BRANCH  30  31
ATOM     31  O   UNL     1      46.854   4.504  18.134  0.00  0.00    +0.000 OA
ATOM     32  H   UNL     1      46.409   5.346  18.324  0.00  0.00    +0.000 HD
ENDBRANCH  30  31
ENDBRANCH  23  25
ENDBRANCH  22  23
ENDBRANCH  21  22
ENDBRANCH   4  21
TORSDOF 8
ENDMDL
MODEL 6
REMARK VINA RESULT:    -6.367      1.656      1.916
REMARK INTER + INTRA:         -10.392
REMARK INTER:                  -9.853
REMARK INTRA:                  -0.539
REMARK UNBOUND:                -1.234
REMARK  Name = 
REMARK  8 active torsions:
REMARK  status: ('A' for Active; 'I' for Inactive)
REMARK    1  A    between atoms: C_2  and  C_21
REMARK    2  A    between atoms: N_3  and  C_4
REMARK    3  A    between atoms: C_4  and  C_5
REMARK    4  A    between atoms: C_8  and  C_9
REMARK    5  A    between atoms: C_9  and  C_10
REMARK    6  A    between atoms: C_10  and  N_11
REMARK    7  A    between atoms: N_11  and  C_12
REMARK    8  A    between atoms: C_17  and  O_18
REMARK                            x       y       z     vdW  Elec       q    Type
REMARK                         _______ _______ _______ _____ _____    ______ ____
ROOT
ATOM      1  C   UNL     1      46.724   6.281  13.285  0.00  0.00    +0.000 A 
ATOM      2  C   UNL     1      46.986   4.910  13.377  0.00  0.00    +0.000 A 
ATOM      3  C   UNL     1      46.046   3.970  12.943  0.00  0.00    +0.000 A 
ATOM      4  C   UNL     1      44.822   4.384  12.395  0.00  0.00    +0.000 A 
ATOM      5  C   UNL     1      44.565   5.756  12.298  0.00  0.00    +0.000 A 
ATOM      6  C   UNL     1      45.506   6.696  12.733  0.00  0.00    +0.000 A 
ENDROOT
BRANCH   1   7
ATOM      7  C   UNL     1      47.742   7.277  13.777  0.00  0.00    +0.000 C 
BRANCH   7  10
ATOM      8  O   UNL     1      49.570   8.807  15.162  0.00  0.00    +0.000 OA
ATOM      9  C   UNL     1      49.013   7.896  15.760  0.00  0.00    +0.000 C 
ATOM     10  N   UNL     1      48.097   7.060  15.159  0.00  0.00    +0.000 N 
ATOM     11  H   UNL     1      47.455   6.543  15.744  0.00  0.00    +0.000 HD
BRANCH   9  12
ATOM     12  C   UNL     1      49.244   7.634  17.183  0.00  0.00    +0.000 A 
ATOM     13  C   UNL     1      48.704   8.396  18.203  0.00  0.00    +0.000 A 
ATOM     14  S   UNL     1      49.110   7.808  19.755  0.00  0.00    +0.000 S 
ATOM     15  C   UNL     1      50.020   6.532  19.097  0.00  0.00    +0.000 A 
ATOM     16  N   UNL     1      50.651   5.653  19.904  0.00  0.00    +0.000 NA
ATOM     17  C   UNL     1      51.346   4.703  19.249  0.00  0.00    +0.000 A 
ATOM     18  C   UNL     1      51.444   4.588  17.874  0.00  0.00    +0.000 A 
ATOM     19  C   UNL     1      50.771   5.510  17.078  0.00  0.00    +0.000 A 
ATOM     20  C   UNL     1      50.021   6.534  17.705  0.00  0.00    +0.000 A 
ENDBRANCH   9  12
ENDBRANCH   7  10
ENDBRANCH   1   7
BRANCH   4  21
ATOM     21  C   UNL     1      43.788   3.391  11.899  0.00  0.00    +0.000 C 
BRANCH  21  22
ATOM     22  C   UNL     1      43.802   3.271  10.376  0.00  0.00    +0.000 C 
BRANCH  22  23
ATOM     23  N   UNL     1      44.439   2.033   9.889  0.00  0.00    +0.000 NA
ATOM     24  H   UNL     1      43.766   1.540   9.297  0.00  0.00    +0.000 HD
BRANCH  23  25
ATOM     25  C   UNL     1      45.624   2.362   9.064  0.00  0.00    +0.000 C 
ATOM     26  C   UNL     1      46.006   1.146   8.199  0.00  0.00    +0.000 C 
ATOM     27  C   UNL     1      47.231   1.452   7.332  0.00  0.00    +0.000 C 
ATOM     28  C   UNL     1      47.049   2.703   6.477  0.00  0.00    +0.000 C 
ATOM     29  C   UNL     1      46.632   3.908   7.310  0.00  0.00    +0.000 C 
ATOM     30  C   UNL     1      45.413   3.618   8.174  0.00  0.00    +0.000 C 
BRANCH  30  31
ATOM     31  O   UNL     1      44.239   3.483   7.365  0.00  0.00    +0.000 OA
ATOM     32  H   UNL     1      43.991   2.545   7.334  0.00  0.00    +0.000 HD
ENDBRANCH  30  31
ENDBRANCH  23  25
ENDBRANCH  22  23
ENDBRANCH  21  22
ENDBRANCH   4  21
TORSDOF 8
ENDMDL
MODEL 7
REMARK VINA RESULT:    -6.171      2.771      3.474
REMARK INTER + INTRA:         -10.111
REMARK INTER:                  -9.449
REMARK INTRA:                  -0.661
REMARK UNBOUND:                -1.234
REMARK  Name = 
REMARK  8 active torsions:
REMARK  status: ('A' for Active; 'I' for Inactive)
REMARK    1  A    between atoms: C_2  and  C_21
REMARK    2  A    between atoms: N_3  and  C_4
REMARK    3  A    between atoms: C_4  and  C_5
REMARK    4  A    between atoms: C_8  and  C_9
REMARK    5  A    between atoms: C_9  and  C_10
REMARK    6  A    between atoms: C_10  and  N_11
REMARK    7  A    between atoms: N_11  and  C_12
REMARK    8  A    between atoms: C_17  and  O_18
REMARK                            x       y       z     vdW  Elec       q    Type
REMARK                         _______ _______ _______ _____ _____    ______ ____
ROOT
ATOM      1  C   UNL     1      48.899   7.860  13.994  0.00  0.00    +0.000 A 
ATOM      2  C   UNL     1      48.875   6.923  12.956  0.00  0.00    +0.000 A 
ATOM      3  C   UNL     1      47.718   6.726  12.195  0.00  0.00    +0.000 A 
ATOM      4  C   UNL     1      46.558   7.473  12.452  0.00  0.00    +0.000 A 
ATOM      5  C   UNL     1      46.586   8.414  13.487  0.00  0.00    +0.000 A 
ATOM      6  C   UNL     1      47.744   8.610  14.249  0.00  0.00    +0.000 A 
ENDROOT
BRANCH   1   7
ATOM      7  C   UNL     1      50.148   8.042  14.815  0.00  0.00    +0.000 C 
BRANCH   7  10
ATOM      8  O   UNL     1      49.657   5.707  16.196  0.00  0.00    +0.000 OA
ATOM      9  C   UNL     1      49.670   6.755  16.826  0.00  0.00    +0.000 C 
ATOM     10  N   UNL     1      49.887   7.980  16.233  0.00  0.00    +0.000 N 
ATOM     11  H   UNL     1      50.190   8.752  16.811  0.00  0.00    +0.000 HD
BRANCH   9  12
ATOM     12  C   UNL     1      49.490   6.800  18.280  0.00  0.00    +0.000 A 
ATOM     13  C   UNL     1      50.166   5.976  19.164  0.00  0.00    +0.000 A 
ATOM     14  S   UNL     1      49.784   6.304  20.797  0.00  0.00    +0.000 S 
ATOM     15  C   UNL     1      48.706   7.544  20.356  0.00  0.00    +0.000 A 
ATOM     16  N   UNL     1      48.029   8.230  21.301  0.00  0.00    +0.000 NA
ATOM     17  C   UNL     1      47.200   9.172  20.810  0.00  0.00    +0.000 A 
ATOM     18  C   UNL     1      47.016   9.456  19.469  0.00  0.00    +0.000 A 
ATOM     19  C   UNL     1      47.740   8.730  18.528  0.00  0.00    +0.000 A 
ATOM     20  C   UNL     1      48.629   7.725  18.978  0.00  0.00    +0.000 A 
ENDBRANCH   9  12
ENDBRANCH   7  10
ENDBRANCH   1   7
BRANCH   4  21
ATOM     21  C   UNL     1      45.292   7.296  11.635  0.00  0.00    +0.000 C 
BRANCH  21  22
ATOM     22  C   UNL     1      45.408   6.127  10.657  0.00  0.00    +0.000 C 
BRANCH  22  23
ATOM     23  N   UNL     1      44.137   5.407  10.448  0.00  0.00    +0.000 NA
ATOM     24  H   UNL     1      43.459   6.064  10.056  0.00  0.00    +0.000 HD
BRANCH  23  25
ATOM     25  C   UNL     1      44.331   4.307   9.475  0.00  0.00    +0.000 C 
ATOM     26  C   UNL     1      45.669   4.499   8.736  0.00  0.00    +0.000 C 
ATOM     27  C   UNL     1      45.901   3.378   7.720  0.00  0.00    +0.000 C 
ATOM     28  C   UNL     1      45.811   1.988   8.347  0.00  0.00    +0.000 C 
ATOM     29  C   UNL     1      44.512   1.792   9.117  0.00  0.00    +0.000 C 
ATOM     30  C   UNL     1      44.270   2.900  10.133  0.00  0.00    +0.000 C 
BRANCH  30  31
ATOM     31  O   UNL     1      45.197   2.800  11.220  0.00  0.00    +0.000 OA
ATOM     32  H   UNL     1      45.808   3.553  11.176  0.00  0.00    +0.000 HD
ENDBRANCH  30  31
ENDBRANCH  23  25
ENDBRANCH  22  23
ENDBRANCH  21  22
ENDBRANCH   4  21
TORSDOF 8
ENDMDL
MODEL 8
REMARK VINA RESULT:    -6.082      3.723      5.324
REMARK INTER + INTRA:          -9.983
REMARK INTER:                  -9.452
REMARK INTRA:                  -0.532
REMARK UNBOUND:                -1.234
REMARK  Name = 
REMARK  8 active torsions:
REMARK  status: ('A' for Active; 'I' for Inactive)
REMARK    1  A    between atoms: C_2  and  C_21
REMARK    2  A    between atoms: N_3  and  C_4
REMARK    3  A    between atoms: C_4  and  C_5
REMARK    4  A    between atoms: C_8  and  C_9
REMARK    5  A    between atoms: C_9  and  C_10
REMARK    6  A    between atoms: C_10  and  N_11
REMARK    7  A    between atoms: N_11  and  C_12
REMARK    8  A    between atoms: C_17  and  O_18
REMARK                            x       y       z     vdW  Elec       q    Type
REMARK                         _______ _______ _______ _____ _____    ______ ____
ROOT
ATOM      1  C   UNL     1      48.693   8.284  12.817  0.00  0.00    +0.000 A 
ATOM      2  C   UNL     1      47.654   9.198  12.618  0.00  0.00    +0.000 A 
ATOM      3  C   UNL     1      46.397   8.769  12.178  0.00  0.00    +0.000 A 
ATOM      4  C   UNL     1      46.151   7.409  11.936  0.00  0.00    +0.000 A 
ATOM      5  C   UNL     1      47.191   6.496  12.142  0.00  0.00    +0.000 A 
ATOM      6  C   UNL     1      48.448   6.926  12.582  0.00  0.00    +0.000 A 
ENDROOT
BRANCH   1   7
ATOM      7  C   UNL     1      50.045   8.769  13.271  0.00  0.00    +0.000 C 
BRANCH   7  10
ATOM      8  O   UNL     1      51.645   9.763  11.258  0.00  0.00    +0.000 OA
ATOM      9  C   UNL     1      51.874   8.635  11.669  0.00  0.00    +0.000 C 
ATOM     10  N   UNL     1      51.126   8.035  12.659  0.00  0.00    +0.000 N 
ATOM     11  H   UNL     1      51.527   7.258  13.167  0.00  0.00    +0.000 HD
BRANCH   9  12
ATOM     12  C   UNL     1      52.992   7.829  11.170  0.00  0.00    +0.000 A 
ATOM     13  C   UNL     1      54.123   7.538  11.913  0.00  0.00    +0.000 A 
ATOM     14  S   UNL     1      55.223   6.533  11.078  0.00  0.00    +0.000 S 
ATOM     15  C   UNL     1      54.217   6.472   9.708  0.00  0.00    +0.000 A 
ATOM     16  N   UNL     1      54.590   5.773   8.615  0.00  0.00    +0.000 NA
ATOM     17  C   UNL     1      53.706   5.824   7.600  0.00  0.00    +0.000 A 
ATOM     18  C   UNL     1      52.507   6.515   7.616  0.00  0.00    +0.000 A 
ATOM     19  C   UNL     1      52.158   7.216   8.766  0.00  0.00    +0.000 A 
ATOM     20  C   UNL     1      53.044   7.203   9.870  0.00  0.00    +0.000 A 
ENDBRANCH   9  12
ENDBRANCH   7  10
ENDBRANCH   1   7
BRANCH   4  21
ATOM     21  C   UNL     1      44.795   6.909  11.475  0.00  0.00    +0.000 C 
BRANCH  21  22
ATOM     22  C   UNL     1      44.841   5.437  11.068  0.00  0.00    +0.000 C 
BRANCH  22  23
ATOM     23  N   UNL     1      43.753   5.045  10.152  0.00  0.00    +0.000 NA
ATOM     24  H   UNL     1      43.455   5.876   9.637  0.00  0.00    +0.000 HD
BRANCH  23  25
ATOM     25  C   UNL     1      44.247   4.048   9.175  0.00  0.00    +0.000 C 
ATOM     26  C   UNL     1      45.627   4.482   8.645  0.00  0.00    +0.000 C 
ATOM     27  C   UNL     1      46.167   3.471   7.629  0.00  0.00    +0.000 C 
ATOM     28  C   UNL     1      46.210   2.048   8.182  0.00  0.00    +0.000 C 
ATOM     29  C   UNL     1      44.864   1.614   8.747  0.00  0.00    +0.000 C 
ATOM     30  C   UNL     1      44.317   2.609   9.761  0.00  0.00    +0.000 C 
BRANCH  30  31
ATOM     31  O   UNL     1      45.090   2.582  10.965  0.00  0.00    +0.000 OA
ATOM     32  H   UNL     1      44.488   2.449  11.716  0.00  0.00    +0.000 HD
ENDBRANCH  30  31
ENDBRANCH  23  25
ENDBRANCH  22  23
ENDBRANCH  21  22
ENDBRANCH   4  21
TORSDOF 8
ENDMDL
MODEL 9
REMARK VINA RESULT:    -6.075      3.408      9.198
REMARK INTER + INTRA:          -9.973
REMARK INTER:                  -8.922
REMARK INTRA:                  -1.051
REMARK UNBOUND:                -1.234
REMARK  Name = 
REMARK  8 active torsions:
REMARK  status: ('A' for Active; 'I' for Inactive)
REMARK    1  A    between atoms: C_2  and  C_21
REMARK    2  A    between atoms: N_3  and  C_4
REMARK    3  A    between atoms: C_4  and  C_5
REMARK    4  A    between atoms: C_8  and  C_9
REMARK    5  A    between atoms: C_9  and  C_10
REMARK    6  A    between atoms: C_10  and  N_11
REMARK    7  A    between atoms: N_11  and  C_12
REMARK    8  A    between atoms: C_17  and  O_18
REMARK                            x       y       z     vdW  Elec       q    Type
REMARK                         _______ _______ _______ _____ _____    ______ ____
ROOT
ATOM      1  C   UNL     1      48.822   3.592  17.151  0.00  0.00    +0.000 A 
ATOM      2  C   UNL     1      49.576   2.414  17.151  0.00  0.00    +0.000 A 
ATOM      3  C   UNL     1      50.949   2.442  17.416  0.00  0.00    +0.000 A 
ATOM      4  C   UNL     1      51.597   3.654  17.698  0.00  0.00    +0.000 A 
ATOM      5  C   UNL     1      50.839   4.830  17.703  0.00  0.00    +0.000 A 
ATOM      6  C   UNL     1      49.466   4.801  17.437  0.00  0.00    +0.000 A 
ENDROOT
BRANCH   1   7
ATOM      7  C   UNL     1      47.348   3.542  16.843  0.00  0.00    +0.000 C 
BRANCH   7  10
ATOM      8  O   UNL     1      47.333   3.147  14.114  0.00  0.00    +0.000 OA
ATOM      9  C   UNL     1      46.969   4.235  14.539  0.00  0.00    +0.000 C 
ATOM     10  N   UNL     1      46.955   4.545  15.882  0.00  0.00    +0.000 N 
ATOM     11  H   UNL     1      46.374   5.310  16.197  0.00  0.00    +0.000 HD
BRANCH   9  12
ATOM     12  C   UNL     1      46.480   5.299  13.657  0.00  0.00    +0.000 A 
ATOM     13  C   UNL     1      47.212   6.427  13.334  0.00  0.00    +0.000 A 
ATOM     14  S   UNL     1      46.395   7.456  12.242  0.00  0.00    +0.000 S 
ATOM     15  C   UNL     1      45.046   6.421  12.186  0.00  0.00    +0.000 A 
ATOM     16  N   UNL     1      43.974   6.735  11.429  0.00  0.00    +0.000 NA
ATOM     17  C   UNL     1      42.974   5.834  11.491  0.00  0.00    +0.000 A 
ATOM     18  C   UNL     1      42.986   4.674  12.244  0.00  0.00    +0.000 A 
ATOM     19  C   UNL     1      44.116   4.385  13.004  0.00  0.00    +0.000 A 
ATOM     20  C   UNL     1      45.203   5.291  12.983  0.00  0.00    +0.000 A 
ENDBRANCH   9  12
ENDBRANCH   7  10
ENDBRANCH   1   7
BRANCH   4  21
ATOM     21  C   UNL     1      53.082   3.717  18.006  0.00  0.00    +0.000 C 
BRANCH  21  22
ATOM     22  C   UNL     1      53.494   5.091  18.530  0.00  0.00    +0.000 C 
BRANCH  22  23
ATOM     23  N   UNL     1      54.376   5.832  17.609  0.00  0.00    +0.000 NA
ATOM     24  H   UNL     1      54.558   5.239  16.796  0.00  0.00    +0.000 HD
BRANCH  23  25
ATOM     25  C   UNL     1      53.702   7.065  17.141  0.00  0.00    +0.000 C 
ATOM     26  C   UNL     1      54.690   8.246  17.192  0.00  0.00    +0.000 C 
ATOM     27  C   UNL     1      54.024   9.539  16.714  0.00  0.00    +0.000 C 
ATOM     28  C   UNL     1      53.399   9.402  15.328  0.00  0.00    +0.000 C 
ATOM     29  C   UNL     1      52.448   8.215  15.246  0.00  0.00    +0.000 C 
ATOM     30  C   UNL     1      53.099   6.921  15.716  0.00  0.00    +0.000 C 
BRANCH  30  31
ATOM     31  O   UNL     1      54.091   6.485  14.779  0.00  0.00    +0.000 OA
ATOM     32  H   UNL     1      54.715   7.213  14.628  0.00  0.00    +0.000 HD
ENDBRANCH  30  31
ENDBRANCH  23  25
ENDBRANCH  22  23
ENDBRANCH  21  22
ENDBRANCH   4  21
TORSDOF 8
ENDMDL
