MODEL 1
REMARK VINA RESULT:    -7.686      0.000      0.000
REMARK INTER + INTRA:         -11.538
REMARK INTER:                 -10.382
REMARK INTRA:                  -1.156
REMARK UNBOUND:                -1.156
REMARK  Name = 
REMARK  7 active torsions:
REMARK  status: ('A' for Active; 'I' for Inactive)
REMARK    1  A    between atoms: C_1  and  O_2
REMARK    2  A    between atoms: O_2  and  C_3
REMARK    3  A    between atoms: C_6  and  C_7
REMARK    4  A    between atoms: C_11  and  N_12
REMARK    5  A    between atoms: N_12  and  C_13
REMARK    6  A    between atoms: C_13  and  C_14
REMARK    7  A    between atoms: C_18  and  C_19
REMARK                            x       y       z     vdW  Elec       q    Type
REMARK                         _______ _______ _______ _____ _____    ______ ____
ROOT
ATOM      1  N   UNL     1      44.331   6.753  12.627  0.00  0.00    +0.000 N 
ATOM      2  H   UNL     1      43.948   6.105  13.306  0.00  0.00    +0.000 HD
ENDROOT
BRANCH   1   8
ATOM      3  C   UNL     1      46.587   5.900  13.386  0.00  0.00    +0.000 A 
ATOM      4  C   UNL     1      47.961   6.147  13.498  0.00  0.00    +0.000 A 
ATOM      5  C   UNL     1      48.518   7.313  12.976  0.00  0.00    +0.000 A 
ATOM      6  C   UNL     1      47.720   8.244  12.307  0.00  0.00    +0.000 A 
ATOM      7  C   UNL     1      46.344   7.996  12.200  0.00  0.00    +0.000 A 
ATOM      8  C   UNL     1      45.737   6.869  12.791  0.00  0.00    +0.000 A 
BRANCH   6   9
ATOM      9  C   UNL     1      48.370   9.463  11.747  0.00  0.00    +0.000 C 
ATOM     10  N   UNL     1      47.653  10.629  11.694  0.00  0.00    +0.000 N 
ATOM     11  O   UNL     1      49.530   9.443  11.352  0.00  0.00    +0.000 OA
ATOM     12  H   UNL     1      46.710  10.756  12.018  0.00  0.00    +0.000 HD
ATOM     13  H   UNL     1      48.144  11.446  11.350  0.00  0.00    +0.000 HD
ENDBRANCH   6   9
BRANCH   3  15
ATOM     14  C   UNL     1      46.895   3.557  13.713  0.00  0.00    +0.000 C 
ATOM     15  O   UNL     1      46.042   4.692  13.725  0.00  0.00    +0.000 OA
ENDBRANCH   3  15
ENDBRANCH   1   8
BRANCH   1  16
ATOM     16  C   UNL     1      43.822   6.482  11.281  0.00  0.00    +0.000 C 
BRANCH  16  17
ATOM     17  C   UNL     1      43.853   5.016  10.923  0.00  0.00    +0.000 A 
ATOM     18  C   UNL     1      43.244   4.019  11.682  0.00  0.00    +0.000 A 
ATOM     19  N   UNL     1      43.305   2.692  11.377  0.00  0.00    +0.000 NA
ATOM     20  C   UNL     1      43.982   2.347  10.271  0.00  0.00    +0.000 A 
ATOM     21  C   UNL     1      44.636   3.254   9.440  0.00  0.00    +0.000 A 
ATOM     22  C   UNL     1      44.565   4.601   9.802  0.00  0.00    +0.000 A 
BRANCH  21  23
ATOM     23  C   UNL     1      45.346   2.794   8.187  0.00  0.00    +0.000 C 
ATOM     24  C   UNL     1      46.154   1.511   8.437  0.00  0.00    +0.000 C 
ATOM     25  C   UNL     1      46.928   1.083   7.193  0.00  0.00    +0.000 C 
ATOM     26  C   UNL     1      47.819   2.210   6.679  0.00  0.00    +0.000 C 
ATOM     27  C   UNL     1      47.010   3.470   6.393  0.00  0.00    +0.000 C 
ATOM     28  C   UNL     1      46.229   3.922   7.623  0.00  0.00    +0.000 C 
ENDBRANCH  21  23
ENDBRANCH  16  17
ENDBRANCH   1  16
TORSDOF 6
ENDMDL
MODEL 2
REMARK VINA RESULT:    -7.454      1.401      3.176
REMARK INTER + INTRA:         -11.224
REMARK INTER:                 -10.398
REMARK INTRA:                  -0.826
REMARK UNBOUND:                -1.156
REMARK  Name = 
REMARK  7 active torsions:
REMARK  status: ('A' for Active; 'I' for Inactive)
REMARK    1  A    between atoms: C_1  and  O_2
REMARK    2  A    between atoms: O_2  and  C_3
REMARK    3  A    between atoms: C_6  and  C_7
REMARK    4  A    between atoms: C_11  and  N_12
REMARK    5  A    between atoms: N_12  and  C_13
REMARK    6  A    between atoms: C_13  and  C_14
REMARK    7  A    between atoms: C_18  and  C_19
REMARK                            x       y       z     vdW  Elec       q    Type
REMARK                         _______ _______ _______ _____ _____    ______ ____
ROOT
ATOM      1  N   UNL     1      45.388   6.870  11.310  0.00  0.00    +0.000 N 
ATOM      2  H   UNL     1      45.252   7.832  11.019  0.00  0.00    +0.000 HD
ENDROOT
BRANCH   1   8
ATOM      3  C   UNL     1      47.466   7.738  12.456  0.00  0.00    +0.000 A 
ATOM      4  C   UNL     1      48.450   7.524  13.430  0.00  0.00    +0.000 A 
ATOM      5  C   UNL     1      48.394   6.407  14.261  0.00  0.00    +0.000 A 
ATOM      6  C   UNL     1      47.339   5.496  14.157  0.00  0.00    +0.000 A 
ATOM      7  C   UNL     1      46.359   5.711  13.178  0.00  0.00    +0.000 A 
ATOM      8  C   UNL     1      46.433   6.784  12.266  0.00  0.00    +0.000 A 
BRANCH   6   9
ATOM      9  C   UNL     1      47.314   4.331  15.086  0.00  0.00    +0.000 C 
ATOM     10  N   UNL     1      47.117   4.556  16.424  0.00  0.00    +0.000 N 
ATOM     11  O   UNL     1      47.450   3.184  14.676  0.00  0.00    +0.000 OA
ATOM     12  H   UNL     1      46.966   5.452  16.854  0.00  0.00    +0.000 HD
ATOM     13  H   UNL     1      47.061   3.736  17.016  0.00  0.00    +0.000 HD
ENDBRANCH   6   9
BRANCH   3  15
ATOM     14  C   UNL     1      47.286  10.117  12.488  0.00  0.00    +0.000 C 
ATOM     15  O   UNL     1      47.395   8.909  11.750  0.00  0.00    +0.000 OA
ENDBRANCH   3  15
ENDBRANCH   1   8
BRANCH   1  16
ATOM     16  C   UNL     1      44.113   6.224  11.633  0.00  0.00    +0.000 C 
BRANCH  16  17
ATOM     17  C   UNL     1      44.016   4.813  11.103  0.00  0.00    +0.000 A 
ATOM     18  C   UNL     1      43.289   3.800  11.725  0.00  0.00    +0.000 A 
ATOM     19  N   UNL     1      43.233   2.518  11.266  0.00  0.00    +0.000 NA
ATOM     20  C   UNL     1      43.910   2.239  10.142  0.00  0.00    +0.000 A 
ATOM     21  C   UNL     1      44.676   3.167   9.439  0.00  0.00    +0.000 A 
ATOM     22  C   UNL     1      44.722   4.463   9.957  0.00  0.00    +0.000 A 
BRANCH  21  23
ATOM     23  C   UNL     1      45.379   2.787   8.156  0.00  0.00    +0.000 C 
ATOM     24  C   UNL     1      46.223   1.515   8.332  0.00  0.00    +0.000 C 
ATOM     25  C   UNL     1      46.990   1.169   7.059  0.00  0.00    +0.000 C 
ATOM     26  C   UNL     1      47.846   2.342   6.590  0.00  0.00    +0.000 C 
ATOM     27  C   UNL     1      47.001   3.594   6.377  0.00  0.00    +0.000 C 
ATOM     28  C   UNL     1      46.226   3.964   7.638  0.00  0.00    +0.000 C 
ENDBRANCH  21  23
ENDBRANCH  16  17
ENDBRANCH   1  16
TORSDOF 6
ENDMDL
MODEL 3
REMARK VINA RESULT:    -7.355      2.787      6.734
REMARK INTER + INTRA:         -11.091
REMARK INTER:                 -10.524
REMARK INTRA:                  -0.567
REMARK UNBOUND:                -1.156
REMARK  Name = 
REMARK  7 active torsions:
REMARK  status: ('A' for Active; 'I' for Inactive)
REMARK    1  A    between atoms: C_1  and  O_2
REMARK    2  A    between atoms: O_2  and  C_3
REMARK    3  A    between atoms: C_6  and  C_7
REMARK    4  A    between atoms: C_11  and  N_12
REMARK    5  A    between atoms: N_12  and  C_13
REMARK    6  A    between atoms: C_13  and  C_14
REMARK    7  A    between atoms: C_18  and  C_19
REMARK                            x       y       z     vdW  Elec       q    Type
REMARK                         _______ _______ _______ _____ _____    ______ ____
ROOT
ATOM      1  N   UNL     1      45.098   5.698   9.627  0.00  0.00    +0.000 N 
ATOM      2  H   UNL     1      45.878   6.262   9.307  0.00  0.00    +0.000 HD
ENDROOT
BRANCH   1   8
ATOM      3  C   UNL     1      44.511   3.240   9.689  0.00  0.00    +0.000 A 
ATOM      4  C   UNL     1      44.785   1.952   9.212  0.00  0.00    +0.000 A 
ATOM      5  C   UNL     1      45.754   1.750   8.232  0.00  0.00    +0.000 A 
ATOM      6  C   UNL     1      46.449   2.832   7.686  0.00  0.00    +0.000 A 
ATOM      7  C   UNL     1      46.175   4.119   8.168  0.00  0.00    +0.000 A 
ATOM      8  C   UNL     1      45.263   4.348   9.219  0.00  0.00    +0.000 A 
BRANCH   6   9
ATOM      9  C   UNL     1      47.458   2.563   6.622  0.00  0.00    +0.000 C 
ATOM     10  N   UNL     1      47.343   3.214   5.421  0.00  0.00    +0.000 N 
ATOM     11  O   UNL     1      48.389   1.789   6.807  0.00  0.00    +0.000 OA
ATOM     12  H   UNL     1      46.636   3.887   5.182  0.00  0.00    +0.000 HD
ATOM     13  H   UNL     1      48.073   3.039   4.741  0.00  0.00    +0.000 HD
ENDBRANCH   6   9
BRANCH   3  15
ATOM     14  C   UNL     1      43.346   2.728  11.708  0.00  0.00    +0.000 C 
ATOM     15  O   UNL     1      43.448   3.491  10.515  0.00  0.00    +0.000 OA
ENDBRANCH   3  15
ENDBRANCH   1   8
BRANCH   1  16
ATOM     16  C   UNL     1      44.798   5.951  11.038  0.00  0.00    +0.000 C 
BRANCH  16  17
ATOM     17  C   UNL     1      46.031   5.966  11.910  0.00  0.00    +0.000 A 
ATOM     18  C   UNL     1      46.306   5.004  12.881  0.00  0.00    +0.000 A 
ATOM     19  N   UNL     1      47.399   5.040  13.692  0.00  0.00    +0.000 NA
ATOM     20  C   UNL     1      48.257   6.058  13.522  0.00  0.00    +0.000 A 
ATOM     21  C   UNL     1      48.084   7.079  12.590  0.00  0.00    +0.000 A 
ATOM     22  C   UNL     1      46.939   7.014  11.795  0.00  0.00    +0.000 A 
BRANCH  21  23
ATOM     23  C   UNL     1      49.115   8.172  12.429  0.00  0.00    +0.000 C 
ATOM     24  C   UNL     1      48.487   9.461  11.875  0.00  0.00    +0.000 C 
ATOM     25  C   UNL     1      49.537  10.544  11.645  0.00  0.00    +0.000 C 
ATOM     26  C   UNL     1      50.662  10.043  10.743  0.00  0.00    +0.000 C 
ATOM     27  C   UNL     1      51.312   8.787  11.314  0.00  0.00    +0.000 C 
ATOM     28  C   UNL     1      50.283   7.686  11.551  0.00  0.00    +0.000 C 
ENDBRANCH  21  23
ENDBRANCH  16  17
ENDBRANCH   1  16
TORSDOF 6
ENDMDL
MODEL 4
REMARK VINA RESULT:    -7.264      3.011      7.013
REMARK INTER + INTRA:         -10.968
REMARK INTER:                 -10.514
REMARK INTRA:                  -0.454
REMARK UNBOUND:                -1.156
REMARK  Name = 
REMARK  7 active torsions:
REMARK  status: ('A' for Active; 'I' for Inactive)
REMARK    1  A    between atoms: C_1  and  O_2
REMARK    2  A    between atoms: O_2  and  C_3
REMARK    3  A    between atoms: C_6  and  C_7
REMARK    4  A    between atoms: C_11  and  N_12
REMARK    5  A    between atoms: N_12  and  C_13
REMARK    6  A    between atoms: C_13  and  C_14
REMARK    7  A    between atoms: C_18  and  C_19
REMARK                            x       y       z     vdW  Elec       q    Type
REMARK                         _______ _______ _______ _____ _____    ______ ____
ROOT
ATOM      1  N   UNL     1      44.697   5.588   9.997  0.00  0.00    +0.000 N 
ATOM      2  H   UNL     1      45.366   6.253   9.625  0.00  0.00    +0.000 HD
ENDROOT
BRANCH   1   8
ATOM      3  C   UNL     1      44.347   3.085   9.952  0.00  0.00    +0.000 A 
ATOM      4  C   UNL     1      44.730   1.853   9.407  0.00  0.00    +0.000 A 
ATOM      5  C   UNL     1      45.687   1.791   8.397  0.00  0.00    +0.000 A 
ATOM      6  C   UNL     1      46.261   2.960   7.889  0.00  0.00    +0.000 A 
ATOM      7  C   UNL     1      45.879   4.191   8.439  0.00  0.00    +0.000 A 
ATOM      8  C   UNL     1      44.977   4.281   9.520  0.00  0.00    +0.000 A 
BRANCH   6   9
ATOM      9  C   UNL     1      47.262   2.838   6.791  0.00  0.00    +0.000 C 
ATOM     10  N   UNL     1      47.068   3.551   5.637  0.00  0.00    +0.000 N 
ATOM     11  O   UNL     1      48.256   2.131   6.909  0.00  0.00    +0.000 OA
ATOM     12  H   UNL     1      46.305   4.179   5.455  0.00  0.00    +0.000 HD
ATOM     13  H   UNL     1      47.793   3.478   4.933  0.00  0.00    +0.000 HD
ENDBRANCH   6   9
BRANCH   3  15
ATOM     14  C   UNL     1      43.413   2.589  12.091  0.00  0.00    +0.000 C 
ATOM     15  O   UNL     1      43.288   3.194  10.813  0.00  0.00    +0.000 OA
ENDBRANCH   3  15
ENDBRANCH   1   8
BRANCH   1  16
ATOM     16  C   UNL     1      44.515   5.763  11.440  0.00  0.00    +0.000 C 
BRANCH  16  17
ATOM     17  C   UNL     1      45.816   5.964  12.179  0.00  0.00    +0.000 A 
ATOM     18  C   UNL     1      46.890   6.694  11.672  0.00  0.00    +0.000 A 
ATOM     19  N   UNL     1      48.077   6.843  12.323  0.00  0.00    +0.000 NA
ATOM     20  C   UNL     1      48.195   6.260  13.526  0.00  0.00    +0.000 A 
ATOM     21  C   UNL     1      47.194   5.501  14.129  0.00  0.00    +0.000 A 
ATOM     22  C   UNL     1      46.002   5.357  13.417  0.00  0.00    +0.000 A 
BRANCH  21  23
ATOM     23  C   UNL     1      47.386   4.908  15.506  0.00  0.00    +0.000 C 
ATOM     24  C   UNL     1      48.470   5.657  16.296  0.00  0.00    +0.000 C 
ATOM     25  C   UNL     1      48.715   5.016  17.659  0.00  0.00    +0.000 C 
ATOM     26  C   UNL     1      49.051   3.534  17.524  0.00  0.00    +0.000 C 
ATOM     27  C   UNL     1      47.955   2.784  16.775  0.00  0.00    +0.000 C 
ATOM     28  C   UNL     1      47.692   3.402  15.406  0.00  0.00    +0.000 C 
ENDBRANCH  21  23
ENDBRANCH  16  17
ENDBRANCH   1  16
TORSDOF 6
ENDMDL
MODEL 5
REMARK VINA RESULT:    -7.225      1.829      2.566
REMARK INTER + INTRA:         -10.915
REMARK INTER:                 -10.015
REMARK INTRA:                  -0.900
REMARK UNBOUND:                -1.156
REMARK  Name = 
REMARK  7 active torsions:
REMARK  status: ('A' for Active; 'I' for Inactive)
REMARK    1  A    between atoms: C_1  and  O_2
REMARK    2  A    between atoms: O_2  and  C_3
REMARK    3  A    between atoms: C_6  and  C_7
REMARK    4  A    between atoms: C_11  and  N_12
REMARK    5  A    between atoms: N_12  and  C_13
REMARK    6  A    between atoms: C_13  and  C_14
REMARK    7  A    between atoms: C_18  and  C_19
REMARK                            x       y       z     vdW  Elec       q    Type
REMARK                         _______ _______ _______ _____ _____    ______ ____
ROOT
ATOM      1  N   UNL     1      44.973   6.943  12.510  0.00  0.00    +0.000 N 
ATOM      2  H   UNL     1      45.339   6.079  12.894  0.00  0.00    +0.000 HD
ENDROOT
BRANCH   1   8
ATOM      3  C   UNL     1      45.861   9.299  12.285  0.00  0.00    +0.000 A 
ATOM      4  C   UNL     1      46.978  10.122  12.089  0.00  0.00    +0.000 A 
ATOM      5  C   UNL     1      48.256   9.574  11.999  0.00  0.00    +0.000 A 
ATOM      6  C   UNL     1      48.449   8.196  12.131  0.00  0.00    +0.000 A 
ATOM      7  C   UNL     1      47.330   7.375  12.322  0.00  0.00    +0.000 A 
ATOM      8  C   UNL     1      46.016   7.889  12.333  0.00  0.00    +0.000 A 
BRANCH   6   9
ATOM      9  C   UNL     1      49.840   7.665  12.050  0.00  0.00    +0.000 C 
ATOM     10  N   UNL     1      50.580   7.573  13.200  0.00  0.00    +0.000 N 
ATOM     11  O   UNL     1      50.322   7.298  10.986  0.00  0.00    +0.000 OA
ATOM     12  H   UNL     1      50.267   7.819  14.123  0.00  0.00    +0.000 HD
ATOM     13  H   UNL     1      51.503   7.165  13.111  0.00  0.00    +0.000 HD
ENDBRANCH   6   9
BRANCH   3  15
ATOM     14  C   UNL     1      43.939  10.475  11.500  0.00  0.00    +0.000 C 
ATOM     15  O   UNL     1      44.624   9.817  12.555  0.00  0.00    +0.000 OA
ENDBRANCH   3  15
ENDBRANCH   1   8
BRANCH   1  16
ATOM     16  C   UNL     1      44.083   6.689  11.374  0.00  0.00    +0.000 C 
BRANCH  16  17
ATOM     17  C   UNL     1      44.003   5.228  11.003  0.00  0.00    +0.000 A 
ATOM     18  C   UNL     1      43.317   4.273  11.752  0.00  0.00    +0.000 A 
ATOM     19  N   UNL     1      43.277   2.949  11.436  0.00  0.00    +0.000 NA
ATOM     20  C   UNL     1      43.930   2.563  10.328  0.00  0.00    +0.000 A 
ATOM     21  C   UNL     1      44.654   3.424   9.507  0.00  0.00    +0.000 A 
ATOM     22  C   UNL     1      44.685   4.769   9.880  0.00  0.00    +0.000 A 
BRANCH  21  23
ATOM     23  C   UNL     1      45.330   2.921   8.252  0.00  0.00    +0.000 C 
ATOM     24  C   UNL     1      46.095   1.613   8.510  0.00  0.00    +0.000 C 
ATOM     25  C   UNL     1      46.836   1.141   7.262  0.00  0.00    +0.000 C 
ATOM     26  C   UNL     1      47.761   2.228   6.721  0.00  0.00    +0.000 C 
ATOM     27  C   UNL     1      46.994   3.512   6.428  0.00  0.00    +0.000 C 
ATOM     28  C   UNL     1      46.246   4.009   7.661  0.00  0.00    +0.000 C 
ENDBRANCH  21  23
ENDBRANCH  16  17
ENDBRANCH   1  16
TORSDOF 6
ENDMDL
MODEL 6
REMARK VINA RESULT:    -7.008      2.669      4.273
REMARK INTER + INTRA:         -10.622
REMARK INTER:                  -9.755
REMARK INTRA:                  -0.867
REMARK UNBOUND:                -1.156
REMARK  Name = 
REMARK  7 active torsions:
REMARK  status: ('A' for Active; 'I' for Inactive)
REMARK    1  A    between atoms: C_1  and  O_2
REMARK    2  A    between atoms: O_2  and  C_3
REMARK    3  A    between atoms: C_6  and  C_7
REMARK    4  A    between atoms: C_11  and  N_12
REMARK    5  A    between atoms: N_12  and  C_13
REMARK    6  A    between atoms: C_13  and  C_14
REMARK    7  A    between atoms: C_18  and  C_19
REMARK                            x       y       z     vdW  Elec       q    Type
REMARK                         _______ _______ _______ _____ _____    ______ ____
ROOT
ATOM      1  N   UNL     1      47.363   6.172  13.060  0.00  0.00    +0.000 N 
ATOM      2  H   UNL     1      48.036   6.556  12.405  0.00  0.00    +0.000 HD
ENDROOT
BRANCH   1   8
ATOM      3  C   UNL     1      48.817   7.023  14.944  0.00  0.00    +0.000 A 
ATOM      4  C   UNL     1      49.316   6.807  16.235  0.00  0.00    +0.000 A 
ATOM      5  C   UNL     1      48.902   5.705  16.981  0.00  0.00    +0.000 A 
ATOM      6  C   UNL     1      47.961   4.810  16.464  0.00  0.00    +0.000 A 
ATOM      7  C   UNL     1      47.467   5.027  15.170  0.00  0.00    +0.000 A 
ATOM      8  C   UNL     1      47.929   6.083  14.358  0.00  0.00    +0.000 A 
BRANCH   6   9
ATOM      9  C   UNL     1      47.536   3.661  17.313  0.00  0.00    +0.000 C 
ATOM     10  N   UNL     1      48.415   3.160  18.237  0.00  0.00    +0.000 N 
ATOM     11  O   UNL     1      46.417   3.172  17.209  0.00  0.00    +0.000 OA
ATOM     12  H   UNL     1      49.340   3.509  18.419  0.00  0.00    +0.000 HD
ATOM     13  H   UNL     1      48.072   2.410  18.826  0.00  0.00    +0.000 HD
ENDBRANCH   6   9
BRANCH   3  15
ATOM     14  C   UNL     1      49.933   9.131  14.864  0.00  0.00    +0.000 C 
ATOM     15  O   UNL     1      49.064   8.183  14.261  0.00  0.00    +0.000 OA
ENDBRANCH   3  15
ENDBRANCH   1   8
BRANCH   1  16
ATOM     16  C   UNL     1      46.057   6.823  12.928  0.00  0.00    +0.000 C 
BRANCH  16  17
ATOM     17  C   UNL     1      45.032   5.954  12.240  0.00  0.00    +0.000 A 
ATOM     18  C   UNL     1      43.727   5.783  12.698  0.00  0.00    +0.000 A 
ATOM     19  N   UNL     1      42.814   4.970  12.097  0.00  0.00    +0.000 NA
ATOM     20  C   UNL     1      43.208   4.315  10.993  0.00  0.00    +0.000 A 
ATOM     21  C   UNL     1      44.488   4.402  10.448  0.00  0.00    +0.000 A 
ATOM     22  C   UNL     1      45.397   5.230  11.108  0.00  0.00    +0.000 A 
BRANCH  21  23
ATOM     23  C   UNL     1      44.847   3.665   9.178  0.00  0.00    +0.000 C 
ATOM     24  C   UNL     1      45.360   2.247   9.476  0.00  0.00    +0.000 C 
ATOM     25  C   UNL     1      45.790   1.526   8.202  0.00  0.00    +0.000 C 
ATOM     26  C   UNL     1      46.822   2.338   7.425  0.00  0.00    +0.000 C 
ATOM     27  C   UNL     1      46.296   3.731   7.094  0.00  0.00    +0.000 C 
ATOM     28  C   UNL     1      45.863   4.476   8.353  0.00  0.00    +0.000 C 
ENDBRANCH  21  23
ENDBRANCH  16  17
ENDBRANCH   1  16
TORSDOF 6
ENDMDL
MODEL 7
REMARK VINA RESULT:    -6.620      4.587      8.820
REMARK INTER + INTRA:         -10.097
REMARK INTER:                  -9.346
REMARK INTRA:                  -0.751
REMARK UNBOUND:                -1.156
REMARK  Name = 
REMARK  7 active torsions:
REMARK  status: ('A' for Active; 'I' for Inactive)
REMARK    1  A    between atoms: C_1  and  O_2
REMARK    2  A    between atoms: O_2  and  C_3
REMARK    3  A    between atoms: C_6  and  C_7
REMARK    4  A    between atoms: C_11  and  N_12
REMARK    5  A    between atoms: N_12  and  C_13
REMARK    6  A    between atoms: C_13  and  C_14
REMARK    7  A    between atoms: C_18  and  C_19
REMARK                            x       y       z     vdW  Elec       q    Type
REMARK                         _______ _______ _______ _____ _____    ______ ____
ROOT
ATOM      1  N   UNL     1      46.203   4.667  14.672  0.00  0.00    +0.000 N 
ATOM      2  H   UNL     1      46.252   5.454  15.310  0.00  0.00    +0.000 HD
ENDROOT
BRANCH   1   8
ATOM      3  C   UNL     1      46.847   6.186  12.757  0.00  0.00    +0.000 A 
ATOM      4  C   UNL     1      46.642   6.543  11.417  0.00  0.00    +0.000 A 
ATOM      5  C   UNL     1      45.756   5.823  10.619  0.00  0.00    +0.000 A 
ATOM      6  C   UNL     1      45.077   4.715  11.132  0.00  0.00    +0.000 A 
ATOM      7  C   UNL     1      45.280   4.363  12.473  0.00  0.00    +0.000 A 
ATOM      8  C   UNL     1      46.104   5.121  13.330  0.00  0.00    +0.000 A 
BRANCH   6   9
ATOM      9  C   UNL     1      44.158   3.966  10.227  0.00  0.00    +0.000 C 
ATOM     10  N   UNL     1      44.016   4.389   8.932  0.00  0.00    +0.000 N 
ATOM     11  O   UNL     1      43.547   2.977  10.615  0.00  0.00    +0.000 OA
ATOM     12  H   UNL     1      44.493   5.166   8.510  0.00  0.00    +0.000 HD
ATOM     13  H   UNL     1      43.418   3.827   8.337  0.00  0.00    +0.000 HD
ENDBRANCH   6   9
BRANCH   3  15
ATOM     14  C   UNL     1      49.051   7.095  12.857  0.00  0.00    +0.000 C 
ATOM     15  O   UNL     1      47.837   6.756  13.511  0.00  0.00    +0.000 OA
ENDBRANCH   3  15
ENDBRANCH   1   8
BRANCH   1  16
ATOM     16  C   UNL     1      47.226   3.665  14.979  0.00  0.00    +0.000 C 
BRANCH  16  17
ATOM     17  C   UNL     1      47.752   3.773  16.391  0.00  0.00    +0.000 A 
ATOM     18  C   UNL     1      48.641   2.862  16.958  0.00  0.00    +0.000 A 
ATOM     19  N   UNL     1      49.085   2.940  18.244  0.00  0.00    +0.000 NA
ATOM     20  C   UNL     1      48.641   3.966  18.986  0.00  0.00    +0.000 A 
ATOM     21  C   UNL     1      47.747   4.932  18.529  0.00  0.00    +0.000 A 
ATOM     22  C   UNL     1      47.302   4.802  17.212  0.00  0.00    +0.000 A 
BRANCH  21  23
ATOM     23  C   UNL     1      47.323   6.084  19.411  0.00  0.00    +0.000 C 
ATOM     24  C   UNL     1      47.829   7.427  18.864  0.00  0.00    +0.000 C 
ATOM     25  C   UNL     1      47.463   8.585  19.789  0.00  0.00    +0.000 C 
ATOM     26  C   UNL     1      47.964   8.339  21.210  0.00  0.00    +0.000 C 
ATOM     27  C   UNL     1      47.428   7.025  21.767  0.00  0.00    +0.000 C 
ATOM     28  C   UNL     1      47.784   5.850  20.861  0.00  0.00    +0.000 C 
ENDBRANCH  21  23
ENDBRANCH  16  17
ENDBRANCH   1  16
TORSDOF 6
ENDMDL
MODEL 8
REMARK VINA RESULT:    -6.574      3.432      5.581
REMARK INTER + INTRA:         -10.036
REMARK INTER:                  -9.232
REMARK INTRA:                  -0.805
REMARK UNBOUND:                -1.156
REMARK  Name = 
REMARK  7 active torsions:
REMARK  status: ('A' for Active; 'I' for Inactive)
REMARK    1  A    between atoms: C_1  and  O_2
REMARK    2  A    between atoms: O_2  and  C_3
REMARK    3  A    between atoms: C_6  and  C_7
REMARK    4  A    between atoms: C_11  and  N_12
REMARK    5  A    between atoms: N_12  and  C_13
REMARK    6  A    between atoms: C_13  and  C_14
REMARK    7  A    between atoms: C_18  and  C_19
REMARK                            x       y       z     vdW  Elec       q    Type
REMARK                         _______ _______ _______ _____ _____    ______ ____
ROOT
ATOM      1  N   UNL     1      48.252   7.149  14.937  0.00  0.00    +0.000 N 
ATOM      2  H   UNL     1      47.289   7.310  15.211  0.00  0.00    +0.000 HD
ENDROOT
BRANCH   1   8
ATOM      3  C   UNL     1      50.242   6.427  16.318  0.00  0.00    +0.000 A 
ATOM      4  C   UNL     1      50.764   5.509  17.238  0.00  0.00    +0.000 A 
ATOM      5  C   UNL     1      49.962   4.502  17.770  0.00  0.00    +0.000 A 
ATOM      6  C   UNL     1      48.614   4.407  17.417  0.00  0.00    +0.000 A 
ATOM      7  C   UNL     1      48.094   5.324  16.493  0.00  0.00    +0.000 A 
ATOM      8  C   UNL     1      48.900   6.301  15.872  0.00  0.00    +0.000 A 
BRANCH   6   9
ATOM      9  C   UNL     1      47.794   3.325  18.034  0.00  0.00    +0.000 C 
ATOM     10  N   UNL     1      48.172   2.821  19.251  0.00  0.00    +0.000 N 
ATOM     11  O   UNL     1      46.787   2.895  17.483  0.00  0.00    +0.000 OA
ATOM     12  H   UNL     1      48.960   3.125  19.794  0.00  0.00    +0.000 HD
ATOM     13  H   UNL     1      47.564   2.120  19.657  0.00  0.00    +0.000 HD
ENDBRANCH   6   9
BRANCH   3  15
ATOM     14  C   UNL     1      51.040   8.618  16.822  0.00  0.00    +0.000 C 
ATOM     15  O   UNL     1      50.949   7.528  15.918  0.00  0.00    +0.000 OA
ENDBRANCH   3  15
ENDBRANCH   1   8
BRANCH   1  16
ATOM     16  C   UNL     1      48.352   6.800  13.517  0.00  0.00    +0.000 C 
BRANCH  16  17
ATOM     17  C   UNL     1      47.055   6.997  12.769  0.00  0.00    +0.000 A 
ATOM     18  C   UNL     1      46.270   8.145  12.867  0.00  0.00    +0.000 A 
ATOM     19  N   UNL     1      45.082   8.306  12.220  0.00  0.00    +0.000 NA
ATOM     20  C   UNL     1      44.668   7.297  11.437  0.00  0.00    +0.000 A 
ATOM     21  C   UNL     1      45.363   6.102  11.268  0.00  0.00    +0.000 A 
ATOM     22  C   UNL     1      46.565   5.972  11.966  0.00  0.00    +0.000 A 
BRANCH  21  23
ATOM     23  C   UNL     1      44.853   5.026  10.337  0.00  0.00    +0.000 C 
ATOM     24  C   UNL     1      44.756   3.667  11.047  0.00  0.00    +0.000 C 
ATOM     25  C   UNL     1      44.309   2.565  10.091  0.00  0.00    +0.000 C 
ATOM     26  C   UNL     1      45.217   2.488   8.867  0.00  0.00    +0.000 C 
ATOM     27  C   UNL     1      45.281   3.827   8.140  0.00  0.00    +0.000 C 
ATOM     28  C   UNL     1      45.730   4.947   9.074  0.00  0.00    +0.000 C 
ENDBRANCH  21  23
ENDBRANCH  16  17
ENDBRANCH   1  16
TORSDOF 6
ENDMDL
MODEL 9
REMARK VINA RESULT:    -6.400      4.701      8.463
REMARK INTER + INTRA:          -9.801
REMARK INTER:                  -8.962
REMARK INTRA:                  -0.839
REMARK UNBOUND:                -1.156
REMARK  Name = 
REMARK  7 active torsions:
REMARK  status: ('A' for Active; 'I' for Inactive)
REMARK    1  A    between atoms: C_1  and  O_2
REMARK    2  A    between atoms: O_2  and  C_3
REMARK    3  A    between atoms: C_6  and  C_7
REMARK    4  A    between atoms: C_11  and  N_12
REMARK    5  A    between atoms: N_12  and  C_13
REMARK    6  A    between atoms: C_13  and  C_14
REMARK    7  A    between atoms: C_18  and  C_19
REMARK                            x       y       z     vdW  Elec       q    Type
REMARK                         _______ _______ _______ _____ _____    ______ ____
ROOT
ATOM      1  N   UNL     1      47.377   3.418  14.733  0.00  0.00    +0.000 N 
ATOM      2  H   UNL     1      47.244   2.415  14.665  0.00  0.00    +0.000 HD
ENDROOT
BRANCH   1   8
ATOM      3  C   UNL     1      47.120   5.359  13.135  0.00  0.00    +0.000 A 
ATOM      4  C   UNL     1      46.431   5.900  12.041  0.00  0.00    +0.000 A 
ATOM      5  C   UNL     1      45.442   5.165  11.391  0.00  0.00    +0.000 A 
ATOM      6  C   UNL     1      45.140   3.864  11.801  0.00  0.00    +0.000 A 
ATOM      7  C   UNL     1      45.827   3.327  12.898  0.00  0.00    +0.000 A 
ATOM      8  C   UNL     1      46.773   4.075  13.630  0.00  0.00    +0.000 A 
BRANCH   6   9
ATOM      9  C   UNL     1      44.090   3.112  11.055  0.00  0.00    +0.000 C 
ATOM     10  N   UNL     1      44.471   2.279  10.036  0.00  0.00    +0.000 N 
ATOM     11  O   UNL     1      42.904   3.214  11.348  0.00  0.00    +0.000 OA
ATOM     12  H   UNL     1      45.415   2.105   9.740  0.00  0.00    +0.000 HD
ATOM     13  H   UNL     1      43.733   1.752   9.584  0.00  0.00    +0.000 HD
ENDBRANCH   6   9
BRANCH   3  15
ATOM     14  C   UNL     1      48.112   7.371  13.950  0.00  0.00    +0.000 C 
ATOM     15  O   UNL     1      48.212   5.981  13.677  0.00  0.00    +0.000 OA
ENDBRANCH   3  15
ENDBRANCH   1   8
BRANCH   1  16
ATOM     16  C   UNL     1      47.058   3.909  16.076  0.00  0.00    +0.000 C 
BRANCH  16  17
ATOM     17  C   UNL     1      48.270   4.414  16.823  0.00  0.00    +0.000 A 
ATOM     18  C   UNL     1      48.433   5.736  17.233  0.00  0.00    +0.000 A 
ATOM     19  N   UNL     1      49.543   6.197  17.873  0.00  0.00    +0.000 NA
ATOM     20  C   UNL     1      50.518   5.310  18.128  0.00  0.00    +0.000 A 
ATOM     21  C   UNL     1      50.469   3.968  17.760  0.00  0.00    +0.000 A 
ATOM     22  C   UNL     1      49.322   3.543  17.087  0.00  0.00    +0.000 A 
BRANCH  21  23
ATOM     23  C   UNL     1      51.590   3.019  18.118  0.00  0.00    +0.000 C 
ATOM     24  C   UNL     1      52.967   3.651  17.861  0.00  0.00    +0.000 C 
ATOM     25  C   UNL     1      54.099   2.671  18.154  0.00  0.00    +0.000 C 
ATOM     26  C   UNL     1      53.928   1.374  17.368  0.00  0.00    +0.000 C 
ATOM     27  C   UNL     1      52.578   0.726  17.655  0.00  0.00    +0.000 C 
ATOM     28  C   UNL     1      51.428   1.685  17.366  0.00  0.00    +0.000 C 
ENDBRANCH  21  23
ENDBRANCH  16  17
ENDBRANCH   1  16
TORSDOF 6
ENDMDL
