MODEL 1
REMARK VINA RESULT:    -8.025      0.000      0.000
REMARK INTER + INTRA:         -12.105
REMARK INTER:                 -10.839
REMARK INTRA:                  -1.266
REMARK UNBOUND:                -1.266
REMARK  Name = 
REMARK  7 active torsions:
REMARK  status: ('A' for Active; 'I' for Inactive)
REMARK    1  A    between atoms: C_1  and  C_2
REMARK    2  A    between atoms: C_2  and  N_3
REMARK    3  A    between atoms: C_2  and  C_16
REMARK    4  A    between atoms: C_4  and  C_6
REMARK    5  A    between atoms: C_19  and  C_20
REMARK    6  A    between atoms: C_20  and  N_21
REMARK    7  A    between atoms: C_22  and  C_24
REMARK                            x       y       z     vdW  Elec       q    Type
REMARK                         _______ _______ _______ _____ _____    ______ ____
ROOT
ATOM      1  C   UNL     1      48.080   8.324  13.717  0.00  0.00    +0.000 C 
ATOM      2  C   UNL     1      48.193   6.866  14.192  0.00  0.00    +0.000 C 
ENDROOT
BRANCH   2   3
ATOM      3  C   UNL     1      47.172   6.002  13.461  0.00  0.00    +0.000 A 
ATOM      4  C   UNL     1      46.962   4.672  13.853  0.00  0.00    +0.000 A 
ATOM      5  C   UNL     1      46.086   3.845  13.139  0.00  0.00    +0.000 A 
ATOM      6  C   UNL     1      45.406   4.325  12.012  0.00  0.00    +0.000 A 
ATOM      7  C   UNL     1      45.576   5.666  11.649  0.00  0.00    +0.000 A 
ATOM      8  C   UNL     1      46.449   6.494  12.364  0.00  0.00    +0.000 A 
BRANCH   6   9
ATOM      9  C   UNL     1      44.500   3.423  11.216  0.00  0.00    +0.000 C 
BRANCH   9  10
ATOM     10  N   UNL     1      45.214   2.773  10.143  0.00  0.00    +0.000 N 
ATOM     11  C   UNL     1      45.154   3.269   8.857  0.00  0.00    +0.000 C 
ATOM     12  O   UNL     1      44.506   4.256   8.537  0.00  0.00    +0.000 OA
ATOM     13  H   UNL     1      45.938   2.115  10.395  0.00  0.00    +0.000 HD
BRANCH  11  14
ATOM     14  C   UNL     1      45.968   2.547   7.850  0.00  0.00    +0.000 A 
ATOM     15  C   UNL     1      46.464   3.168   6.701  0.00  0.00    +0.000 A 
ATOM     16  C   UNL     1      47.210   2.423   5.789  0.00  0.00    +0.000 A 
ATOM     17  C   UNL     1      47.436   1.083   6.061  0.00  0.00    +0.000 A 
ATOM     18  N   UNL     1      46.989   0.458   7.173  0.00  0.00    +0.000 NA
ATOM     19  C   UNL     1      46.272   1.207   8.051  0.00  0.00    +0.000 A 
ENDBRANCH  11  14
ENDBRANCH   9  10
ENDBRANCH   6   9
ENDBRANCH   2   3
BRANCH   2  20
ATOM     20  N   UNL     1      48.041   6.734  15.634  0.00  0.00    +0.000 N 
ATOM     21  C   UNL     1      49.097   6.371  16.439  0.00  0.00    +0.000 C 
ATOM     22  O   UNL     1      50.231   6.201  16.001  0.00  0.00    +0.000 OA
ATOM     23  H   UNL     1      47.100   6.566  15.980  0.00  0.00    +0.000 HD
BRANCH  21  24
ATOM     24  C   UNL     1      48.831   6.240  17.874  0.00  0.00    +0.000 A 
ATOM     25  C   UNL     1      49.114   5.040  18.513  0.00  0.00    +0.000 A 
ATOM     26  S   UNL     1      48.705   5.031  20.167  0.00  0.00    +0.000 S 
ATOM     27  C   UNL     1      48.102   6.619  20.079  0.00  0.00    +0.000 A 
ATOM     28  N   UNL     1      47.533   7.210  21.164  0.00  0.00    +0.000 NA
ATOM     29  C   UNL     1      47.085   8.401  20.946  0.00  0.00    +0.000 A 
ATOM     30  N   UNL     1      47.173   9.062  19.746  0.00  0.00    +0.000 N 
ATOM     31  C   UNL     1      47.784   8.522  18.638  0.00  0.00    +0.000 A 
ATOM     32  O   UNL     1      47.930   9.168  17.606  0.00  0.00    +0.000 OA
ATOM     33  C   UNL     1      48.257   7.165  18.817  0.00  0.00    +0.000 A 
ATOM     34  H   UNL     1      46.827  10.005  19.652  0.00  0.00    +0.000 HD
ENDBRANCH  21  24
ENDBRANCH   2  20
TORSDOF 6
ENDMDL
MODEL 2
REMARK VINA RESULT:    -8.016      3.783      6.598
REMARK INTER + INTRA:         -12.093
REMARK INTER:                 -10.892
REMARK INTRA:                  -1.201
REMARK UNBOUND:                -1.266
REMARK  Name = 
REMARK  7 active torsions:
REMARK  status: ('A' for Active; 'I' for Inactive)
REMARK    1  A    between atoms: C_1  and  C_2
REMARK    2  A    between atoms: C_2  and  N_3
REMARK    3  A    between atoms: C_2  and  C_16
REMARK    4  A    between atoms: C_4  and  C_6
REMARK    5  A    between atoms: C_19  and  C_20
REMARK    6  A    between atoms: C_20  and  N_21
REMARK    7  A    between atoms: C_22  and  C_24
REMARK                            x       y       z     vdW  Elec       q    Type
REMARK                         _______ _______ _______ _____ _____    ______ ____
ROOT
ATOM      1  C   UNL     1      43.999   2.495  11.096  0.00  0.00    +0.000 C 
ATOM      2  C   UNL     1      44.252   3.662  10.128  0.00  0.00    +0.000 C 
ENDROOT
BRANCH   2   3
ATOM      3  C   UNL     1      45.097   3.187   8.952  0.00  0.00    +0.000 A 
ATOM      4  C   UNL     1      45.481   1.842   8.854  0.00  0.00    +0.000 A 
ATOM      5  C   UNL     1      46.323   1.411   7.822  0.00  0.00    +0.000 A 
ATOM      6  C   UNL     1      46.808   2.315   6.868  0.00  0.00    +0.000 A 
ATOM      7  C   UNL     1      46.386   3.648   6.934  0.00  0.00    +0.000 A 
ATOM      8  C   UNL     1      45.542   4.079   7.964  0.00  0.00    +0.000 A 
BRANCH   6   9
ATOM      9  C   UNL     1      47.751   1.862   5.785  0.00  0.00    +0.000 C 
BRANCH   9  10
ATOM     10  N   UNL     1      47.531   0.478   5.439  0.00  0.00    +0.000 N 
ATOM     11  C   UNL     1      46.934   0.139   4.242  0.00  0.00    +0.000 C 
ATOM     12  O   UNL     1      46.549   0.957   3.417  0.00  0.00    +0.000 OA
ATOM     13  H   UNL     1      48.037  -0.221   5.964  0.00  0.00    +0.000 HD
BRANCH  11  14
ATOM     14  C   UNL     1      46.806  -1.313   3.974  0.00  0.00    +0.000 A 
ATOM     15  C   UNL     1      46.567  -2.246   4.986  0.00  0.00    +0.000 A 
ATOM     16  C   UNL     1      46.474  -3.598   4.662  0.00  0.00    +0.000 A 
ATOM     17  C   UNL     1      46.617  -3.969   3.334  0.00  0.00    +0.000 A 
ATOM     18  N   UNL     1      46.827  -3.091   2.329  0.00  0.00    +0.000 NA
ATOM     19  C   UNL     1      46.906  -1.778   2.669  0.00  0.00    +0.000 A 
ENDBRANCH  11  14
ENDBRANCH   9  10
ENDBRANCH   6   9
ENDBRANCH   2   3
BRANCH   2  20
ATOM     20  N   UNL     1      44.875   4.805  10.781  0.00  0.00    +0.000 N 
ATOM     21  C   UNL     1      44.135   5.885  11.203  0.00  0.00    +0.000 C 
ATOM     22  O   UNL     1      42.911   5.921  11.113  0.00  0.00    +0.000 OA
ATOM     23  H   UNL     1      45.866   4.949  10.602  0.00  0.00    +0.000 HD
BRANCH  21  24
ATOM     24  C   UNL     1      44.862   6.995  11.825  0.00  0.00    +0.000 A 
ATOM     25  C   UNL     1      44.575   8.299  11.441  0.00  0.00    +0.000 A 
ATOM     26  S   UNL     1      45.537   9.471  12.218  0.00  0.00    +0.000 S 
ATOM     27  C   UNL     1      46.397   8.274  13.068  0.00  0.00    +0.000 A 
ATOM     28  N   UNL     1      47.431   8.607  13.887  0.00  0.00    +0.000 NA
ATOM     29  C   UNL     1      48.018   7.599  14.439  0.00  0.00    +0.000 A 
ATOM     30  N   UNL     1      47.650   6.288  14.263  0.00  0.00    +0.000 N 
ATOM     31  C   UNL     1      46.581   5.909  13.485  0.00  0.00    +0.000 A 
ATOM     32  O   UNL     1      46.219   4.740  13.416  0.00  0.00    +0.000 OA
ATOM     33  C   UNL     1      45.922   7.002  12.800  0.00  0.00    +0.000 A 
ATOM     34  H   UNL     1      48.135   5.549  14.748  0.00  0.00    +0.000 HD
ENDBRANCH  21  24
ENDBRANCH   2  20
TORSDOF 6
ENDMDL
MODEL 3
REMARK VINA RESULT:    -7.978      1.540      2.126
REMARK INTER + INTRA:         -12.042
REMARK INTER:                 -10.936
REMARK INTRA:                  -1.106
REMARK UNBOUND:                -1.266
REMARK  Name = 
REMARK  7 active torsions:
REMARK  status: ('A' for Active; 'I' for Inactive)
REMARK    1  A    between atoms: C_1  and  C_2
REMARK    2  A    between atoms: C_2  and  N_3
REMARK    3  A    between atoms: C_2  and  C_16
REMARK    4  A    between atoms: C_4  and  C_6
REMARK    5  A    between atoms: C_19  and  C_20
REMARK    6  A    between atoms: C_20  and  N_21
REMARK    7  A    between atoms: C_22  and  C_24
REMARK                            x       y       z     vdW  Elec       q    Type
REMARK                         _______ _______ _______ _____ _____    ______ ____
ROOT
ATOM      1  C   UNL     1      47.267   9.178  12.963  0.00  0.00    +0.000 C 
ATOM      2  C   UNL     1      47.729   7.794  13.448  0.00  0.00    +0.000 C 
ENDROOT
BRANCH   2   3
ATOM      3  C   UNL     1      46.800   6.716  12.902  0.00  0.00    +0.000 A 
ATOM      4  C   UNL     1      46.902   5.395  13.362  0.00  0.00    +0.000 A 
ATOM      5  C   UNL     1      46.109   4.382  12.810  0.00  0.00    +0.000 A 
ATOM      6  C   UNL     1      45.201   4.662  11.781  0.00  0.00    +0.000 A 
ATOM      7  C   UNL     1      45.062   5.989  11.355  0.00  0.00    +0.000 A 
ATOM      8  C   UNL     1      45.851   7.002  11.908  0.00  0.00    +0.000 A 
BRANCH   6   9
ATOM      9  C   UNL     1      44.382   3.565  11.154  0.00  0.00    +0.000 C 
BRANCH   9  10
ATOM     10  N   UNL     1      45.120   2.880  10.121  0.00  0.00    +0.000 N 
ATOM     11  C   UNL     1      45.029   3.285   8.805  0.00  0.00    +0.000 C 
ATOM     12  O   UNL     1      44.331   4.216   8.427  0.00  0.00    +0.000 OA
ATOM     13  H   UNL     1      45.877   2.276  10.410  0.00  0.00    +0.000 HD
BRANCH  11  14
ATOM     14  C   UNL     1      45.871   2.538   7.841  0.00  0.00    +0.000 A 
ATOM     15  C   UNL     1      46.341   3.108   6.656  0.00  0.00    +0.000 A 
ATOM     16  C   UNL     1      47.116   2.342   5.787  0.00  0.00    +0.000 A 
ATOM     17  C   UNL     1      47.398   1.031   6.139  0.00  0.00    +0.000 A 
ATOM     18  N   UNL     1      46.977   0.456   7.287  0.00  0.00    +0.000 NA
ATOM     19  C   UNL     1      46.231   1.226   8.121  0.00  0.00    +0.000 A 
ENDBRANCH  11  14
ENDBRANCH   9  10
ENDBRANCH   6   9
ENDBRANCH   2   3
BRANCH   2  20
ATOM     20  N   UNL     1      47.818   7.711  14.899  0.00  0.00    +0.000 N 
ATOM     21  C   UNL     1      48.947   7.235  15.525  0.00  0.00    +0.000 C 
ATOM     22  O   UNL     1      49.959   6.916  14.907  0.00  0.00    +0.000 OA
ATOM     23  H   UNL     1      46.939   7.669  15.408  0.00  0.00    +0.000 HD
BRANCH  21  24
ATOM     24  C   UNL     1      48.924   7.167  16.989  0.00  0.00    +0.000 A 
ATOM     25  C   UNL     1      49.061   8.336  17.727  0.00  0.00    +0.000 A 
ATOM     26  S   UNL     1      49.064   8.086  19.413  0.00  0.00    +0.000 S 
ATOM     27  C   UNL     1      48.919   6.403  19.214  0.00  0.00    +0.000 A 
ATOM     28  N   UNL     1      48.923   5.571  20.290  0.00  0.00    +0.000 NA
ATOM     29  C   UNL     1      48.844   4.317  19.992  0.00  0.00    +0.000 A 
ATOM     30  N   UNL     1      48.738   3.821  18.717  0.00  0.00    +0.000 N 
ATOM     31  C   UNL     1      48.680   4.628  17.604  0.00  0.00    +0.000 A 
ATOM     32  O   UNL     1      48.496   4.164  16.483  0.00  0.00    +0.000 OA
ATOM     33  C   UNL     1      48.819   6.042  17.882  0.00  0.00    +0.000 A 
ATOM     34  H   UNL     1      48.651   2.829  18.556  0.00  0.00    +0.000 HD
ENDBRANCH  21  24
ENDBRANCH   2  20
TORSDOF 6
ENDMDL
MODEL 4
REMARK VINA RESULT:    -7.613      3.002      4.515
REMARK INTER + INTRA:         -11.550
REMARK INTER:                 -10.292
REMARK INTRA:                  -1.258
REMARK UNBOUND:                -1.266
REMARK  Name = 
REMARK  7 active torsions:
REMARK  status: ('A' for Active; 'I' for Inactive)
REMARK    1  A    between atoms: C_1  and  C_2
REMARK    2  A    between atoms: C_2  and  N_3
REMARK    3  A    between atoms: C_2  and  C_16
REMARK    4  A    between atoms: C_4  and  C_6
REMARK    5  A    between atoms: C_19  and  C_20
REMARK    6  A    between atoms: C_20  and  N_21
REMARK    7  A    between atoms: C_22  and  C_24
REMARK                            x       y       z     vdW  Elec       q    Type
REMARK                         _______ _______ _______ _____ _____    ______ ____
ROOT
ATOM      1  C   UNL     1      47.359   4.165  15.737  0.00  0.00    +0.000 C 
ATOM      2  C   UNL     1      47.219   5.423  14.865  0.00  0.00    +0.000 C 
ENDROOT
BRANCH   2   3
ATOM      3  C   UNL     1      46.430   5.094  13.603  0.00  0.00    +0.000 A 
ATOM      4  C   UNL     1      45.925   6.124  12.797  0.00  0.00    +0.000 A 
ATOM      5  C   UNL     1      45.130   5.836  11.680  0.00  0.00    +0.000 A 
ATOM      6  C   UNL     1      44.815   4.512  11.348  0.00  0.00    +0.000 A 
ATOM      7  C   UNL     1      45.359   3.480  12.122  0.00  0.00    +0.000 A 
ATOM      8  C   UNL     1      46.155   3.768  13.236  0.00  0.00    +0.000 A 
BRANCH   6   9
ATOM      9  C   UNL     1      43.922   4.202  10.176  0.00  0.00    +0.000 C 
BRANCH   9  10
ATOM     10  N   UNL     1      44.593   3.367   9.208  0.00  0.00    +0.000 N 
ATOM     11  C   UNL     1      45.548   3.895   8.365  0.00  0.00    +0.000 C 
ATOM     12  O   UNL     1      45.880   5.074   8.365  0.00  0.00    +0.000 OA
ATOM     13  H   UNL     1      44.530   2.366   9.332  0.00  0.00    +0.000 HD
BRANCH  11  14
ATOM     14  C   UNL     1      46.204   2.932   7.449  0.00  0.00    +0.000 A 
ATOM     15  C   UNL     1      46.571   3.267   6.144  0.00  0.00    +0.000 A 
ATOM     16  C   UNL     1      47.171   2.305   5.333  0.00  0.00    +0.000 A 
ATOM     17  C   UNL     1      47.387   1.041   5.860  0.00  0.00    +0.000 A 
ATOM     18  N   UNL     1      47.064   0.691   7.125  0.00  0.00    +0.000 NA
ATOM     19  C   UNL     1      46.488   1.649   7.898  0.00  0.00    +0.000 A 
ENDBRANCH  11  14
ENDBRANCH   9  10
ENDBRANCH   6   9
ENDBRANCH   2   3
BRANCH   2  20
ATOM     20  N   UNL     1      48.506   6.015  14.527  0.00  0.00    +0.000 N 
ATOM     21  C   UNL     1      49.038   7.049  15.263  0.00  0.00    +0.000 C 
ATOM     22  O   UNL     1      48.497   7.485  16.275  0.00  0.00    +0.000 OA
ATOM     23  H   UNL     1      48.822   5.904  13.567  0.00  0.00    +0.000 HD
BRANCH  21  24
ATOM     24  C   UNL     1      50.327   7.591  14.823  0.00  0.00    +0.000 A 
ATOM     25  C   UNL     1      51.381   7.660  15.725  0.00  0.00    +0.000 A 
ATOM     26  S   UNL     1      52.794   8.358  15.077  0.00  0.00    +0.000 S 
ATOM     27  C   UNL     1      52.035   8.625  13.579  0.00  0.00    +0.000 A 
ATOM     28  N   UNL     1      52.689   9.261  12.569  0.00  0.00    +0.000 NA
ATOM     29  C   UNL     1      51.982   9.431  11.502  0.00  0.00    +0.000 A 
ATOM     30  N   UNL     1      50.688   9.002  11.346  0.00  0.00    +0.000 N 
ATOM     31  C   UNL     1      50.006   8.312  12.320  0.00  0.00    +0.000 A 
ATOM     32  O   UNL     1      48.882   7.862  12.122  0.00  0.00    +0.000 OA
ATOM     33  C   UNL     1      50.738   8.143  13.558  0.00  0.00    +0.000 A 
ATOM     34  H   UNL     1      50.202   9.143  10.473  0.00  0.00    +0.000 HD
ENDBRANCH  21  24
ENDBRANCH   2  20
TORSDOF 6
ENDMDL
MODEL 5
REMARK VINA RESULT:    -7.330      2.641      3.691
REMARK INTER + INTRA:         -11.167
REMARK INTER:                 -10.242
REMARK INTRA:                  -0.925
REMARK UNBOUND:                -1.266
REMARK  Name = 
REMARK  7 active torsions:
REMARK  status: ('A' for Active; 'I' for Inactive)
REMARK    1  A    between atoms: C_1  and  C_2
REMARK    2  A    between atoms: C_2  and  N_3
REMARK    3  A    between atoms: C_2  and  C_16
REMARK    4  A    between atoms: C_4  and  C_6
REMARK    5  A    between atoms: C_19  and  C_20
REMARK    6  A    between atoms: C_20  and  N_21
REMARK    7  A    between atoms: C_22  and  C_24
REMARK                            x       y       z     vdW  Elec       q    Type
REMARK                         _______ _______ _______ _____ _____    ______ ____
ROOT
ATOM      1  C   UNL     1      47.707   3.355  15.621  0.00  0.00    +0.000 C 
ATOM      2  C   UNL     1      47.069   4.707  15.263  0.00  0.00    +0.000 C 
ENDROOT
BRANCH   2   3
ATOM      3  C   UNL     1      46.361   4.606  13.917  0.00  0.00    +0.000 A 
ATOM      4  C   UNL     1      45.834   5.754  13.307  0.00  0.00    +0.000 A 
ATOM      5  C   UNL     1      45.112   5.662  12.111  0.00  0.00    +0.000 A 
ATOM      6  C   UNL     1      44.893   4.420  11.500  0.00  0.00    +0.000 A 
ATOM      7  C   UNL     1      45.460   3.280  12.080  0.00  0.00    +0.000 A 
ATOM      8  C   UNL     1      46.184   3.371  13.274  0.00  0.00    +0.000 A 
BRANCH   6   9
ATOM      9  C   UNL     1      44.077   4.315  10.239  0.00  0.00    +0.000 C 
BRANCH   9  10
ATOM     10  N   UNL     1      44.710   3.449   9.272  0.00  0.00    +0.000 N 
ATOM     11  C   UNL     1      45.622   3.953   8.368  0.00  0.00    +0.000 C 
ATOM     12  O   UNL     1      45.943   5.133   8.312  0.00  0.00    +0.000 OA
ATOM     13  H   UNL     1      44.660   2.453   9.434  0.00  0.00    +0.000 HD
BRANCH  11  14
ATOM     14  C   UNL     1      46.243   2.962   7.458  0.00  0.00    +0.000 A 
ATOM     15  C   UNL     1      46.616   3.275   6.149  0.00  0.00    +0.000 A 
ATOM     16  C   UNL     1      47.181   2.287   5.344  0.00  0.00    +0.000 A 
ATOM     17  C   UNL     1      47.359   1.022   5.881  0.00  0.00    +0.000 A 
ATOM     18  N   UNL     1      47.030   0.692   7.150  0.00  0.00    +0.000 NA
ATOM     19  C   UNL     1      46.488   1.674   7.917  0.00  0.00    +0.000 A 
ENDBRANCH  11  14
ENDBRANCH   9  10
ENDBRANCH   6   9
ENDBRANCH   2   3
BRANCH   2  20
ATOM     20  N   UNL     1      48.034   5.798  15.257  0.00  0.00    +0.000 N 
ATOM     21  C   UNL     1      48.500   6.353  16.426  0.00  0.00    +0.000 C 
ATOM     22  O   UNL     1      48.184   5.924  17.532  0.00  0.00    +0.000 OA
ATOM     23  H   UNL     1      48.080   6.361  14.411  0.00  0.00    +0.000 HD
BRANCH  21  24
ATOM     24  C   UNL     1      49.450   7.464  16.309  0.00  0.00    +0.000 A 
ATOM     25  C   UNL     1      48.970   8.751  16.103  0.00  0.00    +0.000 A 
ATOM     26  S   UNL     1      50.198   9.922  15.939  0.00  0.00    +0.000 S 
ATOM     27  C   UNL     1      51.413   8.743  16.101  0.00  0.00    +0.000 A 
ATOM     28  N   UNL     1      52.728   9.077  15.993  0.00  0.00    +0.000 NA
ATOM     29  C   UNL     1      53.540   8.079  16.099  0.00  0.00    +0.000 A 
ATOM     30  N   UNL     1      53.158   6.781  16.325  0.00  0.00    +0.000 N 
ATOM     31  C   UNL     1      51.845   6.406  16.491  0.00  0.00    +0.000 A 
ATOM     32  O   UNL     1      51.536   5.254  16.781  0.00  0.00    +0.000 OA
ATOM     33  C   UNL     1      50.890   7.482  16.327  0.00  0.00    +0.000 A 
ATOM     34  H   UNL     1      53.848   6.052  16.426  0.00  0.00    +0.000 HD
ENDBRANCH  21  24
ENDBRANCH   2  20
TORSDOF 6
ENDMDL
MODEL 6
REMARK VINA RESULT:    -7.142      3.823      5.921
REMARK INTER + INTRA:         -10.914
REMARK INTER:                  -9.749
REMARK INTRA:                  -1.164
REMARK UNBOUND:                -1.266
REMARK  Name = 
REMARK  7 active torsions:
REMARK  status: ('A' for Active; 'I' for Inactive)
REMARK    1  A    between atoms: C_1  and  C_2
REMARK    2  A    between atoms: C_2  and  N_3
REMARK    3  A    between atoms: C_2  and  C_16
REMARK    4  A    between atoms: C_4  and  C_6
REMARK    5  A    between atoms: C_19  and  C_20
REMARK    6  A    between atoms: C_20  and  N_21
REMARK    7  A    between atoms: C_22  and  C_24
REMARK                            x       y       z     vdW  Elec       q    Type
REMARK                         _______ _______ _______ _____ _____    ______ ____
ROOT
ATOM      1  C   UNL     1      48.528   6.667  14.821  0.00  0.00    +0.000 C 
ATOM      2  C   UNL     1      47.593   7.348  13.808  0.00  0.00    +0.000 C 
ENDROOT
BRANCH   2   3
ATOM      3  C   UNL     1      46.693   6.307  13.152  0.00  0.00    +0.000 A 
ATOM      4  C   UNL     1      46.710   4.977  13.595  0.00  0.00    +0.000 A 
ATOM      5  C   UNL     1      45.948   3.997  12.948  0.00  0.00    +0.000 A 
ATOM      6  C   UNL     1      45.157   4.321  11.838  0.00  0.00    +0.000 A 
ATOM      7  C   UNL     1      45.099   5.658  11.426  0.00  0.00    +0.000 A 
ATOM      8  C   UNL     1      45.858   6.638  12.074  0.00  0.00    +0.000 A 
BRANCH   6   9
ATOM      9  C   UNL     1      44.373   3.259  11.113  0.00  0.00    +0.000 C 
BRANCH   9  10
ATOM     10  N   UNL     1      45.143   2.677  10.039  0.00  0.00    +0.000 N 
ATOM     11  C   UNL     1      45.100   3.218   8.770  0.00  0.00    +0.000 C 
ATOM     12  O   UNL     1      44.422   4.191   8.467  0.00  0.00    +0.000 OA
ATOM     13  H   UNL     1      45.885   2.039  10.289  0.00  0.00    +0.000 HD
BRANCH  11  14
ATOM     14  C   UNL     1      45.970   2.567   7.763  0.00  0.00    +0.000 A 
ATOM     15  C   UNL     1      46.364   3.206   6.585  0.00  0.00    +0.000 A 
ATOM     16  C   UNL     1      47.171   2.526   5.675  0.00  0.00    +0.000 A 
ATOM     17  C   UNL     1      47.560   1.231   5.978  0.00  0.00    +0.000 A 
ATOM     18  N   UNL     1      47.215   0.592   7.117  0.00  0.00    +0.000 NA
ATOM     19  C   UNL     1      46.435   1.278   7.993  0.00  0.00    +0.000 A 
ENDBRANCH  11  14
ENDBRANCH   9  10
ENDBRANCH   6   9
ENDBRANCH   2   3
BRANCH   2  20
ATOM     20  N   UNL     1      48.319   8.109  12.801  0.00  0.00    +0.000 N 
ATOM     21  C   UNL     1      48.558   9.456  12.950  0.00  0.00    +0.000 C 
ATOM     22  O   UNL     1      48.235  10.075  13.960  0.00  0.00    +0.000 OA
ATOM     23  H   UNL     1      48.328   7.726  11.859  0.00  0.00    +0.000 HD
BRANCH  21  24
ATOM     24  C   UNL     1      49.275  10.134  11.866  0.00  0.00    +0.000 A 
ATOM     25  C   UNL     1      48.640  11.147  11.159  0.00  0.00    +0.000 A 
ATOM     26  S   UNL     1      49.585  11.801   9.901  0.00  0.00    +0.000 S 
ATOM     27  C   UNL     1      50.862  10.727  10.234  0.00  0.00    +0.000 A 
ATOM     28  N   UNL     1      51.984  10.717   9.465  0.00  0.00    +0.000 NA
ATOM     29  C   UNL     1      52.855   9.828   9.806  0.00  0.00    +0.000 A 
ATOM     30  N   UNL     1      52.715   8.962  10.862  0.00  0.00    +0.000 N 
ATOM     31  C   UNL     1      51.622   8.971  11.696  0.00  0.00    +0.000 A 
ATOM     32  O   UNL     1      51.562   8.248  12.686  0.00  0.00    +0.000 OA
ATOM     33  C   UNL     1      50.591   9.916  11.322  0.00  0.00    +0.000 A 
ATOM     34  H   UNL     1      53.449   8.310  11.092  0.00  0.00    +0.000 HD
ENDBRANCH  21  24
ENDBRANCH   2  20
TORSDOF 6
ENDMDL
MODEL 7
REMARK VINA RESULT:    -7.000      3.964      9.080
REMARK INTER + INTRA:         -10.722
REMARK INTER:                  -9.703
REMARK INTRA:                  -1.019
REMARK UNBOUND:                -1.266
REMARK  Name = 
REMARK  7 active torsions:
REMARK  status: ('A' for Active; 'I' for Inactive)
REMARK    1  A    between atoms: C_1  and  C_2
REMARK    2  A    between atoms: C_2  and  N_3
REMARK    3  A    between atoms: C_2  and  C_16
REMARK    4  A    between atoms: C_4  and  C_6
REMARK    5  A    between atoms: C_19  and  C_20
REMARK    6  A    between atoms: C_20  and  N_21
REMARK    7  A    between atoms: C_22  and  C_24
REMARK                            x       y       z     vdW  Elec       q    Type
REMARK                         _______ _______ _______ _____ _____    ______ ____
ROOT
ATOM      1  C   UNL     1      49.872   8.083  11.495  0.00  0.00    +0.000 C 
ATOM      2  C   UNL     1      48.627   7.687  12.305  0.00  0.00    +0.000 C 
ENDROOT
BRANCH   2   3
ATOM      3  C   UNL     1      49.036   7.262  13.711  0.00  0.00    +0.000 A 
ATOM      4  C   UNL     1      48.175   6.478  14.491  0.00  0.00    +0.000 A 
ATOM      5  C   UNL     1      48.505   6.149  15.812  0.00  0.00    +0.000 A 
ATOM      6  C   UNL     1      49.699   6.603  16.386  0.00  0.00    +0.000 A 
ATOM      7  C   UNL     1      50.583   7.345  15.593  0.00  0.00    +0.000 A 
ATOM      8  C   UNL     1      50.256   7.671  14.273  0.00  0.00    +0.000 A 
BRANCH   6   9
ATOM      9  C   UNL     1      50.033   6.290  17.821  0.00  0.00    +0.000 C 
BRANCH   9  10
ATOM     10  N   UNL     1      51.000   5.223  17.917  0.00  0.00    +0.000 N 
ATOM     11  C   UNL     1      50.605   3.905  17.815  0.00  0.00    +0.000 C 
ATOM     12  O   UNL     1      49.444   3.553  17.652  0.00  0.00    +0.000 OA
ATOM     13  H   UNL     1      51.975   5.466  17.810  0.00  0.00    +0.000 HD
BRANCH  11  14
ATOM     14  C   UNL     1      51.692   2.900  17.878  0.00  0.00    +0.000 A 
ATOM     15  C   UNL     1      51.532   1.590  17.420  0.00  0.00    +0.000 A 
ATOM     16  C   UNL     1      52.593   0.694  17.524  0.00  0.00    +0.000 A 
ATOM     17  C   UNL     1      53.782   1.142  18.080  0.00  0.00    +0.000 A 
ATOM     18  N   UNL     1      53.977   2.407  18.512  0.00  0.00    +0.000 NA
ATOM     19  C   UNL     1      52.930   3.264  18.391  0.00  0.00    +0.000 A 
ENDBRANCH  11  14
ENDBRANCH   9  10
ENDBRANCH   6   9
ENDBRANCH   2   3
BRANCH   2  20
ATOM     20  N   UNL     1      47.847   6.641  11.658  0.00  0.00    +0.000 N 
ATOM     21  C   UNL     1      46.487   6.757  11.490  0.00  0.00    +0.000 C 
ATOM     22  O   UNL     1      45.866   7.765  11.814  0.00  0.00    +0.000 OA
ATOM     23  H   UNL     1      48.249   5.707  11.658  0.00  0.00    +0.000 HD
BRANCH  21  24
ATOM     24  C   UNL     1      45.793   5.636  10.849  0.00  0.00    +0.000 A 
ATOM     25  C   UNL     1      45.804   5.529   9.464  0.00  0.00    +0.000 A 
ATOM     26  S   UNL     1      44.913   4.203   8.872  0.00  0.00    +0.000 S 
ATOM     27  C   UNL     1      44.451   3.747  10.443  0.00  0.00    +0.000 A 
ATOM     28  N   UNL     1      43.613   2.694  10.646  0.00  0.00    +0.000 NA
ATOM     29  C   UNL     1      43.316   2.482  11.884  0.00  0.00    +0.000 A 
ATOM     30  N   UNL     1      43.799   3.214  12.940  0.00  0.00    +0.000 N 
ATOM     31  C   UNL     1      44.687   4.253  12.786  0.00  0.00    +0.000 A 
ATOM     32  O   UNL     1      45.172   4.832  13.752  0.00  0.00    +0.000 OA
ATOM     33  C   UNL     1      45.010   4.564  11.409  0.00  0.00    +0.000 A 
ATOM     34  H   UNL     1      43.548   2.976  13.888  0.00  0.00    +0.000 HD
ENDBRANCH  21  24
ENDBRANCH   2  20
TORSDOF 6
ENDMDL
MODEL 8
REMARK VINA RESULT:    -6.995      3.520      9.380
REMARK INTER + INTRA:         -10.715
REMARK INTER:                  -9.529
REMARK INTRA:                  -1.186
REMARK UNBOUND:                -1.266
REMARK  Name = 
REMARK  7 active torsions:
REMARK  status: ('A' for Active; 'I' for Inactive)
REMARK    1  A    between atoms: C_1  and  C_2
REMARK    2  A    between atoms: C_2  and  N_3
REMARK    3  A    between atoms: C_2  and  C_16
REMARK    4  A    between atoms: C_4  and  C_6
REMARK    5  A    between atoms: C_19  and  C_20
REMARK    6  A    between atoms: C_20  and  N_21
REMARK    7  A    between atoms: C_22  and  C_24
REMARK                            x       y       z     vdW  Elec       q    Type
REMARK                         _______ _______ _______ _____ _____    ______ ____
ROOT
ATOM      1  C   UNL     1      48.511   8.198  11.394  0.00  0.00    +0.000 C 
ATOM      2  C   UNL     1      47.684   7.600  12.544  0.00  0.00    +0.000 C 
ENDROOT
BRANCH   2   3
ATOM      3  C   UNL     1      48.588   7.303  13.734  0.00  0.00    +0.000 A 
ATOM      4  C   UNL     1      48.131   6.498  14.787  0.00  0.00    +0.000 A 
ATOM      5  C   UNL     1      48.922   6.284  15.922  0.00  0.00    +0.000 A 
ATOM      6  C   UNL     1      50.187   6.876  16.035  0.00  0.00    +0.000 A 
ATOM      7  C   UNL     1      50.667   7.639  14.964  0.00  0.00    +0.000 A 
ATOM      8  C   UNL     1      49.877   7.851  13.828  0.00  0.00    +0.000 A 
BRANCH   6   9
ATOM      9  C   UNL     1      51.020   6.685  17.275  0.00  0.00    +0.000 C 
BRANCH   9  10
ATOM     10  N   UNL     1      51.649   5.386  17.293  0.00  0.00    +0.000 N 
ATOM     11  C   UNL     1      51.167   4.383  18.109  0.00  0.00    +0.000 C 
ATOM     12  O   UNL     1      50.211   4.518  18.861  0.00  0.00    +0.000 OA
ATOM     13  H   UNL     1      52.273   5.159  16.532  0.00  0.00    +0.000 HD
BRANCH  11  14
ATOM     14  C   UNL     1      51.862   3.079  18.006  0.00  0.00    +0.000 A 
ATOM     15  C   UNL     1      53.150   2.871  18.505  0.00  0.00    +0.000 A 
ATOM     16  C   UNL     1      53.748   1.621  18.359  0.00  0.00    +0.000 A 
ATOM     17  C   UNL     1      53.033   0.619  17.721  0.00  0.00    +0.000 A 
ATOM     18  N   UNL     1      51.778   0.780  17.246  0.00  0.00    +0.000 NA
ATOM     19  C   UNL     1      51.214   2.005  17.409  0.00  0.00    +0.000 A 
ENDBRANCH  11  14
ENDBRANCH   9  10
ENDBRANCH   6   9
ENDBRANCH   2   3
BRANCH   2  20
ATOM     20  N   UNL     1      46.950   6.408  12.144  0.00  0.00    +0.000 N 
ATOM     21  C   UNL     1      45.581   6.332  12.259  0.00  0.00    +0.000 C 
ATOM     22  O   UNL     1      44.898   7.279  12.640  0.00  0.00    +0.000 OA
ATOM     23  H   UNL     1      47.474   5.536  12.122  0.00  0.00    +0.000 HD
BRANCH  21  24
ATOM     24  C   UNL     1      44.943   5.077  11.853  0.00  0.00    +0.000 A 
ATOM     25  C   UNL     1      44.220   4.347  12.788  0.00  0.00    +0.000 A 
ATOM     26  S   UNL     1      43.582   2.890  12.175  0.00  0.00    +0.000 S 
ATOM     27  C   UNL     1      44.279   3.167  10.649  0.00  0.00    +0.000 A 
ATOM     28  N   UNL     1      44.163   2.250   9.652  0.00  0.00    +0.000 NA
ATOM     29  C   UNL     1      44.772   2.571   8.560  0.00  0.00    +0.000 A 
ATOM     30  N   UNL     1      45.468   3.738   8.367  0.00  0.00    +0.000 N 
ATOM     31  C   UNL     1      45.569   4.716   9.330  0.00  0.00    +0.000 A 
ATOM     32  O   UNL     1      46.121   5.787   9.102  0.00  0.00    +0.000 OA
ATOM     33  C   UNL     1      44.947   4.378  10.593  0.00  0.00    +0.000 A 
ATOM     34  H   UNL     1      45.897   3.940   7.477  0.00  0.00    +0.000 HD
ENDBRANCH  21  24
ENDBRANCH   2  20
TORSDOF 6
ENDMDL
MODEL 9
REMARK VINA RESULT:    -6.957      2.417      3.123
REMARK INTER + INTRA:         -10.663
REMARK INTER:                  -9.605
REMARK INTRA:                  -1.058
REMARK UNBOUND:                -1.266
REMARK  Name = 
REMARK  7 active torsions:
REMARK  status: ('A' for Active; 'I' for Inactive)
REMARK    1  A    between atoms: C_1  and  C_2
REMARK    2  A    between atoms: C_2  and  N_3
REMARK    3  A    between atoms: C_2  and  C_16
REMARK    4  A    between atoms: C_4  and  C_6
REMARK    5  A    between atoms: C_19  and  C_20
REMARK    6  A    between atoms: C_20  and  N_21
REMARK    7  A    between atoms: C_22  and  C_24
REMARK                            x       y       z     vdW  Elec       q    Type
REMARK                         _______ _______ _______ _____ _____    ______ ____
ROOT
ATOM      1  C   UNL     1      47.752   3.354  15.753  0.00  0.00    +0.000 C 
ATOM      2  C   UNL     1      47.178   4.746  15.445  0.00  0.00    +0.000 C 
ENDROOT
BRANCH   2   3
ATOM      3  C   UNL     1      46.577   4.761  14.044  0.00  0.00    +0.000 A 
ATOM      4  C   UNL     1      46.570   5.943  13.290  0.00  0.00    +0.000 A 
ATOM      5  C   UNL     1      45.949   5.989  12.036  0.00  0.00    +0.000 A 
ATOM      6  C   UNL     1      45.314   4.857  11.509  0.00  0.00    +0.000 A 
ATOM      7  C   UNL     1      45.362   3.662  12.238  0.00  0.00    +0.000 A 
ATOM      8  C   UNL     1      45.985   3.615  13.490  0.00  0.00    +0.000 A 
BRANCH   6   9
ATOM      9  C   UNL     1      44.605   4.917  10.182  0.00  0.00    +0.000 C 
BRANCH   9  10
ATOM     10  N   UNL     1      45.404   4.335   9.130  0.00  0.00    +0.000 N 
ATOM     11  C   UNL     1      45.215   3.022   8.749  0.00  0.00    +0.000 C 
ATOM     12  O   UNL     1      44.393   2.275   9.264  0.00  0.00    +0.000 OA
ATOM     13  H   UNL     1      45.914   4.965   8.528  0.00  0.00    +0.000 HD
BRANCH  11  14
ATOM     14  C   UNL     1      46.059   2.549   7.626  0.00  0.00    +0.000 A 
ATOM     15  C   UNL     1      46.295   3.323   6.488  0.00  0.00    +0.000 A 
ATOM     16  C   UNL     1      47.087   2.808   5.463  0.00  0.00    +0.000 A 
ATOM     17  C   UNL     1      47.619   1.537   5.616  0.00  0.00    +0.000 A 
ATOM     18  N   UNL     1      47.427   0.772   6.714  0.00  0.00    +0.000 NA
ATOM     19  C   UNL     1      46.659   1.299   7.702  0.00  0.00    +0.000 A 
ENDBRANCH  11  14
ENDBRANCH   9  10
ENDBRANCH   6   9
ENDBRANCH   2   3
BRANCH   2  20
ATOM     20  N   UNL     1      48.168   5.804  15.591  0.00  0.00    +0.000 N 
ATOM     21  C   UNL     1      48.504   6.311  16.826  0.00  0.00    +0.000 C 
ATOM     22  O   UNL     1      48.041   5.861  17.871  0.00  0.00    +0.000 OA
ATOM     23  H   UNL     1      48.334   6.389  14.776  0.00  0.00    +0.000 HD
BRANCH  21  24
ATOM     24  C   UNL     1      49.492   7.392  16.861  0.00  0.00    +0.000 A 
ATOM     25  C   UNL     1      50.624   7.255  17.654  0.00  0.00    +0.000 A 
ATOM     26  S   UNL     1      51.650   8.615  17.626  0.00  0.00    +0.000 S 
ATOM     27  C   UNL     1      50.600   9.449  16.579  0.00  0.00    +0.000 A 
ATOM     28  N   UNL     1      50.865  10.728  16.198  0.00  0.00    +0.000 NA
ATOM     29  C   UNL     1      49.965  11.251  15.434  0.00  0.00    +0.000 A 
ATOM     30  N   UNL     1      48.836  10.604  14.998  0.00  0.00    +0.000 N 
ATOM     31  C   UNL     1      48.554   9.296  15.317  0.00  0.00    +0.000 A 
ATOM     32  O   UNL     1      47.585   8.713  14.842  0.00  0.00    +0.000 OA
ATOM     33  C   UNL     1      49.507   8.681  16.218  0.00  0.00    +0.000 A 
ATOM     34  H   UNL     1      48.187  11.064  14.378  0.00  0.00    +0.000 HD
ENDBRANCH  21  24
ENDBRANCH   2  20
TORSDOF 6
ENDMDL
