MODEL 1
REMARK VINA RESULT:    -7.927      0.000      0.000
REMARK INTER + INTRA:         -12.056
REMARK INTER:                 -11.171
REMARK INTRA:                  -0.885
REMARK UNBOUND:                -0.885
REMARK  Name = 
REMARK  7 active torsions:
REMARK  status: ('A' for Active; 'I' for Inactive)
REMARK    1  A    between atoms: C_2  and  C_4
REMARK    2  A    between atoms: C_7  and  N_8
REMARK    3  A    between atoms: N_8  and  C_9
REMARK    4  A    between atoms: C_9  and  C_10
REMARK    5  A    between atoms: C_10  and  C_11
REMARK    6  A    between atoms: C_15  and  O_16
REMARK    7  A    between atoms: O_16  and  C_17
REMARK                            x       y       z     vdW  Elec       q    Type
REMARK                         _______ _______ _______ _____ _____    ______ ____
ROOT
ATOM      1  N   UNL     1      43.609   4.851  10.045  0.00  0.00    +0.000 N 
ATOM      2  H   UNL     1      43.980   5.799  10.032  0.00  0.00    +0.000 HD
ENDROOT
BRANCH   1   6
ATOM      3  C   UNL     1      46.096   2.094   8.159  0.00  0.00    +0.000 A 
ATOM      4  C   UNL     1      46.272   3.435   7.851  0.00  0.00    +0.000 A 
ATOM      5  C   UNL     1      45.424   4.374   8.448  0.00  0.00    +0.000 A 
ATOM      6  C   UNL     1      44.414   3.965   9.320  0.00  0.00    +0.000 A 
ATOM      7  C   UNL     1      44.352   2.587   9.574  0.00  0.00    +0.000 A 
ATOM      8  N   UNL     1      45.138   1.636   9.007  0.00  0.00    +0.000 NA
BRANCH   3  10
ATOM      9  N   UNL     1      48.017   1.567   6.772  0.00  0.00    +0.000 N 
ATOM     10  C   UNL     1      47.005   1.074   7.551  0.00  0.00    +0.000 C 
ATOM     11  O   UNL     1      46.864  -0.128   7.729  0.00  0.00    +0.000 OA
ATOM     12  H   UNL     1      48.677   0.928   6.352  0.00  0.00    +0.000 HD
ATOM     13  H   UNL     1      48.129   2.567   6.671  0.00  0.00    +0.000 HD
ENDBRANCH   3  10
ENDBRANCH   1   6
BRANCH   1  14
ATOM     14  C   UNL     1      43.122   4.457  11.372  0.00  0.00    +0.000 C 
BRANCH  14  15
ATOM     15  C   UNL     1      43.420   5.568  12.390  0.00  0.00    +0.000 C 
BRANCH  15  16
ATOM     16  C   UNL     1      44.896   5.698  12.671  0.00  0.00    +0.000 A 
ATOM     17  C   UNL     1      45.616   6.803  12.195  0.00  0.00    +0.000 A 
ATOM     18  C   UNL     1      46.975   6.938  12.487  0.00  0.00    +0.000 A 
ATOM     19  C   UNL     1      47.632   5.974  13.258  0.00  0.00    +0.000 A 
ATOM     20  C   UNL     1      46.932   4.864  13.724  0.00  0.00    +0.000 A 
ATOM     21  C   UNL     1      45.567   4.738  13.444  0.00  0.00    +0.000 A 
BRANCH  20  22
ATOM     22  O   UNL     1      47.463   3.869  14.511  0.00  0.00    +0.000 OA
BRANCH  22  23
ATOM     23  C   UNL     1      47.364   3.980  15.949  0.00  0.00    +0.000 C 
ATOM     24  C   UNL     1      48.266   5.032  16.635  0.00  0.00    +0.000 C 
ATOM     25  C   UNL     1      48.720   3.967  17.641  0.00  0.00    +0.000 C 
ATOM     26  C   UNL     1      48.145   2.887  16.717  0.00  0.00    +0.000 C 
ENDBRANCH  22  23
ENDBRANCH  20  22
ENDBRANCH  15  16
ENDBRANCH  14  15
ENDBRANCH   1  14
TORSDOF 7
ENDMDL
MODEL 2
REMARK VINA RESULT:    -7.045      2.856      7.435
REMARK INTER + INTRA:         -10.812
REMARK INTER:                 -10.033
REMARK INTRA:                  -0.780
REMARK UNBOUND:                -0.885
REMARK  Name = 
REMARK  7 active torsions:
REMARK  status: ('A' for Active; 'I' for Inactive)
REMARK    1  A    between atoms: C_2  and  C_4
REMARK    2  A    between atoms: C_7  and  N_8
REMARK    3  A    between atoms: N_8  and  C_9
REMARK    4  A    between atoms: C_9  and  C_10
REMARK    5  A    between atoms: C_10  and  C_11
REMARK    6  A    between atoms: C_15  and  O_16
REMARK    7  A    between atoms: O_16  and  C_17
REMARK                            x       y       z     vdW  Elec       q    Type
REMARK                         _______ _______ _______ _____ _____    ______ ____
ROOT
ATOM      1  N   UNL     1      47.005   6.095  12.530  0.00  0.00    +0.000 N 
ATOM      2  H   UNL     1      47.743   6.725  12.224  0.00  0.00    +0.000 HD
ENDROOT
BRANCH   1   6
ATOM      3  C   UNL     1      47.804   3.852  15.946  0.00  0.00    +0.000 A 
ATOM      4  C   UNL     1      48.096   5.207  15.984  0.00  0.00    +0.000 A 
ATOM      5  C   UNL     1      47.866   5.971  14.835  0.00  0.00    +0.000 A 
ATOM      6  C   UNL     1      47.371   5.376  13.674  0.00  0.00    +0.000 A 
ATOM      7  C   UNL     1      47.090   4.005  13.766  0.00  0.00    +0.000 A 
ATOM      8  N   UNL     1      47.312   3.217  14.850  0.00  0.00    +0.000 NA
BRANCH   3  10
ATOM      9  N   UNL     1      46.886   2.582  17.801  0.00  0.00    +0.000 N 
ATOM     10  C   UNL     1      48.020   3.018  17.170  0.00  0.00    +0.000 C 
ATOM     11  O   UNL     1      49.134   2.737  17.591  0.00  0.00    +0.000 OA
ATOM     12  H   UNL     1      46.967   1.996  18.619  0.00  0.00    +0.000 HD
ATOM     13  H   UNL     1      45.979   2.801  17.409  0.00  0.00    +0.000 HD
ENDBRANCH   3  10
ENDBRANCH   1   6
BRANCH   1  14
ATOM     14  C   UNL     1      45.676   6.716  12.468  0.00  0.00    +0.000 C 
BRANCH  14  15
ATOM     15  C   UNL     1      45.141   6.661  11.029  0.00  0.00    +0.000 C 
BRANCH  15  16
ATOM     16  C   UNL     1      44.866   5.248  10.579  0.00  0.00    +0.000 A 
ATOM     17  C   UNL     1      44.274   4.326  11.454  0.00  0.00    +0.000 A 
ATOM     18  C   UNL     1      43.989   3.029  11.024  0.00  0.00    +0.000 A 
ATOM     19  C   UNL     1      44.288   2.635   9.716  0.00  0.00    +0.000 A 
ATOM     20  C   UNL     1      44.889   3.537   8.842  0.00  0.00    +0.000 A 
ATOM     21  C   UNL     1      45.160   4.841   9.269  0.00  0.00    +0.000 A 
BRANCH  20  22
ATOM     22  O   UNL     1      45.203   3.273   7.529  0.00  0.00    +0.000 OA
BRANCH  22  23
ATOM     23  C   UNL     1      46.579   3.008   7.174  0.00  0.00    +0.000 C 
ATOM     24  C   UNL     1      46.898   2.850   5.669  0.00  0.00    +0.000 C 
ATOM     25  C   UNL     1      47.663   1.558   5.981  0.00  0.00    +0.000 C 
ATOM     26  C   UNL     1      47.004   1.532   7.365  0.00  0.00    +0.000 C 
ENDBRANCH  22  23
ENDBRANCH  20  22
ENDBRANCH  15  16
ENDBRANCH  14  15
ENDBRANCH   1  14
TORSDOF 7
ENDMDL
MODEL 3
REMARK VINA RESULT:    -6.961      3.011      5.111
REMARK INTER + INTRA:         -10.694
REMARK INTER:                  -9.863
REMARK INTRA:                  -0.831
REMARK UNBOUND:                -0.885
REMARK  Name = 
REMARK  7 active torsions:
REMARK  status: ('A' for Active; 'I' for Inactive)
REMARK    1  A    between atoms: C_2  and  C_4
REMARK    2  A    between atoms: C_7  and  N_8
REMARK    3  A    between atoms: N_8  and  C_9
REMARK    4  A    between atoms: C_9  and  C_10
REMARK    5  A    between atoms: C_10  and  C_11
REMARK    6  A    between atoms: C_15  and  O_16
REMARK    7  A    between atoms: O_16  and  C_17
REMARK                            x       y       z     vdW  Elec       q    Type
REMARK                         _______ _______ _______ _____ _____    ______ ____
ROOT
ATOM      1  N   UNL     1      43.849   3.830  10.285  0.00  0.00    +0.000 N 
ATOM      2  H   UNL     1      42.876   3.592  10.100  0.00  0.00    +0.000 HD
ENDROOT
BRANCH   1   6
ATOM      3  C   UNL     1      46.562   2.371   7.483  0.00  0.00    +0.000 A 
ATOM      4  C   UNL     1      46.252   3.722   7.436  0.00  0.00    +0.000 A 
ATOM      5  C   UNL     1      45.318   4.225   8.346  0.00  0.00    +0.000 A 
ATOM      6  C   UNL     1      44.700   3.380   9.270  0.00  0.00    +0.000 A 
ATOM      7  C   UNL     1      45.113   2.040   9.238  0.00  0.00    +0.000 A 
ATOM      8  N   UNL     1      46.002   1.500   8.364  0.00  0.00    +0.000 NA
BRANCH   3  10
ATOM      9  N   UNL     1      48.693   2.580   6.339  0.00  0.00    +0.000 N 
ATOM     10  C   UNL     1      47.576   1.813   6.535  0.00  0.00    +0.000 C 
ATOM     11  O   UNL     1      47.428   0.743   5.962  0.00  0.00    +0.000 OA
ATOM     12  H   UNL     1      49.423   2.247   5.727  0.00  0.00    +0.000 HD
ATOM     13  H   UNL     1      48.803   3.445   6.853  0.00  0.00    +0.000 HD
ENDBRANCH   3  10
ENDBRANCH   1   6
BRANCH   1  14
ATOM     14  C   UNL     1      44.004   5.197  10.798  0.00  0.00    +0.000 C 
BRANCH  14  15
ATOM     15  C   UNL     1      45.176   5.253  11.790  0.00  0.00    +0.000 C 
BRANCH  15  16
ATOM     16  C   UNL     1      45.723   6.650  11.943  0.00  0.00    +0.000 A 
ATOM     17  C   UNL     1      47.078   6.854  12.239  0.00  0.00    +0.000 A 
ATOM     18  C   UNL     1      47.589   8.148  12.346  0.00  0.00    +0.000 A 
ATOM     19  C   UNL     1      46.756   9.256  12.156  0.00  0.00    +0.000 A 
ATOM     20  C   UNL     1      45.405   9.067  11.877  0.00  0.00    +0.000 A 
ATOM     21  C   UNL     1      44.898   7.769  11.755  0.00  0.00    +0.000 A 
BRANCH  20  22
ATOM     22  O   UNL     1      44.499  10.075  11.646  0.00  0.00    +0.000 OA
BRANCH  22  23
ATOM     23  C   UNL     1      43.424   9.853  10.706  0.00  0.00    +0.000 C 
ATOM     24  C   UNL     1      43.469  10.658   9.386  0.00  0.00    +0.000 C 
ATOM     25  C   UNL     1      42.004  11.063   9.599  0.00  0.00    +0.000 C 
ATOM     26  C   UNL     1      42.118  10.605  11.058  0.00  0.00    +0.000 C 
ENDBRANCH  22  23
ENDBRANCH  20  22
ENDBRANCH  15  16
ENDBRANCH  14  15
ENDBRANCH   1  14
TORSDOF 7
ENDMDL
MODEL 4
REMARK VINA RESULT:    -6.921      2.163      3.936
REMARK INTER + INTRA:         -10.638
REMARK INTER:                  -9.687
REMARK INTRA:                  -0.951
REMARK UNBOUND:                -0.885
REMARK  Name = 
REMARK  7 active torsions:
REMARK  status: ('A' for Active; 'I' for Inactive)
REMARK    1  A    between atoms: C_2  and  C_4
REMARK    2  A    between atoms: C_7  and  N_8
REMARK    3  A    between atoms: N_8  and  C_9
REMARK    4  A    between atoms: C_9  and  C_10
REMARK    5  A    between atoms: C_10  and  C_11
REMARK    6  A    between atoms: C_15  and  O_16
REMARK    7  A    between atoms: O_16  and  C_17
REMARK                            x       y       z     vdW  Elec       q    Type
REMARK                         _______ _______ _______ _____ _____    ______ ____
ROOT
ATOM      1  N   UNL     1      43.972   3.294  10.794  0.00  0.00    +0.000 N 
ATOM      2  H   UNL     1      43.420   2.455  10.959  0.00  0.00    +0.000 HD
ENDROOT
BRANCH   1   6
ATOM      3  C   UNL     1      46.380   2.886   7.421  0.00  0.00    +0.000 A 
ATOM      4  C   UNL     1      45.994   4.167   7.785  0.00  0.00    +0.000 A 
ATOM      5  C   UNL     1      45.158   4.323   8.894  0.00  0.00    +0.000 A 
ATOM      6  C   UNL     1      44.710   3.210   9.608  0.00  0.00    +0.000 A 
ATOM      7  C   UNL     1      45.188   1.970   9.161  0.00  0.00    +0.000 A 
ATOM      8  N   UNL     1      45.986   1.765   8.080  0.00  0.00    +0.000 NA
BRANCH   3  10
ATOM      9  N   UNL     1      48.602   2.433   6.554  0.00  0.00    +0.000 N 
ATOM     10  C   UNL     1      47.293   2.695   6.251  0.00  0.00    +0.000 C 
ATOM     11  O   UNL     1      46.908   2.769   5.093  0.00  0.00    +0.000 OA
ATOM     12  H   UNL     1      49.262   2.273   5.807  0.00  0.00    +0.000 HD
ATOM     13  H   UNL     1      48.884   2.344   7.522  0.00  0.00    +0.000 HD
ENDBRANCH   3  10
ENDBRANCH   1   6
BRANCH   1  14
ATOM     14  C   UNL     1      43.226   4.524  11.089  0.00  0.00    +0.000 C 
BRANCH  14  15
ATOM     15  C   UNL     1      43.428   4.917  12.560  0.00  0.00    +0.000 C 
BRANCH  15  16
ATOM     16  C   UNL     1      44.838   5.378  12.835  0.00  0.00    +0.000 A 
ATOM     17  C   UNL     1      45.688   4.618  13.651  0.00  0.00    +0.000 A 
ATOM     18  C   UNL     1      47.003   5.028  13.875  0.00  0.00    +0.000 A 
ATOM     19  C   UNL     1      47.488   6.200  13.287  0.00  0.00    +0.000 A 
ATOM     20  C   UNL     1      46.650   6.972  12.486  0.00  0.00    +0.000 A 
ATOM     21  C   UNL     1      45.337   6.552  12.250  0.00  0.00    +0.000 A 
BRANCH  20  22
ATOM     22  O   UNL     1      47.022   8.125  11.836  0.00  0.00    +0.000 OA
BRANCH  22  23
ATOM     23  C   UNL     1      46.714   9.404  12.437  0.00  0.00    +0.000 C 
ATOM     24  C   UNL     1      45.479  10.156  11.891  0.00  0.00    +0.000 C 
ATOM     25  C   UNL     1      46.328  11.427  11.760  0.00  0.00    +0.000 C 
ATOM     26  C   UNL     1      47.589  10.569  11.916  0.00  0.00    +0.000 C 
ENDBRANCH  22  23
ENDBRANCH  20  22
ENDBRANCH  15  16
ENDBRANCH  14  15
ENDBRANCH   1  14
TORSDOF 7
ENDMDL
MODEL 5
REMARK VINA RESULT:    -6.425      3.954      8.480
REMARK INTER + INTRA:          -9.939
REMARK INTER:                  -9.279
REMARK INTRA:                  -0.660
REMARK UNBOUND:                -0.885
REMARK  Name = 
REMARK  7 active torsions:
REMARK  status: ('A' for Active; 'I' for Inactive)
REMARK    1  A    between atoms: C_2  and  C_4
REMARK    2  A    between atoms: C_7  and  N_8
REMARK    3  A    between atoms: N_8  and  C_9
REMARK    4  A    between atoms: C_9  and  C_10
REMARK    5  A    between atoms: C_10  and  C_11
REMARK    6  A    between atoms: C_15  and  O_16
REMARK    7  A    between atoms: O_16  and  C_17
REMARK                            x       y       z     vdW  Elec       q    Type
REMARK                         _______ _______ _______ _____ _____    ______ ____
ROOT
ATOM      1  N   UNL     1      46.730   4.526  14.874  0.00  0.00    +0.000 N 
ATOM      2  H   UNL     1      46.482   3.558  14.678  0.00  0.00    +0.000 HD
ENDROOT
BRANCH   1   6
ATOM      3  C   UNL     1      48.819   4.885  18.459  0.00  0.00    +0.000 A 
ATOM      4  C   UNL     1      49.124   5.780  17.444  0.00  0.00    +0.000 A 
ATOM      5  C   UNL     1      48.458   5.654  16.221  0.00  0.00    +0.000 A 
ATOM      6  C   UNL     1      47.520   4.640  16.024  0.00  0.00    +0.000 A 
ATOM      7  C   UNL     1      47.278   3.814  17.131  0.00  0.00    +0.000 A 
ATOM      8  N   UNL     1      47.910   3.883  18.331  0.00  0.00    +0.000 NA
BRANCH   3  10
ATOM      9  N   UNL     1      49.118   4.114  20.741  0.00  0.00    +0.000 N 
ATOM     10  C   UNL     1      49.502   5.013  19.784  0.00  0.00    +0.000 C 
ATOM     11  O   UNL     1      50.351   5.864  20.011  0.00  0.00    +0.000 OA
ATOM     12  H   UNL     1      49.559   4.136  21.649  0.00  0.00    +0.000 HD
ATOM     13  H   UNL     1      48.438   3.400  20.513  0.00  0.00    +0.000 HD
ENDBRANCH   3  10
ENDBRANCH   1   6
BRANCH   1  14
ATOM     14  C   UNL     1      47.114   5.264  13.664  0.00  0.00    +0.000 C 
BRANCH  14  15
ATOM     15  C   UNL     1      45.941   6.134  13.189  0.00  0.00    +0.000 C 
BRANCH  15  16
ATOM     16  C   UNL     1      45.160   5.475  12.079  0.00  0.00    +0.000 A 
ATOM     17  C   UNL     1      43.863   4.996  12.311  0.00  0.00    +0.000 A 
ATOM     18  C   UNL     1      43.129   4.419  11.273  0.00  0.00    +0.000 A 
ATOM     19  C   UNL     1      43.678   4.314   9.991  0.00  0.00    +0.000 A 
ATOM     20  C   UNL     1      44.971   4.773   9.752  0.00  0.00    +0.000 A 
ATOM     21  C   UNL     1      45.699   5.366  10.789  0.00  0.00    +0.000 A 
BRANCH  20  22
ATOM     22  O   UNL     1      45.603   4.748   8.531  0.00  0.00    +0.000 OA
BRANCH  22  23
ATOM     23  C   UNL     1      45.540   3.547   7.729  0.00  0.00    +0.000 C 
ATOM     24  C   UNL     1      46.054   2.242   8.380  0.00  0.00    +0.000 C 
ATOM     25  C   UNL     1      46.894   1.964   7.127  0.00  0.00    +0.000 C 
ATOM     26  C   UNL     1      46.685   3.421   6.696  0.00  0.00    +0.000 C 
ENDBRANCH  22  23
ENDBRANCH  20  22
ENDBRANCH  15  16
ENDBRANCH  14  15
ENDBRANCH   1  14
TORSDOF 7
ENDMDL
MODEL 6
REMARK VINA RESULT:    -6.378      2.645      4.152
REMARK INTER + INTRA:          -9.873
REMARK INTER:                  -8.724
REMARK INTRA:                  -1.148
REMARK UNBOUND:                -0.885
REMARK  Name = 
REMARK  7 active torsions:
REMARK  status: ('A' for Active; 'I' for Inactive)
REMARK    1  A    between atoms: C_2  and  C_4
REMARK    2  A    between atoms: C_7  and  N_8
REMARK    3  A    between atoms: N_8  and  C_9
REMARK    4  A    between atoms: C_9  and  C_10
REMARK    5  A    between atoms: C_10  and  C_11
REMARK    6  A    between atoms: C_15  and  O_16
REMARK    7  A    between atoms: O_16  and  C_17
REMARK                            x       y       z     vdW  Elec       q    Type
REMARK                         _______ _______ _______ _____ _____    ______ ____
ROOT
ATOM      1  N   UNL     1      45.209   7.903  13.009  0.00  0.00    +0.000 N 
ATOM      2  H   UNL     1      44.339   8.398  13.192  0.00  0.00    +0.000 HD
ENDROOT
BRANCH   1   6
ATOM      3  C   UNL     1      44.237   4.107  11.601  0.00  0.00    +0.000 A 
ATOM      4  C   UNL     1      44.977   4.189  12.771  0.00  0.00    +0.000 A 
ATOM      5  C   UNL     1      45.342   5.453  13.242  0.00  0.00    +0.000 A 
ATOM      6  C   UNL     1      44.984   6.605  12.539  0.00  0.00    +0.000 A 
ATOM      7  C   UNL     1      44.215   6.396  11.385  0.00  0.00    +0.000 A 
ATOM      8  N   UNL     1      43.850   5.189  10.877  0.00  0.00    +0.000 NA
BRANCH   3  10
ATOM      9  N   UNL     1      44.523   2.286  10.021  0.00  0.00    +0.000 N 
ATOM     10  C   UNL     1      43.814   2.766  11.089  0.00  0.00    +0.000 C 
ATOM     11  O   UNL     1      42.894   2.129  11.583  0.00  0.00    +0.000 OA
ATOM     12  H   UNL     1      44.300   1.376   9.645  0.00  0.00    +0.000 HD
ATOM     13  H   UNL     1      45.301   2.820   9.656  0.00  0.00    +0.000 HD
ENDBRANCH   3  10
ENDBRANCH   1   6
BRANCH   1  14
ATOM     14  C   UNL     1      46.204   8.747  12.336  0.00  0.00    +0.000 C 
BRANCH  14  15
ATOM     15  C   UNL     1      47.590   8.090  12.420  0.00  0.00    +0.000 C 
BRANCH  15  16
ATOM     16  C   UNL     1      48.092   8.006  13.840  0.00  0.00    +0.000 A 
ATOM     17  C   UNL     1      48.149   9.154  14.643  0.00  0.00    +0.000 A 
ATOM     18  C   UNL     1      48.581   9.068  15.967  0.00  0.00    +0.000 A 
ATOM     19  C   UNL     1      48.958   7.835  16.509  0.00  0.00    +0.000 A 
ATOM     20  C   UNL     1      48.920   6.690  15.719  0.00  0.00    +0.000 A 
ATOM     21  C   UNL     1      48.472   6.775  14.396  0.00  0.00    +0.000 A 
BRANCH  20  22
ATOM     22  O   UNL     1      49.240   5.423  16.148  0.00  0.00    +0.000 OA
BRANCH  22  23
ATOM     23  C   UNL     1      48.433   4.803  17.175  0.00  0.00    +0.000 C 
ATOM     24  C   UNL     1      48.911   3.433  17.710  0.00  0.00    +0.000 C 
ATOM     25  C   UNL     1      47.494   2.878  17.513  0.00  0.00    +0.000 C 
ATOM     26  C   UNL     1      47.168   4.093  16.636  0.00  0.00    +0.000 C 
ENDBRANCH  22  23
ENDBRANCH  20  22
ENDBRANCH  15  16
ENDBRANCH  14  15
ENDBRANCH   1  14
TORSDOF 7
ENDMDL
MODEL 7
REMARK VINA RESULT:    -6.265      4.101      8.186
REMARK INTER + INTRA:          -9.713
REMARK INTER:                  -9.202
REMARK INTRA:                  -0.511
REMARK UNBOUND:                -0.885
REMARK  Name = 
REMARK  7 active torsions:
REMARK  status: ('A' for Active; 'I' for Inactive)
REMARK    1  A    between atoms: C_2  and  C_4
REMARK    2  A    between atoms: C_7  and  N_8
REMARK    3  A    between atoms: N_8  and  C_9
REMARK    4  A    between atoms: C_9  and  C_10
REMARK    5  A    between atoms: C_10  and  C_11
REMARK    6  A    between atoms: C_15  and  O_16
REMARK    7  A    between atoms: O_16  and  C_17
REMARK                            x       y       z     vdW  Elec       q    Type
REMARK                         _______ _______ _______ _____ _____    ______ ____
ROOT
ATOM      1  N   UNL     1      47.077   4.246  16.017  0.00  0.00    +0.000 N 
ATOM      2  H   UNL     1      46.265   4.026  16.591  0.00  0.00    +0.000 HD
ENDROOT
BRANCH   1   6
ATOM      3  C   UNL     1      50.781   3.284  17.657  0.00  0.00    +0.000 A 
ATOM      4  C   UNL     1      49.993   2.241  17.193  0.00  0.00    +0.000 A 
ATOM      5  C   UNL     1      48.732   2.540  16.670  0.00  0.00    +0.000 A 
ATOM      6  C   UNL     1      48.272   3.858  16.633  0.00  0.00    +0.000 A 
ATOM      7  C   UNL     1      49.168   4.827  17.107  0.00  0.00    +0.000 A 
ATOM      8  N   UNL     1      50.394   4.586  17.640  0.00  0.00    +0.000 NA
BRANCH   3  10
ATOM      9  N   UNL     1      52.693   1.796  17.821  0.00  0.00    +0.000 N 
ATOM     10  C   UNL     1      52.144   2.991  18.201  0.00  0.00    +0.000 C 
ATOM     11  O   UNL     1      52.741   3.761  18.941  0.00  0.00    +0.000 OA
ATOM     12  H   UNL     1      53.620   1.552  18.137  0.00  0.00    +0.000 HD
ATOM     13  H   UNL     1      52.190   1.195  17.180  0.00  0.00    +0.000 HD
ENDBRANCH   3  10
ENDBRANCH   1   6
BRANCH   1  14
ATOM     14  C   UNL     1      46.865   3.929  14.599  0.00  0.00    +0.000 C 
BRANCH  14  15
ATOM     15  C   UNL     1      46.324   5.165  13.864  0.00  0.00    +0.000 C 
BRANCH  15  16
ATOM     16  C   UNL     1      45.190   4.819  12.931  0.00  0.00    +0.000 A 
ATOM     17  C   UNL     1      43.987   5.537  12.980  0.00  0.00    +0.000 A 
ATOM     18  C   UNL     1      42.952   5.237  12.092  0.00  0.00    +0.000 A 
ATOM     19  C   UNL     1      43.104   4.221  11.144  0.00  0.00    +0.000 A 
ATOM     20  C   UNL     1      44.289   3.491  11.095  0.00  0.00    +0.000 A 
ATOM     21  C   UNL     1      45.332   3.802  11.975  0.00  0.00    +0.000 A 
BRANCH  20  22
ATOM     22  O   UNL     1      44.563   2.491  10.192  0.00  0.00    +0.000 OA
BRANCH  22  23
ATOM     23  C   UNL     1      44.715   2.826   8.794  0.00  0.00    +0.000 C 
ATOM     24  C   UNL     1      45.947   2.245   8.063  0.00  0.00    +0.000 C 
ATOM     25  C   UNL     1      46.263   3.642   7.514  0.00  0.00    +0.000 C 
ATOM     26  C   UNL     1      45.300   4.237   8.547  0.00  0.00    +0.000 C 
ENDBRANCH  22  23
ENDBRANCH  20  22
ENDBRANCH  15  16
ENDBRANCH  14  15
ENDBRANCH   1  14
TORSDOF 7
ENDMDL
MODEL 8
REMARK VINA RESULT:    -5.964      3.864      7.398
REMARK INTER + INTRA:          -9.290
REMARK INTER:                  -8.631
REMARK INTRA:                  -0.660
REMARK UNBOUND:                -0.885
REMARK  Name = 
REMARK  7 active torsions:
REMARK  status: ('A' for Active; 'I' for Inactive)
REMARK    1  A    between atoms: C_2  and  C_4
REMARK    2  A    between atoms: C_7  and  N_8
REMARK    3  A    between atoms: N_8  and  C_9
REMARK    4  A    between atoms: C_9  and  C_10
REMARK    5  A    between atoms: C_10  and  C_11
REMARK    6  A    between atoms: C_15  and  O_16
REMARK    7  A    between atoms: O_16  and  C_17
REMARK                            x       y       z     vdW  Elec       q    Type
REMARK                         _______ _______ _______ _____ _____    ______ ____
ROOT
ATOM      1  N   UNL     1      46.512   7.955  13.584  0.00  0.00    +0.000 N 
ATOM      2  H   UNL     1      46.413   7.832  14.590  0.00  0.00    +0.000 HD
ENDROOT
BRANCH   1   6
ATOM      3  C   UNL     1      50.538   8.235  12.555  0.00  0.00    +0.000 A 
ATOM      4  C   UNL     1      49.621   8.073  11.528  0.00  0.00    +0.000 A 
ATOM      5  C   UNL     1      48.267   7.944  11.855  0.00  0.00    +0.000 A 
ATOM      6  C   UNL     1      47.854   7.960  13.188  0.00  0.00    +0.000 A 
ATOM      7  C   UNL     1      48.869   8.155  14.135  0.00  0.00    +0.000 A 
ATOM      8  N   UNL     1      50.197   8.268  13.870  0.00  0.00    +0.000 NA
BRANCH   3  10
ATOM      9  N   UNL     1      52.465   7.606  11.220  0.00  0.00    +0.000 N 
ATOM     10  C   UNL     1      51.989   8.399  12.229  0.00  0.00    +0.000 C 
ATOM     11  O   UNL     1      52.715   9.187  12.820  0.00  0.00    +0.000 OA
ATOM     12  H   UNL     1      53.431   7.687  10.939  0.00  0.00    +0.000 HD
ATOM     13  H   UNL     1      51.832   6.989  10.727  0.00  0.00    +0.000 HD
ENDBRANCH   3  10
ENDBRANCH   1   6
BRANCH   1  14
ATOM     14  C   UNL     1      45.542   7.159  12.823  0.00  0.00    +0.000 C 
BRANCH  14  15
ATOM     15  C   UNL     1      45.693   5.672  13.178  0.00  0.00    +0.000 C 
BRANCH  15  16
ATOM     16  C   UNL     1      45.081   4.774  12.133  0.00  0.00    +0.000 A 
ATOM     17  C   UNL     1      44.171   3.773  12.501  0.00  0.00    +0.000 A 
ATOM     18  C   UNL     1      43.579   2.966  11.528  0.00  0.00    +0.000 A 
ATOM     19  C   UNL     1      43.884   3.149  10.176  0.00  0.00    +0.000 A 
ATOM     20  C   UNL     1      44.798   4.129   9.798  0.00  0.00    +0.000 A 
ATOM     21  C   UNL     1      45.379   4.948  10.773  0.00  0.00    +0.000 A 
BRANCH  20  22
ATOM     22  O   UNL     1      45.155   4.418   8.502  0.00  0.00    +0.000 OA
BRANCH  22  23
ATOM     23  C   UNL     1      45.455   3.332   7.596  0.00  0.00    +0.000 C 
ATOM     24  C   UNL     1      46.169   2.097   8.192  0.00  0.00    +0.000 C 
ATOM     25  C   UNL     1      47.189   2.151   7.047  0.00  0.00    +0.000 C 
ATOM     26  C   UNL     1      46.710   3.571   6.723  0.00  0.00    +0.000 C 
ENDBRANCH  22  23
ENDBRANCH  20  22
ENDBRANCH  15  16
ENDBRANCH  14  15
ENDBRANCH   1  14
TORSDOF 7
ENDMDL
MODEL 9
REMARK VINA RESULT:    -5.808      3.077      4.937
REMARK INTER + INTRA:          -9.070
REMARK INTER:                  -8.208
REMARK INTRA:                  -0.861
REMARK UNBOUND:                -0.885
REMARK  Name = 
REMARK  7 active torsions:
REMARK  status: ('A' for Active; 'I' for Inactive)
REMARK    1  A    between atoms: C_2  and  C_4
REMARK    2  A    between atoms: C_7  and  N_8
REMARK    3  A    between atoms: N_8  and  C_9
REMARK    4  A    between atoms: C_9  and  C_10
REMARK    5  A    between atoms: C_10  and  C_11
REMARK    6  A    between atoms: C_15  and  O_16
REMARK    7  A    between atoms: O_16  and  C_17
REMARK                            x       y       z     vdW  Elec       q    Type
REMARK                         _______ _______ _______ _____ _____    ______ ____
ROOT
ATOM      1  N   UNL     1      47.619   7.339  13.116  0.00  0.00    +0.000 N 
ATOM      2  H   UNL     1      47.777   8.068  12.423  0.00  0.00    +0.000 HD
ENDROOT
BRANCH   1   6
ATOM      3  C   UNL     1      44.942   4.373  11.941  0.00  0.00    +0.000 A 
ATOM      4  C   UNL     1      45.281   5.341  11.007  0.00  0.00    +0.000 A 
ATOM      5  C   UNL     1      46.152   6.364  11.392  0.00  0.00    +0.000 A 
ATOM      6  C   UNL     1      46.654   6.418  12.694  0.00  0.00    +0.000 A 
ATOM      7  C   UNL     1      46.259   5.371  13.540  0.00  0.00    +0.000 A 
ATOM      8  N   UNL     1      45.403   4.366  13.219  0.00  0.00    +0.000 NA
BRANCH   3  10
ATOM      9  N   UNL     1      43.757   2.335  12.522  0.00  0.00    +0.000 N 
ATOM     10  C   UNL     1      44.029   3.256  11.546  0.00  0.00    +0.000 C 
ATOM     11  O   UNL     1      43.550   3.157  10.425  0.00  0.00    +0.000 OA
ATOM     12  H   UNL     1      43.130   1.570  12.322  0.00  0.00    +0.000 HD
ATOM     13  H   UNL     1      44.141   2.462  13.450  0.00  0.00    +0.000 HD
ENDBRANCH   3  10
ENDBRANCH   1   6
BRANCH   1  14
ATOM     14  C   UNL     1      48.869   6.847  13.709  0.00  0.00    +0.000 C 
BRANCH  14  15
ATOM     15  C   UNL     1      49.302   7.771  14.857  0.00  0.00    +0.000 C 
BRANCH  15  16
ATOM     16  C   UNL     1      48.895   7.229  16.205  0.00  0.00    +0.000 A 
ATOM     17  C   UNL     1      48.886   8.061  17.332  0.00  0.00    +0.000 A 
ATOM     18  C   UNL     1      48.475   7.566  18.571  0.00  0.00    +0.000 A 
ATOM     19  C   UNL     1      48.066   6.235  18.701  0.00  0.00    +0.000 A 
ATOM     20  C   UNL     1      48.085   5.393  17.591  0.00  0.00    +0.000 A 
ATOM     21  C   UNL     1      48.481   5.895  16.347  0.00  0.00    +0.000 A 
BRANCH  20  22
ATOM     22  O   UNL     1      47.681   4.079  17.592  0.00  0.00    +0.000 OA
BRANCH  22  23
ATOM     23  C   UNL     1      48.635   3.050  17.938  0.00  0.00    +0.000 C 
ATOM     24  C   UNL     1      50.118   3.474  18.043  0.00  0.00    +0.000 C 
ATOM     25  C   UNL     1      50.507   2.287  17.153  0.00  0.00    +0.000 C 
ATOM     26  C   UNL     1      49.034   2.139  16.752  0.00  0.00    +0.000 C 
ENDBRANCH  22  23
ENDBRANCH  20  22
ENDBRANCH  15  16
ENDBRANCH  14  15
ENDBRANCH   1  14
TORSDOF 7
ENDMDL
