MODEL 1
REMARK VINA RESULT:    -7.842      0.000      0.000
REMARK INTER + INTRA:         -11.289
REMARK INTER:                 -10.134
REMARK INTRA:                  -1.155
REMARK UNBOUND:                -1.155
REMARK  Name = 
REMARK  6 active torsions:
REMARK  status: ('A' for Active; 'I' for Inactive)
REMARK    1  A    between atoms: C_1  and  C_2
REMARK    2  A    between atoms: C_3  and  C_4
REMARK    3  A    between atoms: C_10  and  N_11
REMARK    4  A    between atoms: N_11  and  C_12
REMARK    5  A    between atoms: C_12  and  C_13
REMARK    6  A    between atoms: C_17  and  C_18
REMARK                            x       y       z     vdW  Elec       q    Type
REMARK                         _______ _______ _______ _____ _____    ______ ____
ROOT
ATOM      1  N   UNL     1      44.350   6.996  12.614  0.00  0.00    +0.000 N 
ATOM      2  H   UNL     1      44.432   6.183  13.213  0.00  0.00    +0.000 HD
ENDROOT
BRANCH   1   9
ATOM      3  C   UNL     1      46.789   5.538  13.040  0.00  0.00    +0.000 C 
ATOM      4  C   UNL     1      46.794   7.021  12.770  0.00  0.00    +0.000 A 
ATOM      5  C   UNL     1      47.974   7.798  12.764  0.00  0.00    +0.000 A 
ATOM      6  C   UNL     1      47.908   9.165  12.485  0.00  0.00    +0.000 A 
ATOM      7  C   UNL     1      46.675   9.712  12.221  0.00  0.00    +0.000 A 
ATOM      8  N   UNL     1      45.532   9.006  12.235  0.00  0.00    +0.000 NA
ATOM      9  C   UNL     1      45.576   7.683  12.513  0.00  0.00    +0.000 A 
BRANCH   5  10
ATOM     10  C   UNL     1      49.317   7.243  13.115  0.00  0.00    +0.000 C 
ATOM     11  N   UNL     1      50.245   7.170  12.111  0.00  0.00    +0.000 N 
ATOM     12  O   UNL     1      49.609   6.884  14.247  0.00  0.00    +0.000 OA
ATOM     13  H   UNL     1      50.055   7.366  11.141  0.00  0.00    +0.000 HD
ATOM     14  H   UNL     1      51.151   6.782  12.352  0.00  0.00    +0.000 HD
ENDBRANCH   5  10
ENDBRANCH   1   9
BRANCH   1  15
ATOM     15  C   UNL     1      43.752   6.662  11.323  0.00  0.00    +0.000 C 
BRANCH  15  16
ATOM     16  C   UNL     1      43.863   5.178  11.055  0.00  0.00    +0.000 A 
ATOM     17  C   UNL     1      43.140   4.265  11.830  0.00  0.00    +0.000 A 
ATOM     18  C   UNL     1      43.272   2.895  11.617  0.00  0.00    +0.000 A 
ATOM     19  C   UNL     1      44.101   2.425  10.597  0.00  0.00    +0.000 A 
ATOM     20  C   UNL     1      44.798   3.310   9.752  0.00  0.00    +0.000 A 
ATOM     21  C   UNL     1      44.686   4.689  10.022  0.00  0.00    +0.000 A 
BRANCH  20  22
ATOM     22  C   UNL     1      45.565   2.822   8.588  0.00  0.00    +0.000 A 
ATOM     23  C   UNL     1      45.929   3.672   7.540  0.00  0.00    +0.000 A 
ATOM     24  C   UNL     1      46.727   3.190   6.506  0.00  0.00    +0.000 A 
ATOM     25  C   UNL     1      47.144   1.869   6.533  0.00  0.00    +0.000 A 
ATOM     26  C   UNL     1      46.736   1.080   7.596  0.00  0.00    +0.000 A 
ATOM     27  N   UNL     1      45.964   1.525   8.617  0.00  0.00    +0.000 NA
ENDBRANCH  20  22
ENDBRANCH  15  16
ENDBRANCH   1  15
TORSDOF 5
ENDMDL
MODEL 2
REMARK VINA RESULT:    -7.255      3.239      7.004
REMARK INTER + INTRA:         -10.531
REMARK INTER:                  -9.667
REMARK INTRA:                  -0.863
REMARK UNBOUND:                -1.155
REMARK  Name = 
REMARK  6 active torsions:
REMARK  status: ('A' for Active; 'I' for Inactive)
REMARK    1  A    between atoms: C_1  and  C_2
REMARK    2  A    between atoms: C_3  and  C_4
REMARK    3  A    between atoms: C_10  and  N_11
REMARK    4  A    between atoms: N_11  and  C_12
REMARK    5  A    between atoms: C_12  and  C_13
REMARK    6  A    between atoms: C_17  and  C_18
REMARK                            x       y       z     vdW  Elec       q    Type
REMARK                         _______ _______ _______ _____ _____    ______ ____
ROOT
ATOM      1  N   UNL     1      44.046   5.061  10.195  0.00  0.00    +0.000 N 
ATOM      2  H   UNL     1      44.552   5.880   9.881  0.00  0.00    +0.000 HD
ENDROOT
BRANCH   1   9
ATOM      3  C   UNL     1      46.313   5.268   8.443  0.00  0.00    +0.000 C 
ATOM      4  C   UNL     1      45.648   3.944   8.718  0.00  0.00    +0.000 A 
ATOM      5  C   UNL     1      46.050   2.739   8.099  0.00  0.00    +0.000 A 
ATOM      6  C   UNL     1      45.402   1.542   8.416  0.00  0.00    +0.000 A 
ATOM      7  C   UNL     1      44.382   1.584   9.336  0.00  0.00    +0.000 A 
ATOM      8  N   UNL     1      43.965   2.714   9.930  0.00  0.00    +0.000 NA
ATOM      9  C   UNL     1      44.574   3.884   9.627  0.00  0.00    +0.000 A 
BRANCH   5  10
ATOM     10  C   UNL     1      47.108   2.677   7.045  0.00  0.00    +0.000 C 
ATOM     11  N   UNL     1      46.931   3.460   5.936  0.00  0.00    +0.000 N 
ATOM     12  O   UNL     1      48.109   1.983   7.152  0.00  0.00    +0.000 OA
ATOM     13  H   UNL     1      46.097   3.990   5.737  0.00  0.00    +0.000 HD
ATOM     14  H   UNL     1      47.646   3.406   5.218  0.00  0.00    +0.000 HD
ENDBRANCH   5  10
ENDBRANCH   1   9
BRANCH   1  15
ATOM     15  C   UNL     1      43.937   5.015  11.652  0.00  0.00    +0.000 C 
BRANCH  15  16
ATOM     16  C   UNL     1      45.251   5.396  12.295  0.00  0.00    +0.000 A 
ATOM     17  C   UNL     1      45.993   6.474  11.801  0.00  0.00    +0.000 A 
ATOM     18  C   UNL     1      47.225   6.802  12.361  0.00  0.00    +0.000 A 
ATOM     19  C   UNL     1      47.710   6.076  13.450  0.00  0.00    +0.000 A 
ATOM     20  C   UNL     1      46.969   5.024  14.020  0.00  0.00    +0.000 A 
ATOM     21  C   UNL     1      45.749   4.681  13.402  0.00  0.00    +0.000 A 
BRANCH  20  22
ATOM     22  C   UNL     1      47.414   4.345  15.254  0.00  0.00    +0.000 A 
ATOM     23  C   UNL     1      47.381   4.985  16.496  0.00  0.00    +0.000 A 
ATOM     24  C   UNL     1      47.728   4.279  17.645  0.00  0.00    +0.000 A 
ATOM     25  C   UNL     1      48.105   2.950  17.533  0.00  0.00    +0.000 A 
ATOM     26  C   UNL     1      48.126   2.383  16.270  0.00  0.00    +0.000 A 
ATOM     27  N   UNL     1      47.790   3.046  15.137  0.00  0.00    +0.000 NA
ENDBRANCH  20  22
ENDBRANCH  15  16
ENDBRANCH   1  15
TORSDOF 5
ENDMDL
MODEL 3
REMARK VINA RESULT:    -7.143      2.768      3.442
REMARK INTER + INTRA:         -10.386
REMARK INTER:                  -9.475
REMARK INTRA:                  -0.911
REMARK UNBOUND:                -1.155
REMARK  Name = 
REMARK  6 active torsions:
REMARK  status: ('A' for Active; 'I' for Inactive)
REMARK    1  A    between atoms: C_1  and  C_2
REMARK    2  A    between atoms: C_3  and  C_4
REMARK    3  A    between atoms: C_10  and  N_11
REMARK    4  A    between atoms: N_11  and  C_12
REMARK    5  A    between atoms: C_12  and  C_13
REMARK    6  A    between atoms: C_17  and  C_18
REMARK                            x       y       z     vdW  Elec       q    Type
REMARK                         _______ _______ _______ _____ _____    ______ ____
ROOT
ATOM      1  N   UNL     1      47.421   6.561  12.934  0.00  0.00    +0.000 N 
ATOM      2  H   UNL     1      48.105   7.148  12.474  0.00  0.00    +0.000 HD
ENDROOT
BRANCH   1   9
ATOM      3  C   UNL     1      46.982   3.871  13.840  0.00  0.00    +0.000 C 
ATOM      4  C   UNL     1      47.592   4.915  14.738  0.00  0.00    +0.000 A 
ATOM      5  C   UNL     1      47.935   4.665  16.087  0.00  0.00    +0.000 A 
ATOM      6  C   UNL     1      48.519   5.674  16.857  0.00  0.00    +0.000 A 
ATOM      7  C   UNL     1      48.743   6.893  16.263  0.00  0.00    +0.000 A 
ATOM      8  N   UNL     1      48.414   7.169  14.989  0.00  0.00    +0.000 NA
ATOM      9  C   UNL     1      47.840   6.207  14.232  0.00  0.00    +0.000 A 
BRANCH   5  10
ATOM     10  C   UNL     1      47.639   3.373  16.776  0.00  0.00    +0.000 C 
ATOM     11  N   UNL     1      48.624   2.421  16.771  0.00  0.00    +0.000 N 
ATOM     12  O   UNL     1      46.581   3.155  17.348  0.00  0.00    +0.000 OA
ATOM     13  H   UNL     1      49.486   2.493  16.252  0.00  0.00    +0.000 HD
ATOM     14  H   UNL     1      48.415   1.542  17.230  0.00  0.00    +0.000 HD
ENDBRANCH   5  10
ENDBRANCH   1   9
BRANCH   1  15
ATOM     15  C   UNL     1      46.082   7.146  12.885  0.00  0.00    +0.000 C 
BRANCH  15  16
ATOM     16  C   UNL     1      45.149   6.270  12.081  0.00  0.00    +0.000 A 
ATOM     17  C   UNL     1      43.768   6.322  12.300  0.00  0.00    +0.000 A 
ATOM     18  C   UNL     1      42.908   5.485  11.593  0.00  0.00    +0.000 A 
ATOM     19  C   UNL     1      43.418   4.614  10.629  0.00  0.00    +0.000 A 
ATOM     20  C   UNL     1      44.793   4.574  10.331  0.00  0.00    +0.000 A 
ATOM     21  C   UNL     1      45.648   5.394  11.096  0.00  0.00    +0.000 A 
BRANCH  20  22
ATOM     22  C   UNL     1      45.319   3.755   9.219  0.00  0.00    +0.000 A 
ATOM     23  C   UNL     1      45.893   4.338   8.086  0.00  0.00    +0.000 A 
ATOM     24  C   UNL     1      46.454   3.529   7.103  0.00  0.00    +0.000 A 
ATOM     25  C   UNL     1      46.429   2.152   7.266  0.00  0.00    +0.000 A 
ATOM     26  C   UNL     1      45.834   1.643   8.408  0.00  0.00    +0.000 A 
ATOM     27  N   UNL     1      45.285   2.408   9.381  0.00  0.00    +0.000 NA
ENDBRANCH  20  22
ENDBRANCH  15  16
ENDBRANCH   1  15
TORSDOF 5
ENDMDL
MODEL 4
REMARK VINA RESULT:    -6.895      2.456      6.703
REMARK INTER + INTRA:         -10.065
REMARK INTER:                  -9.069
REMARK INTRA:                  -0.996
REMARK UNBOUND:                -1.155
REMARK  Name = 
REMARK  6 active torsions:
REMARK  status: ('A' for Active; 'I' for Inactive)
REMARK    1  A    between atoms: C_1  and  C_2
REMARK    2  A    between atoms: C_3  and  C_4
REMARK    3  A    between atoms: C_10  and  N_11
REMARK    4  A    between atoms: N_11  and  C_12
REMARK    5  A    between atoms: C_12  and  C_13
REMARK    6  A    between atoms: C_17  and  C_18
REMARK                            x       y       z     vdW  Elec       q    Type
REMARK                         _______ _______ _______ _____ _____    ______ ____
ROOT
ATOM      1  N   UNL     1      44.136   4.840   9.626  0.00  0.00    +0.000 N 
ATOM      2  H   UNL     1      44.669   5.660   9.366  0.00  0.00    +0.000 HD
ENDROOT
BRANCH   1   9
ATOM      3  C   UNL     1      46.465   5.064   7.960  0.00  0.00    +0.000 C 
ATOM      4  C   UNL     1      45.855   3.725   8.286  0.00  0.00    +0.000 A 
ATOM      5  C   UNL     1      46.344   2.508   7.758  0.00  0.00    +0.000 A 
ATOM      6  C   UNL     1      45.743   1.300   8.120  0.00  0.00    +0.000 A 
ATOM      7  C   UNL     1      44.682   1.341   8.993  0.00  0.00    +0.000 A 
ATOM      8  N   UNL     1      44.183   2.481   9.499  0.00  0.00    +0.000 NA
ATOM      9  C   UNL     1      44.746   3.661   9.152  0.00  0.00    +0.000 A 
BRANCH   5  10
ATOM     10  C   UNL     1      47.449   2.441   6.755  0.00  0.00    +0.000 C 
ATOM     11  N   UNL     1      47.250   3.083   5.562  0.00  0.00    +0.000 N 
ATOM     12  O   UNL     1      48.504   1.863   6.971  0.00  0.00    +0.000 OA
ATOM     13  H   UNL     1      46.380   3.506   5.278  0.00  0.00    +0.000 HD
ATOM     14  H   UNL     1      47.999   3.025   4.880  0.00  0.00    +0.000 HD
ENDBRANCH   5  10
ENDBRANCH   1   9
BRANCH   1  15
ATOM     15  C   UNL     1      43.837   4.816  11.056  0.00  0.00    +0.000 C 
BRANCH  15  16
ATOM     16  C   UNL     1      45.087   5.083  11.864  0.00  0.00    +0.000 A 
ATOM     17  C   UNL     1      45.501   4.177  12.846  0.00  0.00    +0.000 A 
ATOM     18  C   UNL     1      46.626   4.440  13.622  0.00  0.00    +0.000 A 
ATOM     19  C   UNL     1      47.373   5.597  13.398  0.00  0.00    +0.000 A 
ATOM     20  C   UNL     1      47.030   6.505  12.379  0.00  0.00    +0.000 A 
ATOM     21  C   UNL     1      45.859   6.241  11.641  0.00  0.00    +0.000 A 
BRANCH  20  22
ATOM     22  C   UNL     1      47.894   7.658  12.049  0.00  0.00    +0.000 A 
ATOM     23  C   UNL     1      47.420   8.971  12.108  0.00  0.00    +0.000 A 
ATOM     24  C   UNL     1      48.293  10.030  11.874  0.00  0.00    +0.000 A 
ATOM     25  C   UNL     1      49.620   9.760  11.580  0.00  0.00    +0.000 A 
ATOM     26  C   UNL     1      50.018   8.435  11.526  0.00  0.00    +0.000 A 
ATOM     27  N   UNL     1      49.191   7.386  11.754  0.00  0.00    +0.000 NA
ENDBRANCH  20  22
ENDBRANCH  15  16
ENDBRANCH   1  15
TORSDOF 5
ENDMDL
MODEL 5
REMARK VINA RESULT:    -6.530      3.893      5.300
REMARK INTER + INTRA:          -9.594
REMARK INTER:                  -8.963
REMARK INTRA:                  -0.630
REMARK UNBOUND:                -1.155
REMARK  Name = 
REMARK  6 active torsions:
REMARK  status: ('A' for Active; 'I' for Inactive)
REMARK    1  A    between atoms: C_1  and  C_2
REMARK    2  A    between atoms: C_3  and  C_4
REMARK    3  A    between atoms: C_10  and  N_11
REMARK    4  A    between atoms: N_11  and  C_12
REMARK    5  A    between atoms: C_12  and  C_13
REMARK    6  A    between atoms: C_17  and  C_18
REMARK                            x       y       z     vdW  Elec       q    Type
REMARK                         _______ _______ _______ _____ _____    ______ ____
ROOT
ATOM      1  N   UNL     1      48.103   6.931  15.337  0.00  0.00    +0.000 N 
ATOM      2  H   UNL     1      47.220   7.414  15.445  0.00  0.00    +0.000 HD
ENDROOT
BRANCH   1   9
ATOM      3  C   UNL     1      49.014   7.093  18.056  0.00  0.00    +0.000 C 
ATOM      4  C   UNL     1      48.635   5.777  17.430  0.00  0.00    +0.000 A 
ATOM      5  C   UNL     1      48.752   4.541  18.106  0.00  0.00    +0.000 A 
ATOM      6  C   UNL     1      48.361   3.359  17.472  0.00  0.00    +0.000 A 
ATOM      7  C   UNL     1      47.867   3.445  16.192  0.00  0.00    +0.000 A 
ATOM      8  N   UNL     1      47.758   4.601  15.516  0.00  0.00    +0.000 NA
ATOM      9  C   UNL     1      48.141   5.753  16.111  0.00  0.00    +0.000 A 
BRANCH   5  10
ATOM     10  C   UNL     1      49.350   4.411  19.469  0.00  0.00    +0.000 C 
ATOM     11  N   UNL     1      48.533   3.954  20.469  0.00  0.00    +0.000 N 
ATOM     12  O   UNL     1      50.520   4.673  19.706  0.00  0.00    +0.000 OA
ATOM     13  H   UNL     1      47.542   3.799  20.372  0.00  0.00    +0.000 HD
ATOM     14  H   UNL     1      48.940   3.879  21.395  0.00  0.00    +0.000 HD
ENDBRANCH   5  10
ENDBRANCH   1   9
BRANCH   1  15
ATOM     15  C   UNL     1      48.442   6.724  13.931  0.00  0.00    +0.000 C 
BRANCH  15  16
ATOM     16  C   UNL     1      47.220   6.901  13.059  0.00  0.00    +0.000 A 
ATOM     17  C   UNL     1      46.521   8.113  13.060  0.00  0.00    +0.000 A 
ATOM     18  C   UNL     1      45.369   8.266  12.293  0.00  0.00    +0.000 A 
ATOM     19  C   UNL     1      44.925   7.219  11.484  0.00  0.00    +0.000 A 
ATOM     20  C   UNL     1      45.633   6.005  11.403  0.00  0.00    +0.000 A 
ATOM     21  C   UNL     1      46.767   5.857  12.228  0.00  0.00    +0.000 A 
BRANCH  20  22
ATOM     22  C   UNL     1      45.245   4.947  10.446  0.00  0.00    +0.000 A 
ATOM     23  C   UNL     1      45.627   4.997   9.103  0.00  0.00    +0.000 A 
ATOM     24  C   UNL     1      45.314   3.937   8.257  0.00  0.00    +0.000 A 
ATOM     25  C   UNL     1      44.622   2.848   8.766  0.00  0.00    +0.000 A 
ATOM     26  C   UNL     1      44.265   2.872  10.103  0.00  0.00    +0.000 A 
ATOM     27  N   UNL     1      44.561   3.888  10.948  0.00  0.00    +0.000 NA
ENDBRANCH  20  22
ENDBRANCH  15  16
ENDBRANCH   1  15
TORSDOF 5
ENDMDL
MODEL 6
REMARK VINA RESULT:    -6.458      3.507      5.048
REMARK INTER + INTRA:          -9.501
REMARK INTER:                  -8.642
REMARK INTRA:                  -0.859
REMARK UNBOUND:                -1.155
REMARK  Name = 
REMARK  6 active torsions:
REMARK  status: ('A' for Active; 'I' for Inactive)
REMARK    1  A    between atoms: C_1  and  C_2
REMARK    2  A    between atoms: C_3  and  C_4
REMARK    3  A    between atoms: C_10  and  N_11
REMARK    4  A    between atoms: N_11  and  C_12
REMARK    5  A    between atoms: C_12  and  C_13
REMARK    6  A    between atoms: C_17  and  C_18
REMARK                            x       y       z     vdW  Elec       q    Type
REMARK                         _______ _______ _______ _____ _____    ______ ____
ROOT
ATOM      1  N   UNL     1      48.087   7.250  15.168  0.00  0.00    +0.000 N 
ATOM      2  H   UNL     1      47.121   6.995  15.331  0.00  0.00    +0.000 HD
ENDROOT
BRANCH   1   9
ATOM      3  C   UNL     1      47.267   4.598  15.907  0.00  0.00    +0.000 C 
ATOM      4  C   UNL     1      48.578   5.176  16.374  0.00  0.00    +0.000 A 
ATOM      5  C   UNL     1      49.457   4.489  17.242  0.00  0.00    +0.000 A 
ATOM      6  C   UNL     1      50.667   5.077  17.618  0.00  0.00    +0.000 A 
ATOM      7  C   UNL     1      50.963   6.324  17.120  0.00  0.00    +0.000 A 
ATOM      8  N   UNL     1      50.142   7.011  16.308  0.00  0.00    +0.000 NA
ATOM      9  C   UNL     1      48.962   6.461  15.941  0.00  0.00    +0.000 A 
BRANCH   5  10
ATOM     10  C   UNL     1      49.129   3.165  17.852  0.00  0.00    +0.000 C 
ATOM     11  N   UNL     1      48.440   3.176  19.036  0.00  0.00    +0.000 N 
ATOM     12  O   UNL     1      49.430   2.102  17.329  0.00  0.00    +0.000 OA
ATOM     13  H   UNL     1      48.231   4.006  19.568  0.00  0.00    +0.000 HD
ATOM     14  H   UNL     1      48.229   2.275  19.452  0.00  0.00    +0.000 HD
ENDBRANCH   5  10
ENDBRANCH   1   9
BRANCH   1  15
ATOM     15  C   UNL     1      48.411   7.268  13.743  0.00  0.00    +0.000 C 
BRANCH  15  16
ATOM     16  C   UNL     1      47.149   7.297  12.912  0.00  0.00    +0.000 A 
ATOM     17  C   UNL     1      46.348   8.444  12.885  0.00  0.00    +0.000 A 
ATOM     18  C   UNL     1      45.161   8.462  12.156  0.00  0.00    +0.000 A 
ATOM     19  C   UNL     1      44.782   7.342  11.414  0.00  0.00    +0.000 A 
ATOM     20  C   UNL     1      45.588   6.189  11.362  0.00  0.00    +0.000 A 
ATOM     21  C   UNL     1      46.759   6.179  12.148  0.00  0.00    +0.000 A 
BRANCH  20  22
ATOM     22  C   UNL     1      45.260   5.057  10.471  0.00  0.00    +0.000 A 
ATOM     23  C   UNL     1      45.654   5.041   9.130  0.00  0.00    +0.000 A 
ATOM     24  C   UNL     1      45.400   3.916   8.350  0.00  0.00    +0.000 A 
ATOM     25  C   UNL     1      44.755   2.830   8.921  0.00  0.00    +0.000 A 
ATOM     26  C   UNL     1      44.383   2.920  10.252  0.00  0.00    +0.000 A 
ATOM     27  N   UNL     1      44.622   4.000  11.033  0.00  0.00    +0.000 NA
ENDBRANCH  20  22
ENDBRANCH  15  16
ENDBRANCH   1  15
TORSDOF 5
ENDMDL
MODEL 7
REMARK VINA RESULT:    -6.252      4.520      6.572
REMARK INTER + INTRA:          -9.235
REMARK INTER:                  -8.378
REMARK INTRA:                  -0.858
REMARK UNBOUND:                -1.155
REMARK  Name = 
REMARK  6 active torsions:
REMARK  status: ('A' for Active; 'I' for Inactive)
REMARK    1  A    between atoms: C_1  and  C_2
REMARK    2  A    between atoms: C_3  and  C_4
REMARK    3  A    between atoms: C_10  and  N_11
REMARK    4  A    between atoms: N_11  and  C_12
REMARK    5  A    between atoms: C_12  and  C_13
REMARK    6  A    between atoms: C_17  and  C_18
REMARK                            x       y       z     vdW  Elec       q    Type
REMARK                         _______ _______ _______ _____ _____    ______ ____
ROOT
ATOM      1  N   UNL     1      48.117   6.597  16.282  0.00  0.00    +0.000 N 
ATOM      2  H   UNL     1      47.181   6.650  15.901  0.00  0.00    +0.000 HD
ENDROOT
BRANCH   1   9
ATOM      3  C   UNL     1      48.318   6.999  19.119  0.00  0.00    +0.000 C 
ATOM      4  C   UNL     1      48.428   5.626  18.508  0.00  0.00    +0.000 A 
ATOM      5  C   UNL     1      48.689   4.464  19.269  0.00  0.00    +0.000 A 
ATOM      6  C   UNL     1      48.757   3.218  18.639  0.00  0.00    +0.000 A 
ATOM      7  C   UNL     1      48.561   3.170  17.280  0.00  0.00    +0.000 A 
ATOM      8  N   UNL     1      48.327   4.256  16.525  0.00  0.00    +0.000 NA
ATOM      9  C   UNL     1      48.267   5.472  17.117  0.00  0.00    +0.000 A 
BRANCH   5  10
ATOM     10  C   UNL     1      48.975   4.497  20.735  0.00  0.00    +0.000 C 
ATOM     11  N   UNL     1      50.290   4.563  21.114  0.00  0.00    +0.000 N 
ATOM     12  O   UNL     1      48.094   4.489  21.582  0.00  0.00    +0.000 OA
ATOM     13  H   UNL     1      51.072   4.488  20.483  0.00  0.00    +0.000 HD
ATOM     14  H   UNL     1      50.479   4.574  22.111  0.00  0.00    +0.000 HD
ENDBRANCH   5  10
ENDBRANCH   1   9
BRANCH   1  15
ATOM     15  C   UNL     1      49.135   6.698  15.239  0.00  0.00    +0.000 C 
BRANCH  15  16
ATOM     16  C   UNL     1      48.491   6.780  13.874  0.00  0.00    +0.000 A 
ATOM     17  C   UNL     1      49.121   7.475  12.836  0.00  0.00    +0.000 A 
ATOM     18  C   UNL     1      48.512   7.592  11.590  0.00  0.00    +0.000 A 
ATOM     19  C   UNL     1      47.278   6.981  11.357  0.00  0.00    +0.000 A 
ATOM     20  C   UNL     1      46.638   6.220  12.352  0.00  0.00    +0.000 A 
ATOM     21  C   UNL     1      47.252   6.159  13.620  0.00  0.00    +0.000 A 
BRANCH  20  22
ATOM     22  C   UNL     1      45.403   5.459  12.068  0.00  0.00    +0.000 A 
ATOM     23  C   UNL     1      45.083   5.037  10.775  0.00  0.00    +0.000 A 
ATOM     24  C   UNL     1      43.955   4.248  10.566  0.00  0.00    +0.000 A 
ATOM     25  C   UNL     1      43.165   3.898  11.650  0.00  0.00    +0.000 A 
ATOM     26  C   UNL     1      43.536   4.362  12.902  0.00  0.00    +0.000 A 
ATOM     27  N   UNL     1      44.630   5.126  13.132  0.00  0.00    +0.000 NA
ENDBRANCH  20  22
ENDBRANCH  15  16
ENDBRANCH   1  15
TORSDOF 5
ENDMDL
MODEL 8
REMARK VINA RESULT:    -5.941      3.472      7.324
REMARK INTER + INTRA:          -8.833
REMARK INTER:                  -7.700
REMARK INTRA:                  -1.133
REMARK UNBOUND:                -1.155
REMARK  Name = 
REMARK  6 active torsions:
REMARK  status: ('A' for Active; 'I' for Inactive)
REMARK    1  A    between atoms: C_1  and  C_2
REMARK    2  A    between atoms: C_3  and  C_4
REMARK    3  A    between atoms: C_10  and  N_11
REMARK    4  A    between atoms: N_11  and  C_12
REMARK    5  A    between atoms: C_12  and  C_13
REMARK    6  A    between atoms: C_17  and  C_18
REMARK                            x       y       z     vdW  Elec       q    Type
REMARK                         _______ _______ _______ _____ _____    ______ ____
ROOT
ATOM      1  N   UNL     1      47.321   6.805  12.057  0.00  0.00    +0.000 N 
ATOM      2  H   UNL     1      47.865   6.094  12.529  0.00  0.00    +0.000 HD
ENDROOT
BRANCH   1   9
ATOM      3  C   UNL     1      46.521   4.236  13.063  0.00  0.00    +0.000 C 
ATOM      4  C   UNL     1      45.540   5.156  12.384  0.00  0.00    +0.000 A 
ATOM      5  C   UNL     1      44.192   4.804  12.146  0.00  0.00    +0.000 A 
ATOM      6  C   UNL     1      43.331   5.715  11.529  0.00  0.00    +0.000 A 
ATOM      7  C   UNL     1      43.837   6.943  11.172  0.00  0.00    +0.000 A 
ATOM      8  N   UNL     1      45.116   7.303  11.369  0.00  0.00    +0.000 NA
ATOM      9  C   UNL     1      45.966   6.429  11.956  0.00  0.00    +0.000 A 
BRANCH   5  10
ATOM     10  C   UNL     1      43.635   3.453  12.460  0.00  0.00    +0.000 C 
ATOM     11  N   UNL     1      43.586   2.544  11.436  0.00  0.00    +0.000 N 
ATOM     12  O   UNL     1      43.254   3.138  13.577  0.00  0.00    +0.000 OA
ATOM     13  H   UNL     1      43.801   2.754  10.474  0.00  0.00    +0.000 HD
ATOM     14  H   UNL     1      43.197   1.633  11.651  0.00  0.00    +0.000 HD
ENDBRANCH   5  10
ENDBRANCH   1   9
BRANCH   1  15
ATOM     15  C   UNL     1      47.524   8.126  12.646  0.00  0.00    +0.000 C 
BRANCH  15  16
ATOM     16  C   UNL     1      48.040   8.003  14.062  0.00  0.00    +0.000 A 
ATOM     17  C   UNL     1      48.271   9.148  14.832  0.00  0.00    +0.000 A 
ATOM     18  C   UNL     1      48.789   9.042  16.120  0.00  0.00    +0.000 A 
ATOM     19  C   UNL     1      49.045   7.784  16.667  0.00  0.00    +0.000 A 
ATOM     20  C   UNL     1      48.769   6.603  15.952  0.00  0.00    +0.000 A 
ATOM     21  C   UNL     1      48.292   6.739  14.632  0.00  0.00    +0.000 A 
BRANCH  20  22
ATOM     22  C   UNL     1      48.909   5.271  16.577  0.00  0.00    +0.000 A 
ATOM     23  C   UNL     1      47.844   4.367  16.623  0.00  0.00    +0.000 A 
ATOM     24  C   UNL     1      48.045   3.091  17.142  0.00  0.00    +0.000 A 
ATOM     25  C   UNL     1      49.302   2.742  17.610  0.00  0.00    +0.000 A 
ATOM     26  C   UNL     1      50.308   3.692  17.545  0.00  0.00    +0.000 A 
ATOM     27  N   UNL     1      50.140   4.938  17.040  0.00  0.00    +0.000 NA
ENDBRANCH  20  22
ENDBRANCH  15  16
ENDBRANCH   1  15
TORSDOF 5
ENDMDL
MODEL 9
REMARK VINA RESULT:    -5.925      4.223      6.796
REMARK INTER + INTRA:          -8.812
REMARK INTER:                  -7.990
REMARK INTRA:                  -0.822
REMARK UNBOUND:                -1.155
REMARK  Name = 
REMARK  6 active torsions:
REMARK  status: ('A' for Active; 'I' for Inactive)
REMARK    1  A    between atoms: C_1  and  C_2
REMARK    2  A    between atoms: C_3  and  C_4
REMARK    3  A    between atoms: C_10  and  N_11
REMARK    4  A    between atoms: N_11  and  C_12
REMARK    5  A    between atoms: C_12  and  C_13
REMARK    6  A    between atoms: C_17  and  C_18
REMARK                            x       y       z     vdW  Elec       q    Type
REMARK                         _______ _______ _______ _____ _____    ______ ____
ROOT
ATOM      1  N   UNL     1      46.946   3.709  15.759  0.00  0.00    +0.000 N 
ATOM      2  H   UNL     1      46.139   3.207  16.110  0.00  0.00    +0.000 HD
ENDROOT
BRANCH   1   9
ATOM      3  C   UNL     1      47.756   5.388  17.945  0.00  0.00    +0.000 C 
ATOM      4  C   UNL     1      48.576   4.198  17.520  0.00  0.00    +0.000 A 
ATOM      5  C   UNL     1      49.812   3.861  18.119  0.00  0.00    +0.000 A 
ATOM      6  C   UNL     1      50.510   2.730  17.689  0.00  0.00    +0.000 A 
ATOM      7  C   UNL     1      49.958   1.973  16.683  0.00  0.00    +0.000 A 
ATOM      8  N   UNL     1      48.796   2.274  16.081  0.00  0.00    +0.000 NA
ATOM      9  C   UNL     1      48.111   3.371  16.478  0.00  0.00    +0.000 A 
BRANCH   5  10
ATOM     10  C   UNL     1      50.466   4.704  19.164  0.00  0.00    +0.000 C 
ATOM     11  N   UNL     1      50.162   4.427  20.471  0.00  0.00    +0.000 N 
ATOM     12  O   UNL     1      51.260   5.594  18.896  0.00  0.00    +0.000 OA
ATOM     13  H   UNL     1      49.458   3.769  20.767  0.00  0.00    +0.000 HD
ATOM     14  H   UNL     1      50.601   5.009  21.177  0.00  0.00    +0.000 HD
ENDBRANCH   5  10
ENDBRANCH   1   9
BRANCH   1  15
ATOM     15  C   UNL     1      47.086   3.570  14.311  0.00  0.00    +0.000 C 
BRANCH  15  16
ATOM     16  C   UNL     1      46.412   4.721  13.600  0.00  0.00    +0.000 A 
ATOM     17  C   UNL     1      45.028   4.709  13.390  0.00  0.00    +0.000 A 
ATOM     18  C   UNL     1      44.409   5.745  12.697  0.00  0.00    +0.000 A 
ATOM     19  C   UNL     1      45.163   6.827  12.239  0.00  0.00    +0.000 A 
ATOM     20  C   UNL     1      46.547   6.911  12.483  0.00  0.00    +0.000 A 
ATOM     21  C   UNL     1      47.158   5.825  13.143  0.00  0.00    +0.000 A 
BRANCH  20  22
ATOM     22  C   UNL     1      47.322   8.116  12.122  0.00  0.00    +0.000 A 
ATOM     23  C   UNL     1      46.762   9.395  12.181  0.00  0.00    +0.000 A 
ATOM     24  C   UNL     1      47.554  10.508  11.917  0.00  0.00    +0.000 A 
ATOM     25  C   UNL     1      48.890  10.326  11.593  0.00  0.00    +0.000 A 
ATOM     26  C   UNL     1      49.375   9.030  11.541  0.00  0.00    +0.000 A 
ATOM     27  N   UNL     1      48.627   7.930  11.798  0.00  0.00    +0.000 NA
ENDBRANCH  20  22
ENDBRANCH  15  16
ENDBRANCH   1  15
TORSDOF 5
ENDMDL
