MODEL 1
REMARK VINA RESULT:    -6.972      0.000      0.000
REMARK INTER + INTRA:          -9.291
REMARK INTER:                  -8.602
REMARK INTRA:                  -0.688
REMARK UNBOUND:                -0.688
REMARK  Name = 
REMARK  4 active torsions:
REMARK  status: ('A' for Active; 'I' for Inactive)
REMARK    1  A    between atoms: C_5  and  O_6
REMARK    2  A    between atoms: O_6  and  C_7
REMARK    3  A    between atoms: C_7  and  C_8
REMARK    4  A    between atoms: C_12  and  C_13
REMARK                            x       y       z     vdW  Elec       q    Type
REMARK                         _______ _______ _______ _____ _____    ______ ____
ROOT
ATOM      1  C   UNL     1      45.055   4.977  12.113  0.00  0.00    +0.000 A 
ATOM      2  C   UNL     1      45.356   3.877  12.923  0.00  0.00    +0.000 A 
ATOM      3  C   UNL     1      46.550   3.817  13.639  0.00  0.00    +0.000 A 
ATOM      4  C   UNL     1      47.489   4.842  13.526  0.00  0.00    +0.000 A 
ATOM      5  C   UNL     1      47.251   5.948  12.703  0.00  0.00    +0.000 A 
ATOM      6  C   UNL     1      45.994   6.025  12.073  0.00  0.00    +0.000 A 
ENDROOT
BRANCH   5   7
ATOM      7  C   UNL     1      48.278   7.050  12.441  0.00  0.00    +0.000 C 
ATOM      8  C   UNL     1      49.094   7.407  13.707  0.00  0.00    +0.000 C 
ATOM      9  C   UNL     1      48.275   8.229  14.701  0.00  0.00    +0.000 C 
ATOM     10  N   UNL     1      47.786   9.471  14.100  0.00  0.00    +0.000 NA
ATOM     11  C   UNL     1      46.975   9.199  12.913  0.00  0.00    +0.000 C 
ATOM     12  C   UNL     1      47.727   8.370  11.866  0.00  0.00    +0.000 C 
ATOM     13  H   UNL     1      48.588  10.047  13.834  0.00  0.00    +0.000 HD
ENDBRANCH   5   7
BRANCH   1  14
ATOM     14  C   UNL     1      43.788   5.017  11.276  0.00  0.00    +0.000 C 
ATOM     15  C   UNL     1      42.490   5.435  11.967  0.00  0.00    +0.000 C 
ATOM     16  C   UNL     1      43.132   6.355  10.986  0.00  0.00    +0.000 C 
BRANCH  14  17
ATOM     17  O   UNL     1      43.592   3.918  10.352  0.00  0.00    +0.000 OA
BRANCH  17  22
ATOM     18 CL   UNL     1      47.488   2.260   6.451  0.00  0.00    +0.000 Cl
ATOM     19  C   UNL     1      46.422   2.808   7.671  0.00  0.00    +0.000 A 
ATOM     20  C   UNL     1      46.071   4.144   7.787  0.00  0.00    +0.000 A 
ATOM     21  N   UNL     1      45.175   4.584   8.708  0.00  0.00    +0.000 NA
ATOM     22  C   UNL     1      44.637   3.625   9.496  0.00  0.00    +0.000 A 
ATOM     23  C   UNL     1      45.015   2.292   9.389  0.00  0.00    +0.000 A 
ATOM     24  N   UNL     1      45.920   1.849   8.477  0.00  0.00    +0.000 NA
ENDBRANCH  17  22
ENDBRANCH  14  17
ENDBRANCH   1  14
TORSDOF 4
ENDMDL
MODEL 2
REMARK VINA RESULT:    -6.573      1.660      2.782
REMARK INTER + INTRA:          -8.799
REMARK INTER:                  -8.332
REMARK INTRA:                  -0.467
REMARK UNBOUND:                -0.688
REMARK  Name = 
REMARK  4 active torsions:
REMARK  status: ('A' for Active; 'I' for Inactive)
REMARK    1  A    between atoms: C_5  and  O_6
REMARK    2  A    between atoms: O_6  and  C_7
REMARK    3  A    between atoms: C_7  and  C_8
REMARK    4  A    between atoms: C_12  and  C_13
REMARK                            x       y       z     vdW  Elec       q    Type
REMARK                         _______ _______ _______ _____ _____    ______ ____
ROOT
ATOM      1  C   UNL     1      44.548   6.765  11.900  0.00  0.00    +0.000 A 
ATOM      2  C   UNL     1      43.916   7.856  11.292  0.00  0.00    +0.000 A 
ATOM      3  C   UNL     1      44.449   9.140  11.387  0.00  0.00    +0.000 A 
ATOM      4  C   UNL     1      45.608   9.366  12.132  0.00  0.00    +0.000 A 
ATOM      5  C   UNL     1      46.259   8.315  12.786  0.00  0.00    +0.000 A 
ATOM      6  C   UNL     1      45.751   7.017  12.587  0.00  0.00    +0.000 A 
ENDROOT
BRANCH   5   7
ATOM      7  C   UNL     1      47.463   8.504  13.709  0.00  0.00    +0.000 C 
ATOM      8  C   UNL     1      48.532   9.441  13.097  0.00  0.00    +0.000 C 
ATOM      9  C   UNL     1      49.328   8.751  11.989  0.00  0.00    +0.000 C 
ATOM     10  N   UNL     1      49.994   7.542  12.477  0.00  0.00    +0.000 NA
ATOM     11  C   UNL     1      49.030   6.598  13.040  0.00  0.00    +0.000 C 
ATOM     12  C   UNL     1      48.184   7.219  14.158  0.00  0.00    +0.000 C 
ATOM     13  H   UNL     1      50.668   7.806  13.201  0.00  0.00    +0.000 HD
ENDBRANCH   5   7
BRANCH   1  14
ATOM     14  C   UNL     1      43.936   5.376  11.858  0.00  0.00    +0.000 C 
ATOM     15  C   UNL     1      42.882   5.030  12.909  0.00  0.00    +0.000 C 
ATOM     16  C   UNL     1      42.473   5.220  11.489  0.00  0.00    +0.000 C 
BRANCH  14  17
ATOM     17  O   UNL     1      44.849   4.278  11.610  0.00  0.00    +0.000 OA
BRANCH  17  22
ATOM     18 CL   UNL     1      46.348   2.996   6.201  0.00  0.00    +0.000 Cl
ATOM     19  C   UNL     1      45.786   3.353   7.777  0.00  0.00    +0.000 A 
ATOM     20  C   UNL     1      45.337   2.360   8.634  0.00  0.00    +0.000 A 
ATOM     21  N   UNL     1      44.951   2.620   9.909  0.00  0.00    +0.000 NA
ATOM     22  C   UNL     1      45.048   3.914  10.291  0.00  0.00    +0.000 A 
ATOM     23  C   UNL     1      45.474   4.906   9.416  0.00  0.00    +0.000 A 
ATOM     24  N   UNL     1      45.851   4.653   8.136  0.00  0.00    +0.000 NA
ENDBRANCH  17  22
ENDBRANCH  14  17
ENDBRANCH   1  14
TORSDOF 4
ENDMDL
MODEL 3
REMARK VINA RESULT:    -6.152      3.558      6.629
REMARK INTER + INTRA:          -8.279
REMARK INTER:                  -8.093
REMARK INTRA:                  -0.186
REMARK UNBOUND:                -0.688
REMARK  Name = 
REMARK  4 active torsions:
REMARK  status: ('A' for Active; 'I' for Inactive)
REMARK    1  A    between atoms: C_5  and  O_6
REMARK    2  A    between atoms: O_6  and  C_7
REMARK    3  A    between atoms: C_7  and  C_8
REMARK    4  A    between atoms: C_12  and  C_13
REMARK                            x       y       z     vdW  Elec       q    Type
REMARK                         _______ _______ _______ _____ _____    ______ ____
ROOT
ATOM      1  C   UNL     1      46.784   7.586  12.186  0.00  0.00    +0.000 A 
ATOM      2  C   UNL     1      46.330   8.910  12.151  0.00  0.00    +0.000 A 
ATOM      3  C   UNL     1      45.016   9.210  11.801  0.00  0.00    +0.000 A 
ATOM      4  C   UNL     1      44.135   8.190  11.435  0.00  0.00    +0.000 A 
ATOM      5  C   UNL     1      44.549   6.854  11.421  0.00  0.00    +0.000 A 
ATOM      6  C   UNL     1      45.852   6.576  11.876  0.00  0.00    +0.000 A 
ENDROOT
BRANCH   5   7
ATOM      7  C   UNL     1      43.678   5.700  10.924  0.00  0.00    +0.000 C 
ATOM      8  C   UNL     1      42.496   5.402  11.878  0.00  0.00    +0.000 C 
ATOM      9  C   UNL     1      42.954   4.681  13.145  0.00  0.00    +0.000 C 
ATOM     10  N   UNL     1      43.628   3.419  12.834  0.00  0.00    +0.000 NA
ATOM     11  C   UNL     1      44.780   3.637  11.959  0.00  0.00    +0.000 C 
ATOM     12  C   UNL     1      44.403   4.365  10.664  0.00  0.00    +0.000 C 
ATOM     13  H   UNL     1      42.964   2.796  12.366  0.00  0.00    +0.000 HD
ENDBRANCH   5   7
BRANCH   1  14
ATOM     14  C   UNL     1      48.233   7.257  12.499  0.00  0.00    +0.000 C 
ATOM     15  C   UNL     1      49.305   7.779  11.543  0.00  0.00    +0.000 C 
ATOM     16  C   UNL     1      49.177   8.374  12.903  0.00  0.00    +0.000 C 
BRANCH  14  17
ATOM     17  O   UNL     1      48.503   5.906  12.947  0.00  0.00    +0.000 OA
BRANCH  17  22
ATOM     18 CL   UNL     1      47.323   3.963  18.237  0.00  0.00    +0.000 Cl
ATOM     19  C   UNL     1      47.617   4.645  16.696  0.00  0.00    +0.000 A 
ATOM     20  C   UNL     1      48.543   5.660  16.512  0.00  0.00    +0.000 A 
ATOM     21  N   UNL     1      48.836   6.166  15.287  0.00  0.00    +0.000 NA
ATOM     22  C   UNL     1      48.170   5.600  14.254  0.00  0.00    +0.000 A 
ATOM     23  C   UNL     1      47.225   4.600  14.451  0.00  0.00    +0.000 A 
ATOM     24  N   UNL     1      46.921   4.100  15.676  0.00  0.00    +0.000 NA
ENDBRANCH  17  22
ENDBRANCH  14  17
ENDBRANCH   1  14
TORSDOF 4
ENDMDL
MODEL 4
REMARK VINA RESULT:    -6.091      3.353      6.787
REMARK INTER + INTRA:          -8.204
REMARK INTER:                  -8.066
REMARK INTRA:                  -0.138
REMARK UNBOUND:                -0.688
REMARK  Name = 
REMARK  4 active torsions:
REMARK  status: ('A' for Active; 'I' for Inactive)
REMARK    1  A    between atoms: C_5  and  O_6
REMARK    2  A    between atoms: O_6  and  C_7
REMARK    3  A    between atoms: C_7  and  C_8
REMARK    4  A    between atoms: C_12  and  C_13
REMARK                            x       y       z     vdW  Elec       q    Type
REMARK                         _______ _______ _______ _____ _____    ______ ____
ROOT
ATOM      1  C   UNL     1      47.330   6.561  12.707  0.00  0.00    +0.000 A 
ATOM      2  C   UNL     1      47.399   5.783  13.868  0.00  0.00    +0.000 A 
ATOM      3  C   UNL     1      46.545   4.698  14.058  0.00  0.00    +0.000 A 
ATOM      4  C   UNL     1      45.573   4.394  13.104  0.00  0.00    +0.000 A 
ATOM      5  C   UNL     1      45.441   5.160  11.941  0.00  0.00    +0.000 A 
ATOM      6  C   UNL     1      46.383   6.186  11.734  0.00  0.00    +0.000 A 
ENDROOT
BRANCH   5   7
ATOM      7  C   UNL     1      44.331   4.957  10.910  0.00  0.00    +0.000 C 
ATOM      8  C   UNL     1      43.106   4.218  11.501  0.00  0.00    +0.000 C 
ATOM      9  C   UNL     1      43.378   2.726  11.691  0.00  0.00    +0.000 C 
ATOM     10  N   UNL     1      43.745   2.080  10.430  0.00  0.00    +0.000 NA
ATOM     11  C   UNL     1      44.921   2.714   9.835  0.00  0.00    +0.000 C 
ATOM     12  C   UNL     1      44.730   4.219   9.617  0.00  0.00    +0.000 C 
ATOM     13  H   UNL     1      42.959   2.154   9.780  0.00  0.00    +0.000 HD
ENDBRANCH   5   7
BRANCH   1  14
ATOM     14  C   UNL     1      48.210   7.785  12.524  0.00  0.00    +0.000 C 
ATOM     15  C   UNL     1      49.723   7.598  12.631  0.00  0.00    +0.000 C 
ATOM     16  C   UNL     1      49.107   7.880  11.304  0.00  0.00    +0.000 C 
BRANCH  14  17
ATOM     17  O   UNL     1      47.758   9.003  13.166  0.00  0.00    +0.000 OA
BRANCH  17  22
ATOM     18 CL   UNL     1      43.749  12.439  10.869  0.00  0.00    +0.000 Cl
ATOM     19  C   UNL     1      44.967  11.381  11.438  0.00  0.00    +0.000 A 
ATOM     20  C   UNL     1      46.314  11.648  11.244  0.00  0.00    +0.000 A 
ATOM     21  N   UNL     1      47.293  10.853  11.746  0.00  0.00    +0.000 NA
ATOM     22  C   UNL     1      46.864   9.788  12.462  0.00  0.00    +0.000 A 
ATOM     23  C   UNL     1      45.511   9.515  12.628  0.00  0.00    +0.000 A 
ATOM     24  N   UNL     1      44.528  10.301  12.118  0.00  0.00    +0.000 NA
ENDBRANCH  17  22
ENDBRANCH  14  17
ENDBRANCH   1  14
TORSDOF 4
ENDMDL
MODEL 5
REMARK VINA RESULT:    -6.082      2.589      3.828
REMARK INTER + INTRA:          -8.192
REMARK INTER:                  -7.881
REMARK INTRA:                  -0.311
REMARK UNBOUND:                -0.688
REMARK  Name = 
REMARK  4 active torsions:
REMARK  status: ('A' for Active; 'I' for Inactive)
REMARK    1  A    between atoms: C_5  and  O_6
REMARK    2  A    between atoms: O_6  and  C_7
REMARK    3  A    between atoms: C_7  and  C_8
REMARK    4  A    between atoms: C_12  and  C_13
REMARK                            x       y       z     vdW  Elec       q    Type
REMARK                         _______ _______ _______ _____ _____    ______ ____
ROOT
ATOM      1  C   UNL     1      45.035   6.904  11.993  0.00  0.00    +0.000 A 
ATOM      2  C   UNL     1      46.425   6.926  12.151  0.00  0.00    +0.000 A 
ATOM      3  C   UNL     1      47.115   8.130  12.274  0.00  0.00    +0.000 A 
ATOM      4  C   UNL     1      46.430   9.344  12.199  0.00  0.00    +0.000 A 
ATOM      5  C   UNL     1      45.045   9.377  12.008  0.00  0.00    +0.000 A 
ATOM      6  C   UNL     1      44.366   8.143  11.988  0.00  0.00    +0.000 A 
ENDROOT
BRANCH   5   7
ATOM      7  C   UNL     1      44.245  10.663  11.802  0.00  0.00    +0.000 C 
ATOM      8  C   UNL     1      43.100  10.487  10.777  0.00  0.00    +0.000 C 
ATOM      9  C   UNL     1      43.623  10.431   9.341  0.00  0.00    +0.000 C 
ATOM     10  N   UNL     1      44.375  11.639   8.995  0.00  0.00    +0.000 NA
ATOM     11  C   UNL     1      45.496  11.845   9.911  0.00  0.00    +0.000 C 
ATOM     12  C   UNL     1      45.052  11.905  11.377  0.00  0.00    +0.000 C 
ATOM     13  H   UNL     1      43.747  12.445   9.047  0.00  0.00    +0.000 HD
ENDBRANCH   5   7
BRANCH   1  14
ATOM     14  C   UNL     1      44.286   5.599  11.789  0.00  0.00    +0.000 C 
ATOM     15  C   UNL     1      43.102   5.305  12.710  0.00  0.00    +0.000 C 
ATOM     16  C   UNL     1      42.857   5.636  11.278  0.00  0.00    +0.000 C 
BRANCH  14  17
ATOM     17  O   UNL     1      45.096   4.423  11.540  0.00  0.00    +0.000 OA
BRANCH  17  22
ATOM     18 CL   UNL     1      46.279   2.893   6.116  0.00  0.00    +0.000 Cl
ATOM     19  C   UNL     1      45.809   3.332   7.702  0.00  0.00    +0.000 A 
ATOM     20  C   UNL     1      45.326   2.397   8.604  0.00  0.00    +0.000 A 
ATOM     21  N   UNL     1      45.010   2.717   9.886  0.00  0.00    +0.000 NA
ATOM     22  C   UNL     1      45.214   4.011  10.225  0.00  0.00    +0.000 A 
ATOM     23  C   UNL     1      45.674   4.946   9.306  0.00  0.00    +0.000 A 
ATOM     24  N   UNL     1      45.980   4.632   8.019  0.00  0.00    +0.000 NA
ENDBRANCH  17  22
ENDBRANCH  14  17
ENDBRANCH   1  14
TORSDOF 4
ENDMDL
MODEL 6
REMARK VINA RESULT:    -5.897      3.964      7.312
REMARK INTER + INTRA:          -7.964
REMARK INTER:                  -7.343
REMARK INTRA:                  -0.621
REMARK UNBOUND:                -0.688
REMARK  Name = 
REMARK  4 active torsions:
REMARK  status: ('A' for Active; 'I' for Inactive)
REMARK    1  A    between atoms: C_5  and  O_6
REMARK    2  A    between atoms: O_6  and  C_7
REMARK    3  A    between atoms: C_7  and  C_8
REMARK    4  A    between atoms: C_12  and  C_13
REMARK                            x       y       z     vdW  Elec       q    Type
REMARK                         _______ _______ _______ _____ _____    ______ ____
ROOT
ATOM      1  C   UNL     1      47.363   7.756  12.412  0.00  0.00    +0.000 A 
ATOM      2  C   UNL     1      46.745   9.006  12.525  0.00  0.00    +0.000 A 
ATOM      3  C   UNL     1      45.393   9.169  12.231  0.00  0.00    +0.000 A 
ATOM      4  C   UNL     1      44.637   8.087  11.777  0.00  0.00    +0.000 A 
ATOM      5  C   UNL     1      45.215   6.824  11.615  0.00  0.00    +0.000 A 
ATOM      6  C   UNL     1      46.557   6.671  12.015  0.00  0.00    +0.000 A 
ENDROOT
BRANCH   5   7
ATOM      7  C   UNL     1      44.482   5.623  11.016  0.00  0.00    +0.000 C 
ATOM      8  C   UNL     1      43.023   5.513  11.521  0.00  0.00    +0.000 C 
ATOM      9  C   UNL     1      42.955   5.000  12.959  0.00  0.00    +0.000 C 
ATOM     10  N   UNL     1      43.593   3.689  13.095  0.00  0.00    +0.000 NA
ATOM     11  C   UNL     1      44.990   3.735  12.663  0.00  0.00    +0.000 C 
ATOM     12  C   UNL     1      45.144   4.248  11.227  0.00  0.00    +0.000 C 
ATOM     13  H   UNL     1      43.086   3.013  12.518  0.00  0.00    +0.000 HD
ENDBRANCH   5   7
BRANCH   1  14
ATOM     14  C   UNL     1      48.851   7.586  12.663  0.00  0.00    +0.000 C 
ATOM     15  C   UNL     1      49.782   7.581  11.451  0.00  0.00    +0.000 C 
ATOM     16  C   UNL     1      49.788   8.745  12.381  0.00  0.00    +0.000 C 
BRANCH  14  17
ATOM     17  O   UNL     1      49.228   6.596  13.652  0.00  0.00    +0.000 OA
BRANCH  17  22
ATOM     18 CL   UNL     1      48.502   7.315  19.319  0.00  0.00    +0.000 Cl
ATOM     19  C   UNL     1      48.618   7.171  17.618  0.00  0.00    +0.000 A 
ATOM     20  C   UNL     1      49.011   8.235  16.821  0.00  0.00    +0.000 A 
ATOM     21  N   UNL     1      49.171   8.119  15.478  0.00  0.00    +0.000 NA
ATOM     22  C   UNL     1      48.934   6.886  14.972  0.00  0.00    +0.000 A 
ATOM     23  C   UNL     1      48.517   5.832  15.776  0.00  0.00    +0.000 A 
ATOM     24  N   UNL     1      48.344   5.948  17.119  0.00  0.00    +0.000 NA
ENDBRANCH  17  22
ENDBRANCH  14  17
ENDBRANCH   1  14
TORSDOF 4
ENDMDL
MODEL 7
REMARK VINA RESULT:    -5.818      3.384      5.513
REMARK INTER + INTRA:          -7.867
REMARK INTER:                  -7.200
REMARK INTRA:                  -0.666
REMARK UNBOUND:                -0.688
REMARK  Name = 
REMARK  4 active torsions:
REMARK  status: ('A' for Active; 'I' for Inactive)
REMARK    1  A    between atoms: C_5  and  O_6
REMARK    2  A    between atoms: O_6  and  C_7
REMARK    3  A    between atoms: C_7  and  C_8
REMARK    4  A    between atoms: C_12  and  C_13
REMARK                            x       y       z     vdW  Elec       q    Type
REMARK                         _______ _______ _______ _____ _____    ______ ____
ROOT
ATOM      1  C   UNL     1      48.327   7.907  14.361  0.00  0.00    +0.000 A 
ATOM      2  C   UNL     1      48.091   9.177  14.899  0.00  0.00    +0.000 A 
ATOM      3  C   UNL     1      48.285   9.431  16.255  0.00  0.00    +0.000 A 
ATOM      4  C   UNL     1      48.679   8.404  17.113  0.00  0.00    +0.000 A 
ATOM      5  C   UNL     1      48.895   7.108  16.632  0.00  0.00    +0.000 A 
ATOM      6  C   UNL     1      48.788   6.909  15.242  0.00  0.00    +0.000 A 
ENDROOT
BRANCH   5   7
ATOM      7  C   UNL     1      49.217   5.911  17.527  0.00  0.00    +0.000 C 
ATOM      8  C   UNL     1      48.780   4.568  16.894  0.00  0.00    +0.000 C 
ATOM      9  C   UNL     1      47.265   4.374  16.959  0.00  0.00    +0.000 C 
ATOM     10  N   UNL     1      46.774   4.417  18.338  0.00  0.00    +0.000 NA
ATOM     11  C   UNL     1      47.128   5.681  18.984  0.00  0.00    +0.000 C 
ATOM     12  C   UNL     1      48.636   5.954  18.954  0.00  0.00    +0.000 C 
ATOM     13  H   UNL     1      47.192   3.644  18.862  0.00  0.00    +0.000 HD
ENDBRANCH   5   7
BRANCH   1  14
ATOM     14  C   UNL     1      48.052   7.605  12.899  0.00  0.00    +0.000 C 
ATOM     15  C   UNL     1      48.965   8.246  11.855  0.00  0.00    +0.000 C 
ATOM     16  C   UNL     1      49.052   6.781  12.110  0.00  0.00    +0.000 C 
BRANCH  14  17
ATOM     17  O   UNL     1      46.661   7.609  12.491  0.00  0.00    +0.000 OA
BRANCH  17  22
ATOM     18 CL   UNL     1      43.635   2.726  12.093  0.00  0.00    +0.000 Cl
ATOM     19  C   UNL     1      44.627   4.119  12.157  0.00  0.00    +0.000 A 
ATOM     20  C   UNL     1      44.936   4.847  11.018  0.00  0.00    +0.000 A 
ATOM     21  N   UNL     1      45.667   5.990  11.061  0.00  0.00    +0.000 NA
ATOM     22  C   UNL     1      46.062   6.378  12.296  0.00  0.00    +0.000 A 
ATOM     23  C   UNL     1      45.769   5.628  13.428  0.00  0.00    +0.000 A 
ATOM     24  N   UNL     1      45.048   4.477  13.388  0.00  0.00    +0.000 NA
ENDBRANCH  17  22
ENDBRANCH  14  17
ENDBRANCH   1  14
TORSDOF 4
ENDMDL
MODEL 8
REMARK VINA RESULT:    -5.768      3.129      6.483
REMARK INTER + INTRA:          -7.805
REMARK INTER:                  -7.250
REMARK INTRA:                  -0.555
REMARK UNBOUND:                -0.688
REMARK  Name = 
REMARK  4 active torsions:
REMARK  status: ('A' for Active; 'I' for Inactive)
REMARK    1  A    between atoms: C_5  and  O_6
REMARK    2  A    between atoms: O_6  and  C_7
REMARK    3  A    between atoms: C_7  and  C_8
REMARK    4  A    between atoms: C_12  and  C_13
REMARK                            x       y       z     vdW  Elec       q    Type
REMARK                         _______ _______ _______ _____ _____    ______ ____
ROOT
ATOM      1  C   UNL     1      46.403   5.783  12.299  0.00  0.00    +0.000 A 
ATOM      2  C   UNL     1      46.346   4.924  13.402  0.00  0.00    +0.000 A 
ATOM      3  C   UNL     1      45.719   3.683  13.315  0.00  0.00    +0.000 A 
ATOM      4  C   UNL     1      45.097   3.292  12.129  0.00  0.00    +0.000 A 
ATOM      5  C   UNL     1      45.097   4.127  11.007  0.00  0.00    +0.000 A 
ATOM      6  C   UNL     1      45.824   5.330  11.098  0.00  0.00    +0.000 A 
ENDROOT
BRANCH   5   7
ATOM      7  C   UNL     1      44.342   3.816   9.715  0.00  0.00    +0.000 C 
ATOM      8  C   UNL     1      44.318   2.301   9.397  0.00  0.00    +0.000 C 
ATOM      9  C   UNL     1      45.668   1.806   8.879  0.00  0.00    +0.000 C 
ATOM     10  N   UNL     1      46.080   2.526   7.673  0.00  0.00    +0.000 NA
ATOM     11  C   UNL     1      46.154   3.967   7.917  0.00  0.00    +0.000 C 
ATOM     12  C   UNL     1      44.836   4.541   8.447  0.00  0.00    +0.000 C 
ATOM     13  H   UNL     1      45.398   2.347   6.932  0.00  0.00    +0.000 HD
ENDBRANCH   5   7
BRANCH   1  14
ATOM     14  C   UNL     1      47.023   7.165  12.406  0.00  0.00    +0.000 C 
ATOM     15  C   UNL     1      48.505   7.255  12.767  0.00  0.00    +0.000 C 
ATOM     16  C   UNL     1      48.060   7.595  11.386  0.00  0.00    +0.000 C 
BRANCH  14  17
ATOM     17  O   UNL     1      46.230   8.176  13.077  0.00  0.00    +0.000 OA
BRANCH  17  22
ATOM     18 CL   UNL     1      43.789  11.812   9.338  0.00  0.00    +0.000 Cl
ATOM     19  C   UNL     1      44.415  10.745  10.519  0.00  0.00    +0.000 A 
ATOM     20  C   UNL     1      43.891   9.475  10.706  0.00  0.00    +0.000 A 
ATOM     21  N   UNL     1      44.418   8.593  11.594  0.00  0.00    +0.000 NA
ATOM     22  C   UNL     1      45.501   9.035  12.274  0.00  0.00    +0.000 A 
ATOM     23  C   UNL     1      46.004  10.319  12.098  0.00  0.00    +0.000 A 
ATOM     24  N   UNL     1      45.472  11.208  11.220  0.00  0.00    +0.000 NA
ENDBRANCH  17  22
ENDBRANCH  14  17
ENDBRANCH   1  14
TORSDOF 4
ENDMDL
MODEL 9
REMARK VINA RESULT:    -5.072      3.553      6.932
REMARK INTER + INTRA:          -6.946
REMARK INTER:                  -7.413
REMARK INTRA:                   0.468
REMARK UNBOUND:                -0.688
REMARK  Name = 
REMARK  4 active torsions:
REMARK  status: ('A' for Active; 'I' for Inactive)
REMARK    1  A    between atoms: C_5  and  O_6
REMARK    2  A    between atoms: O_6  and  C_7
REMARK    3  A    between atoms: C_7  and  C_8
REMARK    4  A    between atoms: C_12  and  C_13
REMARK                            x       y       z     vdW  Elec       q    Type
REMARK                         _______ _______ _______ _____ _____    ______ ____
ROOT
ATOM      1  C   UNL     1      47.185   6.987  12.410  0.00  0.00    +0.000 A 
ATOM      2  C   UNL     1      47.433   6.178  13.524  0.00  0.00    +0.000 A 
ATOM      3  C   UNL     1      46.756   4.973  13.702  0.00  0.00    +0.000 A 
ATOM      4  C   UNL     1      45.782   4.573  12.787  0.00  0.00    +0.000 A 
ATOM      5  C   UNL     1      45.472   5.362  11.674  0.00  0.00    +0.000 A 
ATOM      6  C   UNL     1      46.244   6.522  11.470  0.00  0.00    +0.000 A 
ENDROOT
BRANCH   5   7
ATOM      7  C   UNL     1      44.342   5.045  10.695  0.00  0.00    +0.000 C 
ATOM      8  C   UNL     1      43.156   4.324  11.378  0.00  0.00    +0.000 C 
ATOM      9  C   UNL     1      43.477   2.860  11.681  0.00  0.00    +0.000 C 
ATOM     10  N   UNL     1      43.830   2.123  10.466  0.00  0.00    +0.000 NA
ATOM     11  C   UNL     1      44.971   2.738   9.789  0.00  0.00    +0.000 C 
ATOM     12  C   UNL     1      44.729   4.215   9.456  0.00  0.00    +0.000 C 
ATOM     13  H   UNL     1      43.025   2.122   9.835  0.00  0.00    +0.000 HD
ENDBRANCH   5   7
BRANCH   1  14
ATOM     14  C   UNL     1      47.869   8.333  12.244  0.00  0.00    +0.000 C 
ATOM     15  C   UNL     1      46.983   9.569  12.096  0.00  0.00    +0.000 C 
ATOM     16  C   UNL     1      47.757   9.364  13.352  0.00  0.00    +0.000 C 
BRANCH  14  17
ATOM     17  O   UNL     1      49.016   8.368  11.360  0.00  0.00    +0.000 OA
BRANCH  17  22
ATOM     18 CL   UNL     1      54.362   8.639  13.482  0.00  0.00    +0.000 Cl
ATOM     19  C   UNL     1      52.767   8.445  12.896  0.00  0.00    +0.000 A 
ATOM     20  C   UNL     1      51.674   8.417  13.749  0.00  0.00    +0.000 A 
ATOM     21  N   UNL     1      50.398   8.330  13.295  0.00  0.00    +0.000 NA
ATOM     22  C   UNL     1      50.264   8.285  11.949  0.00  0.00    +0.000 A 
ATOM     23  C   UNL     1      51.367   8.287  11.103  0.00  0.00    +0.000 A 
ATOM     24  N   UNL     1      52.647   8.363  11.554  0.00  0.00    +0.000 NA
ENDBRANCH  17  22
ENDBRANCH  14  17
ENDBRANCH   1  14
TORSDOF 4
ENDMDL
