MODEL 1
REMARK VINA RESULT:    -7.828      0.000      0.000
REMARK INTER + INTRA:         -12.533
REMARK INTER:                 -11.489
REMARK INTRA:                  -1.044
REMARK UNBOUND:                -1.044
REMARK  Name = 
REMARK  8 active torsions:
REMARK  status: ('A' for Active; 'I' for Inactive)
REMARK    1  A    between atoms: C_2  and  O_3
REMARK    2  A    between atoms: C_2  and  C_11
REMARK    3  A    between atoms: O_3  and  C_4
REMARK    4  A    between atoms: C_4  and  C_5
REMARK    5  A    between atoms: C_14  and  C_15
REMARK    6  A    between atoms: C_15  and  O_16
REMARK    7  A    between atoms: O_16  and  C_17
REMARK    8  A    between atoms: C_17  and  C_18
REMARK                            x       y       z     vdW  Elec       q    Type
REMARK                         _______ _______ _______ _____ _____    ______ ____
ROOT
ATOM      1  C   UNL     1      44.753   4.129  11.509  0.00  0.00    +0.000 A 
ATOM      2  C   UNL     1      45.340   3.783  12.734  0.00  0.00    +0.000 A 
ATOM      3  C   UNL     1      46.246   4.647  13.356  0.00  0.00    +0.000 A 
ATOM      4  C   UNL     1      46.587   5.867  12.755  0.00  0.00    +0.000 A 
ATOM      5  C   UNL     1      45.990   6.218  11.539  0.00  0.00    +0.000 A 
ATOM      6  C   UNL     1      45.076   5.358  10.920  0.00  0.00    +0.000 A 
ENDROOT
BRANCH   1   8
ATOM      7  O   UNL     1      42.934   2.588  11.491  0.00  0.00    +0.000 OA
ATOM      8  C   UNL     1      43.820   3.156  10.874  0.00  0.00    +0.000 C 
BRANCH   8   9
ATOM      9  O   UNL     1      44.114   2.989   9.562  0.00  0.00    +0.000 OA
BRANCH   9  10
ATOM     10  C   UNL     1      44.794   1.774   9.216  0.00  0.00    +0.000 C 
BRANCH  10  11
ATOM     11  C   UNL     1      45.815   2.066   8.147  0.00  0.00    +0.000 A 
ATOM     12  C   UNL     1      45.878   3.328   7.538  0.00  0.00    +0.000 A 
ATOM     13  C   UNL     1      46.830   3.593   6.551  0.00  0.00    +0.000 A 
ATOM     14  C   UNL     1      47.722   2.598   6.156  0.00  0.00    +0.000 A 
ATOM     15  C   UNL     1      47.660   1.335   6.745  0.00  0.00    +0.000 A 
ATOM     16  C   UNL     1      46.710   1.069   7.732  0.00  0.00    +0.000 A 
ENDBRANCH  10  11
ENDBRANCH   9  10
ENDBRANCH   8   9
ENDBRANCH   1   8
BRANCH   4  17
ATOM     17  C   UNL     1      47.631   6.762  13.379  0.00  0.00    +0.000 C 
BRANCH  17  18
ATOM     18  O   UNL     1      48.549   6.010  14.173  0.00  0.00    +0.000 OA
BRANCH  18  19
ATOM     19  C   UNL     1      48.560   6.431  15.542  0.00  0.00    +0.000 C 
BRANCH  19  20
ATOM     20  C   UNL     1      48.590   5.226  16.447  0.00  0.00    +0.000 A 
ATOM     21  C   UNL     1      47.423   4.530  16.709  0.00  0.00    +0.000 A 
ATOM     22  C   UNL     1      47.542   3.429  17.526  0.00  0.00    +0.000 A 
ATOM     23  N   UNL     1      48.708   3.019  18.053  0.00  0.00    +0.000 NA
ATOM     24  C   UNL     1      49.780   3.759  17.735  0.00  0.00    +0.000 A 
ATOM     25  N   UNL     1      49.788   4.846  16.947  0.00  0.00    +0.000 NA
ENDBRANCH  19  20
ENDBRANCH  18  19
ENDBRANCH  17  18
ENDBRANCH   4  17
TORSDOF 8
ENDMDL
MODEL 2
REMARK VINA RESULT:    -7.410      3.195      5.224
REMARK INTER + INTRA:         -11.921
REMARK INTER:                 -11.115
REMARK INTRA:                  -0.805
REMARK UNBOUND:                -1.044
REMARK  Name = 
REMARK  8 active torsions:
REMARK  status: ('A' for Active; 'I' for Inactive)
REMARK    1  A    between atoms: C_2  and  O_3
REMARK    2  A    between atoms: C_2  and  C_11
REMARK    3  A    between atoms: O_3  and  C_4
REMARK    4  A    between atoms: C_4  and  C_5
REMARK    5  A    between atoms: C_14  and  C_15
REMARK    6  A    between atoms: C_15  and  O_16
REMARK    7  A    between atoms: O_16  and  C_17
REMARK    8  A    between atoms: C_17  and  C_18
REMARK                            x       y       z     vdW  Elec       q    Type
REMARK                         _______ _______ _______ _____ _____    ______ ____
ROOT
ATOM      1  C   UNL     1      46.228   2.635   7.664  0.00  0.00    +0.000 A 
ATOM      2  C   UNL     1      45.592   1.686   8.475  0.00  0.00    +0.000 A 
ATOM      3  C   UNL     1      44.697   2.089   9.471  0.00  0.00    +0.000 A 
ATOM      4  C   UNL     1      44.435   3.451   9.678  0.00  0.00    +0.000 A 
ATOM      5  C   UNL     1      45.061   4.398   8.858  0.00  0.00    +0.000 A 
ATOM      6  C   UNL     1      45.948   3.994   7.855  0.00  0.00    +0.000 A 
ENDROOT
BRANCH   1   8
ATOM      7  O   UNL     1      48.354   1.868   6.903  0.00  0.00    +0.000 OA
ATOM      8  C   UNL     1      47.197   2.152   6.639  0.00  0.00    +0.000 C 
BRANCH   8   9
ATOM      9  O   UNL     1      46.621   2.105   5.414  0.00  0.00    +0.000 OA
BRANCH   9  10
ATOM     10  C   UNL     1      47.436   1.588   4.352  0.00  0.00    +0.000 C 
BRANCH  10  11
ATOM     11  C   UNL     1      46.661   0.537   3.600  0.00  0.00    +0.000 A 
ATOM     12  C   UNL     1      46.973  -0.824   3.743  0.00  0.00    +0.000 A 
ATOM     13  C   UNL     1      46.248  -1.794   3.046  0.00  0.00    +0.000 A 
ATOM     14  C   UNL     1      45.212  -1.414   2.195  0.00  0.00    +0.000 A 
ATOM     15  C   UNL     1      44.903  -0.064   2.035  0.00  0.00    +0.000 A 
ATOM     16  C   UNL     1      45.625   0.907   2.730  0.00  0.00    +0.000 A 
ENDBRANCH  10  11
ENDBRANCH   9  10
ENDBRANCH   8   9
ENDBRANCH   1   8
BRANCH   4  17
ATOM     17  C   UNL     1      43.540   3.895  10.810  0.00  0.00    +0.000 C 
BRANCH  17  18
ATOM     18  O   UNL     1      43.758   5.268  11.134  0.00  0.00    +0.000 OA
BRANCH  18  19
ATOM     19  C   UNL     1      43.839   5.491  12.546  0.00  0.00    +0.000 C 
BRANCH  19  20
ATOM     20  C   UNL     1      45.281   5.456  12.986  0.00  0.00    +0.000 A 
ATOM     21  C   UNL     1      46.174   6.397  12.502  0.00  0.00    +0.000 A 
ATOM     22  C   UNL     1      47.464   6.308  12.970  0.00  0.00    +0.000 A 
ATOM     23  N   UNL     1      47.871   5.379  13.851  0.00  0.00    +0.000 NA
ATOM     24  C   UNL     1      46.929   4.517  14.261  0.00  0.00    +0.000 A 
ATOM     25  N   UNL     1      45.642   4.508  13.880  0.00  0.00    +0.000 NA
ENDBRANCH  19  20
ENDBRANCH  18  19
ENDBRANCH  17  18
ENDBRANCH   4  17
TORSDOF 8
ENDMDL
MODEL 3
REMARK VINA RESULT:    -7.226      3.072      8.422
REMARK INTER + INTRA:         -11.650
REMARK INTER:                 -10.596
REMARK INTRA:                  -1.054
REMARK UNBOUND:                -1.044
REMARK  Name = 
REMARK  8 active torsions:
REMARK  status: ('A' for Active; 'I' for Inactive)
REMARK    1  A    between atoms: C_2  and  O_3
REMARK    2  A    between atoms: C_2  and  C_11
REMARK    3  A    between atoms: O_3  and  C_4
REMARK    4  A    between atoms: C_4  and  C_5
REMARK    5  A    between atoms: C_14  and  C_15
REMARK    6  A    between atoms: C_15  and  O_16
REMARK    7  A    between atoms: O_16  and  C_17
REMARK    8  A    between atoms: C_17  and  C_18
REMARK                            x       y       z     vdW  Elec       q    Type
REMARK                         _______ _______ _______ _____ _____    ______ ____
ROOT
ATOM      1  C   UNL     1      46.987   5.779  12.840  0.00  0.00    +0.000 A 
ATOM      2  C   UNL     1      46.532   6.406  11.672  0.00  0.00    +0.000 A 
ATOM      3  C   UNL     1      45.463   5.869  10.948  0.00  0.00    +0.000 A 
ATOM      4  C   UNL     1      44.841   4.687  11.376  0.00  0.00    +0.000 A 
ATOM      5  C   UNL     1      45.289   4.068  12.550  0.00  0.00    +0.000 A 
ATOM      6  C   UNL     1      46.352   4.611  13.280  0.00  0.00    +0.000 A 
ENDROOT
BRANCH   1   8
ATOM      7  O   UNL     1      49.234   6.557  13.022  0.00  0.00    +0.000 OA
ATOM      8  C   UNL     1      48.151   6.377  13.554  0.00  0.00    +0.000 C 
BRANCH   8   9
ATOM      9  O   UNL     1      47.837   6.653  14.843  0.00  0.00    +0.000 OA
BRANCH   9  10
ATOM     10  C   UNL     1      48.915   6.575  15.787  0.00  0.00    +0.000 C 
BRANCH  10  11
ATOM     11  C   UNL     1      48.749   5.334  16.626  0.00  0.00    +0.000 A 
ATOM     12  C   UNL     1      47.523   4.654  16.669  0.00  0.00    +0.000 A 
ATOM     13  C   UNL     1      47.378   3.503  17.445  0.00  0.00    +0.000 A 
ATOM     14  C   UNL     1      48.453   3.024  18.193  0.00  0.00    +0.000 A 
ATOM     15  C   UNL     1      49.672   3.700  18.169  0.00  0.00    +0.000 A 
ATOM     16  C   UNL     1      49.820   4.850  17.393  0.00  0.00    +0.000 A 
ENDBRANCH  10  11
ENDBRANCH   9  10
ENDBRANCH   8   9
ENDBRANCH   1   8
BRANCH   4  17
ATOM     17  C   UNL     1      43.748   4.055  10.550  0.00  0.00    +0.000 C 
BRANCH  17  18
ATOM     18  O   UNL     1      44.232   3.662   9.265  0.00  0.00    +0.000 OA
BRANCH  18  19
ATOM     19  C   UNL     1      44.596   2.278   9.218  0.00  0.00    +0.000 C 
BRANCH  19  20
ATOM     20  C   UNL     1      45.785   2.095   8.309  0.00  0.00    +0.000 A 
ATOM     21  C   UNL     1      46.365   3.193   7.700  0.00  0.00    +0.000 A 
ATOM     22  C   UNL     1      47.458   2.942   6.904  0.00  0.00    +0.000 A 
ATOM     23  N   UNL     1      47.967   1.713   6.710  0.00  0.00    +0.000 NA
ATOM     24  C   UNL     1      47.335   0.717   7.347  0.00  0.00    +0.000 A 
ATOM     25  N   UNL     1      46.266   0.841   8.150  0.00  0.00    +0.000 NA
ENDBRANCH  19  20
ENDBRANCH  18  19
ENDBRANCH  17  18
ENDBRANCH   4  17
TORSDOF 8
ENDMDL
MODEL 4
REMARK VINA RESULT:    -6.931      4.178      5.814
REMARK INTER + INTRA:         -11.217
REMARK INTER:                 -10.361
REMARK INTRA:                  -0.857
REMARK UNBOUND:                -1.044
REMARK  Name = 
REMARK  8 active torsions:
REMARK  status: ('A' for Active; 'I' for Inactive)
REMARK    1  A    between atoms: C_2  and  O_3
REMARK    2  A    between atoms: C_2  and  C_11
REMARK    3  A    between atoms: O_3  and  C_4
REMARK    4  A    between atoms: C_4  and  C_5
REMARK    5  A    between atoms: C_14  and  C_15
REMARK    6  A    between atoms: C_15  and  O_16
REMARK    7  A    between atoms: O_16  and  C_17
REMARK    8  A    between atoms: C_17  and  C_18
REMARK                            x       y       z     vdW  Elec       q    Type
REMARK                         _______ _______ _______ _____ _____    ______ ____
ROOT
ATOM      1  C   UNL     1      44.273   4.485  11.590  0.00  0.00    +0.000 A 
ATOM      2  C   UNL     1      45.242   4.376  12.597  0.00  0.00    +0.000 A 
ATOM      3  C   UNL     1      45.886   5.515  13.089  0.00  0.00    +0.000 A 
ATOM      4  C   UNL     1      45.578   6.782  12.570  0.00  0.00    +0.000 A 
ATOM      5  C   UNL     1      44.601   6.891  11.573  0.00  0.00    +0.000 A 
ATOM      6  C   UNL     1      43.949   5.751  11.088  0.00  0.00    +0.000 A 
ENDROOT
BRANCH   1   8
ATOM      7  O   UNL     1      43.066   2.440  11.805  0.00  0.00    +0.000 OA
ATOM      8  C   UNL     1      43.642   3.235  11.080  0.00  0.00    +0.000 C 
BRANCH   8   9
ATOM      9  O   UNL     1      43.824   3.112   9.743  0.00  0.00    +0.000 OA
BRANCH   9  10
ATOM     10  C   UNL     1      44.352   1.858   9.289  0.00  0.00    +0.000 C 
BRANCH  10  11
ATOM     11  C   UNL     1      45.533   2.114   8.389  0.00  0.00    +0.000 A 
ATOM     12  C   UNL     1      46.398   1.072   8.025  0.00  0.00    +0.000 A 
ATOM     13  C   UNL     1      47.489   1.316   7.187  0.00  0.00    +0.000 A 
ATOM     14  C   UNL     1      47.731   2.604   6.713  0.00  0.00    +0.000 A 
ATOM     15  C   UNL     1      46.885   3.650   7.079  0.00  0.00    +0.000 A 
ATOM     16  C   UNL     1      45.794   3.409   7.915  0.00  0.00    +0.000 A 
ENDBRANCH  10  11
ENDBRANCH   9  10
ENDBRANCH   8   9
ENDBRANCH   1   8
BRANCH   4  17
ATOM     17  C   UNL     1      46.335   8.003  13.034  0.00  0.00    +0.000 C 
BRANCH  17  18
ATOM     18  O   UNL     1      45.564   9.191  12.846  0.00  0.00    +0.000 OA
BRANCH  18  19
ATOM     19  C   UNL     1      46.202  10.124  11.966  0.00  0.00    +0.000 C 
BRANCH  19  20
ATOM     20  C   UNL     1      45.166  11.017  11.333  0.00  0.00    +0.000 A 
ATOM     21  C   UNL     1      45.450  11.671  10.147  0.00  0.00    +0.000 A 
ATOM     22  C   UNL     1      44.442  12.447   9.624  0.00  0.00    +0.000 A 
ATOM     23  N   UNL     1      43.236  12.584  10.201  0.00  0.00    +0.000 NA
ATOM     24  C   UNL     1      43.061  11.907  11.345  0.00  0.00    +0.000 A 
ATOM     25  N   UNL     1      43.965  11.117  11.946  0.00  0.00    +0.000 NA
ENDBRANCH  19  20
ENDBRANCH  18  19
ENDBRANCH  17  18
ENDBRANCH   4  17
TORSDOF 8
ENDMDL
MODEL 5
REMARK VINA RESULT:    -6.889      3.225      8.475
REMARK INTER + INTRA:         -11.155
REMARK INTER:                 -10.669
REMARK INTRA:                  -0.487
REMARK UNBOUND:                -1.044
REMARK  Name = 
REMARK  8 active torsions:
REMARK  status: ('A' for Active; 'I' for Inactive)
REMARK    1  A    between atoms: C_2  and  O_3
REMARK    2  A    between atoms: C_2  and  C_11
REMARK    3  A    between atoms: O_3  and  C_4
REMARK    4  A    between atoms: C_4  and  C_5
REMARK    5  A    between atoms: C_14  and  C_15
REMARK    6  A    between atoms: C_15  and  O_16
REMARK    7  A    between atoms: O_16  and  C_17
REMARK    8  A    between atoms: C_17  and  C_18
REMARK                            x       y       z     vdW  Elec       q    Type
REMARK                         _______ _______ _______ _____ _____    ______ ____
ROOT
ATOM      1  C   UNL     1      46.611   4.704  13.883  0.00  0.00    +0.000 A 
ATOM      2  C   UNL     1      46.365   5.928  13.245  0.00  0.00    +0.000 A 
ATOM      3  C   UNL     1      45.663   5.970  12.037  0.00  0.00    +0.000 A 
ATOM      4  C   UNL     1      45.207   4.785  11.441  0.00  0.00    +0.000 A 
ATOM      5  C   UNL     1      45.442   3.564  12.086  0.00  0.00    +0.000 A 
ATOM      6  C   UNL     1      46.136   3.523  13.300  0.00  0.00    +0.000 A 
ENDROOT
BRANCH   1   8
ATOM      7  O   UNL     1      48.234   5.560  15.406  0.00  0.00    +0.000 OA
ATOM      8  C   UNL     1      47.392   4.714  15.152  0.00  0.00    +0.000 C 
BRANCH   8   9
ATOM      9  O   UNL     1      47.053   3.663  15.937  0.00  0.00    +0.000 OA
BRANCH   9  10
ATOM     10  C   UNL     1      47.443   3.750  17.315  0.00  0.00    +0.000 C 
BRANCH  10  11
ATOM     11  C   UNL     1      48.891   3.352  17.445  0.00  0.00    +0.000 A 
ATOM     12  C   UNL     1      49.807   4.182  18.110  0.00  0.00    +0.000 A 
ATOM     13  C   UNL     1      51.146   3.805  18.231  0.00  0.00    +0.000 A 
ATOM     14  C   UNL     1      51.585   2.601  17.682  0.00  0.00    +0.000 A 
ATOM     15  C   UNL     1      50.686   1.775  17.008  0.00  0.00    +0.000 A 
ATOM     16  C   UNL     1      49.347   2.149  16.887  0.00  0.00    +0.000 A 
ENDBRANCH  10  11
ENDBRANCH   9  10
ENDBRANCH   8   9
ENDBRANCH   1   8
BRANCH   4  17
ATOM     17  C   UNL     1      44.529   4.818  10.093  0.00  0.00    +0.000 C 
BRANCH  17  18
ATOM     18  O   UNL     1      44.518   3.525   9.487  0.00  0.00    +0.000 OA
BRANCH  18  19
ATOM     19  C   UNL     1      44.655   3.587   8.063  0.00  0.00    +0.000 C 
BRANCH  19  20
ATOM     20  C   UNL     1      45.876   2.813   7.634  0.00  0.00    +0.000 A 
ATOM     21  C   UNL     1      46.860   3.434   6.886  0.00  0.00    +0.000 A 
ATOM     22  C   UNL     1      47.951   2.663   6.556  0.00  0.00    +0.000 A 
ATOM     23  N   UNL     1      48.091   1.379   6.926  0.00  0.00    +0.000 NA
ATOM     24  C   UNL     1      47.083   0.872   7.652  0.00  0.00    +0.000 A 
ATOM     25  N   UNL     1      45.976   1.526   8.037  0.00  0.00    +0.000 NA
ENDBRANCH  19  20
ENDBRANCH  18  19
ENDBRANCH  17  18
ENDBRANCH   4  17
TORSDOF 8
ENDMDL
MODEL 6
REMARK VINA RESULT:    -6.606      1.616      2.331
REMARK INTER + INTRA:         -10.740
REMARK INTER:                  -9.975
REMARK INTRA:                  -0.765
REMARK UNBOUND:                -1.044
REMARK  Name = 
REMARK  8 active torsions:
REMARK  status: ('A' for Active; 'I' for Inactive)
REMARK    1  A    between atoms: C_2  and  O_3
REMARK    2  A    between atoms: C_2  and  C_11
REMARK    3  A    between atoms: O_3  and  C_4
REMARK    4  A    between atoms: C_4  and  C_5
REMARK    5  A    between atoms: C_14  and  C_15
REMARK    6  A    between atoms: C_15  and  O_16
REMARK    7  A    between atoms: O_16  and  C_17
REMARK    8  A    between atoms: C_17  and  C_18
REMARK                            x       y       z     vdW  Elec       q    Type
REMARK                         _______ _______ _______ _____ _____    ______ ____
ROOT
ATOM      1  C   UNL     1      45.385   4.688  11.715  0.00  0.00    +0.000 A 
ATOM      2  C   UNL     1      45.920   5.889  11.229  0.00  0.00    +0.000 A 
ATOM      3  C   UNL     1      46.863   6.600  11.977  0.00  0.00    +0.000 A 
ATOM      4  C   UNL     1      47.276   6.124  13.230  0.00  0.00    +0.000 A 
ATOM      5  C   UNL     1      46.751   4.918  13.709  0.00  0.00    +0.000 A 
ATOM      6  C   UNL     1      45.815   4.201  12.956  0.00  0.00    +0.000 A 
ENDROOT
BRANCH   1   8
ATOM      7  O   UNL     1      43.265   4.469  10.646  0.00  0.00    +0.000 OA
ATOM      8  C   UNL     1      44.359   3.988  10.891  0.00  0.00    +0.000 C 
BRANCH   8   9
ATOM      9  O   UNL     1      44.804   2.771  10.496  0.00  0.00    +0.000 OA
BRANCH   9  10
ATOM     10  C   UNL     1      44.388   2.338   9.193  0.00  0.00    +0.000 C 
BRANCH  10  11
ATOM     11  C   UNL     1      45.570   2.373   8.259  0.00  0.00    +0.000 A 
ATOM     12  C   UNL     1      46.365   1.233   8.063  0.00  0.00    +0.000 A 
ATOM     13  C   UNL     1      47.457   1.271   7.193  0.00  0.00    +0.000 A 
ATOM     14  C   UNL     1      47.770   2.448   6.516  0.00  0.00    +0.000 A 
ATOM     15  C   UNL     1      46.995   3.590   6.713  0.00  0.00    +0.000 A 
ATOM     16  C   UNL     1      45.904   3.555   7.582  0.00  0.00    +0.000 A 
ENDBRANCH  10  11
ENDBRANCH   9  10
ENDBRANCH   8   9
ENDBRANCH   1   8
BRANCH   4  17
ATOM     17  C   UNL     1      48.225   6.934  14.081  0.00  0.00    +0.000 C 
BRANCH  17  18
ATOM     18  O   UNL     1      48.730   6.162  15.171  0.00  0.00    +0.000 OA
BRANCH  18  19
ATOM     19  C   UNL     1      49.763   6.844  15.892  0.00  0.00    +0.000 C 
BRANCH  19  20
ATOM     20  C   UNL     1      49.583   6.622  17.372  0.00  0.00    +0.000 A 
ATOM     21  C   UNL     1      50.637   6.854  18.239  0.00  0.00    +0.000 A 
ATOM     22  C   UNL     1      50.382   6.649  19.575  0.00  0.00    +0.000 A 
ATOM     23  N   UNL     1      49.190   6.253  20.051  0.00  0.00    +0.000 NA
ATOM     24  C   UNL     1      48.234   6.059  19.129  0.00  0.00    +0.000 A 
ATOM     25  N   UNL     1      48.363   6.231  17.805  0.00  0.00    +0.000 NA
ENDBRANCH  19  20
ENDBRANCH  18  19
ENDBRANCH  17  18
ENDBRANCH   4  17
TORSDOF 8
ENDMDL
MODEL 7
REMARK VINA RESULT:    -6.562      3.631      8.167
REMARK INTER + INTRA:         -10.675
REMARK INTER:                  -9.666
REMARK INTRA:                  -1.009
REMARK UNBOUND:                -1.044
REMARK  Name = 
REMARK  8 active torsions:
REMARK  status: ('A' for Active; 'I' for Inactive)
REMARK    1  A    between atoms: C_2  and  O_3
REMARK    2  A    between atoms: C_2  and  C_11
REMARK    3  A    between atoms: O_3  and  C_4
REMARK    4  A    between atoms: C_4  and  C_5
REMARK    5  A    between atoms: C_14  and  C_15
REMARK    6  A    between atoms: C_15  and  O_16
REMARK    7  A    between atoms: O_16  and  C_17
REMARK    8  A    between atoms: C_17  and  C_18
REMARK                            x       y       z     vdW  Elec       q    Type
REMARK                         _______ _______ _______ _____ _____    ______ ____
ROOT
ATOM      1  C   UNL     1      46.938   5.434  13.097  0.00  0.00    +0.000 A 
ATOM      2  C   UNL     1      46.557   6.242  12.017  0.00  0.00    +0.000 A 
ATOM      3  C   UNL     1      45.514   5.852  11.172  0.00  0.00    +0.000 A 
ATOM      4  C   UNL     1      44.843   4.639  11.389  0.00  0.00    +0.000 A 
ATOM      5  C   UNL     1      45.215   3.840  12.476  0.00  0.00    +0.000 A 
ATOM      6  C   UNL     1      46.253   4.235  13.328  0.00  0.00    +0.000 A 
ENDROOT
BRANCH   1   8
ATOM      7  O   UNL     1      48.125   5.688  15.150  0.00  0.00    +0.000 OA
ATOM      8  C   UNL     1      48.078   5.882  13.946  0.00  0.00    +0.000 C 
BRANCH   8   9
ATOM      9  O   UNL     1      49.005   6.536  13.205  0.00  0.00    +0.000 OA
BRANCH   9  10
ATOM     10  C   UNL     1      49.734   7.574  13.875  0.00  0.00    +0.000 C 
BRANCH  10  11
ATOM     11  C   UNL     1      49.380   8.904  13.260  0.00  0.00    +0.000 A 
ATOM     12  C   UNL     1      49.011   8.995  11.910  0.00  0.00    +0.000 A 
ATOM     13  C   UNL     1      48.680  10.230  11.347  0.00  0.00    +0.000 A 
ATOM     14  C   UNL     1      48.723  11.386  12.125  0.00  0.00    +0.000 A 
ATOM     15  C   UNL     1      49.102  11.308  13.464  0.00  0.00    +0.000 A 
ATOM     16  C   UNL     1      49.432  10.076  14.029  0.00  0.00    +0.000 A 
ENDBRANCH  10  11
ENDBRANCH   9  10
ENDBRANCH   8   9
ENDBRANCH   1   8
BRANCH   4  17
ATOM     17  C   UNL     1      43.777   4.172  10.428  0.00  0.00    +0.000 C 
BRANCH  17  18
ATOM     18  O   UNL     1      44.276   3.157   9.555  0.00  0.00    +0.000 OA
BRANCH  18  19
ATOM     19  C   UNL     1      44.724   3.685   8.301  0.00  0.00    +0.000 C 
BRANCH  19  20
ATOM     20  C   UNL     1      45.890   2.875   7.795  0.00  0.00    +0.000 A 
ATOM     21  C   UNL     1      46.878   3.483   7.040  0.00  0.00    +0.000 A 
ATOM     22  C   UNL     1      47.918   2.678   6.637  0.00  0.00    +0.000 A 
ATOM     23  N   UNL     1      48.007   1.373   6.943  0.00  0.00    +0.000 NA
ATOM     24  C   UNL     1      47.001   0.880   7.680  0.00  0.00    +0.000 A 
ATOM     25  N   UNL     1      45.941   1.567   8.134  0.00  0.00    +0.000 NA
ENDBRANCH  19  20
ENDBRANCH  18  19
ENDBRANCH  17  18
ENDBRANCH   4  17
TORSDOF 8
ENDMDL
MODEL 8
REMARK VINA RESULT:    -6.547      3.799      8.078
REMARK INTER + INTRA:         -10.653
REMARK INTER:                  -9.430
REMARK INTRA:                  -1.223
REMARK UNBOUND:                -1.044
REMARK  Name = 
REMARK  8 active torsions:
REMARK  status: ('A' for Active; 'I' for Inactive)
REMARK    1  A    between atoms: C_2  and  O_3
REMARK    2  A    between atoms: C_2  and  C_11
REMARK    3  A    between atoms: O_3  and  C_4
REMARK    4  A    between atoms: C_4  and  C_5
REMARK    5  A    between atoms: C_14  and  C_15
REMARK    6  A    between atoms: C_15  and  O_16
REMARK    7  A    between atoms: O_16  and  C_17
REMARK    8  A    between atoms: C_17  and  C_18
REMARK                            x       y       z     vdW  Elec       q    Type
REMARK                         _______ _______ _______ _____ _____    ______ ____
ROOT
ATOM      1  C   UNL     1      46.854   6.178  12.522  0.00  0.00    +0.000 A 
ATOM      2  C   UNL     1      46.539   6.337  11.166  0.00  0.00    +0.000 A 
ATOM      3  C   UNL     1      45.492   5.611  10.591  0.00  0.00    +0.000 A 
ATOM      4  C   UNL     1      44.752   4.704  11.363  0.00  0.00    +0.000 A 
ATOM      5  C   UNL     1      45.059   4.555  12.721  0.00  0.00    +0.000 A 
ATOM      6  C   UNL     1      46.101   5.290  13.299  0.00  0.00    +0.000 A 
ENDROOT
BRANCH   1   8
ATOM      7  O   UNL     1      49.156   6.564  13.012  0.00  0.00    +0.000 OA
ATOM      8  C   UNL     1      48.001   6.953  13.075  0.00  0.00    +0.000 C 
BRANCH   8   9
ATOM      9  O   UNL     1      47.574   8.099  13.659  0.00  0.00    +0.000 OA
BRANCH   9  10
ATOM     10  C   UNL     1      48.000   9.321  13.040  0.00  0.00    +0.000 C 
BRANCH  10  11
ATOM     11  C   UNL     1      46.837   9.938  12.308  0.00  0.00    +0.000 A 
ATOM     12  C   UNL     1      47.037  10.981  11.391  0.00  0.00    +0.000 A 
ATOM     13  C   UNL     1      45.954  11.546  10.713  0.00  0.00    +0.000 A 
ATOM     14  C   UNL     1      44.662  11.081  10.950  0.00  0.00    +0.000 A 
ATOM     15  C   UNL     1      44.450  10.054  11.869  0.00  0.00    +0.000 A 
ATOM     16  C   UNL     1      45.530   9.487  12.547  0.00  0.00    +0.000 A 
ENDBRANCH  10  11
ENDBRANCH   9  10
ENDBRANCH   8   9
ENDBRANCH   1   8
BRANCH   4  17
ATOM     17  C   UNL     1      43.681   3.852  10.726  0.00  0.00    +0.000 C 
BRANCH  17  18
ATOM     18  O   UNL     1      44.075   3.411   9.426  0.00  0.00    +0.000 OA
BRANCH  18  19
ATOM     19  C   UNL     1      44.895   2.238   9.471  0.00  0.00    +0.000 C 
BRANCH  19  20
ATOM     20  C   UNL     1      45.904   2.277   8.352  0.00  0.00    +0.000 A 
ATOM     21  C   UNL     1      46.557   1.119   7.969  0.00  0.00    +0.000 A 
ATOM     22  C   UNL     1      47.445   1.238   6.925  0.00  0.00    +0.000 A 
ATOM     23  N   UNL     1      47.687   2.395   6.285  0.00  0.00    +0.000 NA
ATOM     24  C   UNL     1      47.001   3.458   6.731  0.00  0.00    +0.000 A 
ATOM     25  N   UNL     1      46.109   3.463   7.733  0.00  0.00    +0.000 NA
ENDBRANCH  19  20
ENDBRANCH  18  19
ENDBRANCH  17  18
ENDBRANCH   4  17
TORSDOF 8
ENDMDL
MODEL 9
REMARK VINA RESULT:    -6.379      3.112      8.402
REMARK INTER + INTRA:         -10.406
REMARK INTER:                  -9.213
REMARK INTRA:                  -1.193
REMARK UNBOUND:                -1.044
REMARK  Name = 
REMARK  8 active torsions:
REMARK  status: ('A' for Active; 'I' for Inactive)
REMARK    1  A    between atoms: C_2  and  O_3
REMARK    2  A    between atoms: C_2  and  C_11
REMARK    3  A    between atoms: O_3  and  C_4
REMARK    4  A    between atoms: C_4  and  C_5
REMARK    5  A    between atoms: C_14  and  C_15
REMARK    6  A    between atoms: C_15  and  O_16
REMARK    7  A    between atoms: O_16  and  C_17
REMARK    8  A    between atoms: C_17  and  C_18
REMARK                            x       y       z     vdW  Elec       q    Type
REMARK                         _______ _______ _______ _____ _____    ______ ____
ROOT
ATOM      1  C   UNL     1      47.311   6.343  13.042  0.00  0.00    +0.000 A 
ATOM      2  C   UNL     1      46.365   7.124  12.363  0.00  0.00    +0.000 A 
ATOM      3  C   UNL     1      45.023   6.733  12.317  0.00  0.00    +0.000 A 
ATOM      4  C   UNL     1      44.610   5.547  12.941  0.00  0.00    +0.000 A 
ATOM      5  C   UNL     1      45.553   4.775  13.630  0.00  0.00    +0.000 A 
ATOM      6  C   UNL     1      46.894   5.171  13.684  0.00  0.00    +0.000 A 
ENDROOT
BRANCH   1   8
ATOM      7  O   UNL     1      49.262   7.292  12.053  0.00  0.00    +0.000 OA
ATOM      8  C   UNL     1      48.733   6.789  13.031  0.00  0.00    +0.000 C 
BRANCH   8   9
ATOM      9  O   UNL     1      49.328   6.536  14.221  0.00  0.00    +0.000 OA
BRANCH   9  10
ATOM     10  C   UNL     1      49.340   7.616  15.166  0.00  0.00    +0.000 C 
BRANCH  10  11
ATOM     11  C   UNL     1      48.824   7.120  16.492  0.00  0.00    +0.000 A 
ATOM     12  C   UNL     1      48.494   8.021  17.516  0.00  0.00    +0.000 A 
ATOM     13  C   UNL     1      48.013   7.554  18.742  0.00  0.00    +0.000 A 
ATOM     14  C   UNL     1      47.865   6.185  18.959  0.00  0.00    +0.000 A 
ATOM     15  C   UNL     1      48.203   5.282  17.953  0.00  0.00    +0.000 A 
ATOM     16  C   UNL     1      48.683   5.745  16.727  0.00  0.00    +0.000 A 
ENDBRANCH  10  11
ENDBRANCH   9  10
ENDBRANCH   8   9
ENDBRANCH   1   8
BRANCH   4  17
ATOM     17  C   UNL     1      43.181   5.075  12.817  0.00  0.00    +0.000 C 
BRANCH  17  18
ATOM     18  O   UNL     1      42.904   4.603  11.498  0.00  0.00    +0.000 OA
BRANCH  18  19
ATOM     19  C   UNL     1      43.400   3.278  11.276  0.00  0.00    +0.000 C 
BRANCH  19  20
ATOM     20  C   UNL     1      44.318   3.270  10.080  0.00  0.00    +0.000 A 
ATOM     21  C   UNL     1      44.715   2.069   9.521  0.00  0.00    +0.000 A 
ATOM     22  C   UNL     1      45.533   2.152   8.419  0.00  0.00    +0.000 A 
ATOM     23  N   UNL     1      45.941   3.314   7.883  0.00  0.00    +0.000 NA
ATOM     24  C   UNL     1      45.499   4.422   8.498  0.00  0.00    +0.000 A 
ATOM     25  N   UNL     1      44.696   4.465   9.572  0.00  0.00    +0.000 NA
ENDBRANCH  19  20
ENDBRANCH  18  19
ENDBRANCH  17  18
ENDBRANCH   4  17
TORSDOF 8
ENDMDL
