MODEL 1
REMARK VINA RESULT:    -7.853      0.000      0.000
REMARK INTER + INTRA:         -12.039
REMARK INTER:                 -11.067
REMARK INTRA:                  -0.973
REMARK UNBOUND:                -0.973
REMARK  Name = 
REMARK  7 active torsions:
REMARK  status: ('A' for Active; 'I' for Inactive)
REMARK    1  A    between atoms: C_2  and  C_11
REMARK    2  A    between atoms: N_3  and  C_4
REMARK    3  A    between atoms: C_4  and  C_5
REMARK    4  A    between atoms: C_14  and  C_15
REMARK    5  A    between atoms: C_15  and  N_16
REMARK    6  A    between atoms: N_16  and  C_17
REMARK    7  A    between atoms: C_17  and  C_18
REMARK                            x       y       z     vdW  Elec       q    Type
REMARK                         _______ _______ _______ _____ _____    ______ ____
ROOT
ATOM      1  C   UNL     1      46.806   5.992  12.927  0.00  0.00    +0.000 A 
ATOM      2  C   UNL     1      45.819   5.111  13.380  0.00  0.00    +0.000 A 
ATOM      3  C   UNL     1      44.746   4.767  12.553  0.00  0.00    +0.000 A 
ATOM      4  C   UNL     1      44.649   5.292  11.254  0.00  0.00    +0.000 A 
ATOM      5  C   UNL     1      45.642   6.180  10.810  0.00  0.00    +0.000 A 
ATOM      6  C   UNL     1      46.717   6.528  11.638  0.00  0.00    +0.000 A 
ENDROOT
BRANCH   1   8
ATOM      7  O   UNL     1      49.070   6.477  13.337  0.00  0.00    +0.000 OA
ATOM      8  C   UNL     1      47.961   6.266  13.819  0.00  0.00    +0.000 C 
ATOM      9  N   UNL     1      47.721   6.239  15.178  0.00  0.00    +0.000 N 
ATOM     10  H   UNL     1      46.853   5.844  15.516  0.00  0.00    +0.000 HD
BRANCH   9  11
ATOM     11  C   UNL     1      48.819   6.442  16.103  0.00  0.00    +0.000 C 
BRANCH  11  12
ATOM     12  C   UNL     1      49.046   5.256  17.050  0.00  0.00    +0.000 C 
ATOM     13  C   UNL     1      50.535   4.876  17.114  0.00  0.00    +0.000 C 
ATOM     14  C   UNL     1      50.772   3.643  17.979  0.00  0.00    +0.000 C 
ATOM     15  C   UNL     1      49.937   2.460  17.503  0.00  0.00    +0.000 C 
ATOM     16  C   UNL     1      48.454   2.812  17.457  0.00  0.00    +0.000 C 
ATOM     17  C   UNL     1      48.198   4.053  16.602  0.00  0.00    +0.000 C 
ENDBRANCH  11  12
ENDBRANCH   9  11
ENDBRANCH   1   8
BRANCH   4  18
ATOM     18  C   UNL     1      43.530   4.860  10.328  0.00  0.00    +0.000 C 
BRANCH  18  19
ATOM     19  N   UNL     1      44.046   4.289   9.088  0.00  0.00    +0.000 NA
ATOM     20  H   UNL     1      44.812   4.869   8.746  0.00  0.00    +0.000 HD
BRANCH  19  21
ATOM     21  C   UNL     1      44.533   2.923   9.284  0.00  0.00    +0.000 C 
BRANCH  21  22
ATOM     22  C   UNL     1      45.622   2.607   8.295  0.00  0.00    +0.000 A 
ATOM     23  C   UNL     1      46.130   3.586   7.435  0.00  0.00    +0.000 A 
ATOM     24  C   UNL     1      47.162   3.272   6.557  0.00  0.00    +0.000 A 
ATOM     25  C   UNL     1      47.651   1.977   6.560  0.00  0.00    +0.000 A 
ATOM     26  N   UNL     1      47.181   0.997   7.362  0.00  0.00    +0.000 NA
ATOM     27  C   UNL     1      46.180   1.335   8.209  0.00  0.00    +0.000 A 
ENDBRANCH  21  22
ENDBRANCH  19  21
ENDBRANCH  18  19
ENDBRANCH   4  18
TORSDOF 7
ENDMDL
MODEL 2
REMARK VINA RESULT:    -7.603      0.835      1.587
REMARK INTER + INTRA:         -11.686
REMARK INTER:                 -10.670
REMARK INTRA:                  -1.017
REMARK UNBOUND:                -0.973
REMARK  Name = 
REMARK  7 active torsions:
REMARK  status: ('A' for Active; 'I' for Inactive)
REMARK    1  A    between atoms: C_2  and  C_11
REMARK    2  A    between atoms: N_3  and  C_4
REMARK    3  A    between atoms: C_4  and  C_5
REMARK    4  A    between atoms: C_14  and  C_15
REMARK    5  A    between atoms: C_15  and  N_16
REMARK    6  A    between atoms: N_16  and  C_17
REMARK    7  A    between atoms: C_17  and  C_18
REMARK                            x       y       z     vdW  Elec       q    Type
REMARK                         _______ _______ _______ _____ _____    ______ ____
ROOT
ATOM      1  C   UNL     1      46.970   5.880  13.009  0.00  0.00    +0.000 A 
ATOM      2  C   UNL     1      46.801   6.474  11.753  0.00  0.00    +0.000 A 
ATOM      3  C   UNL     1      45.712   6.128  10.949  0.00  0.00    +0.000 A 
ATOM      4  C   UNL     1      44.767   5.190  11.392  0.00  0.00    +0.000 A 
ATOM      5  C   UNL     1      44.947   4.594  12.651  0.00  0.00    +0.000 A 
ATOM      6  C   UNL     1      46.039   4.937  13.458  0.00  0.00    +0.000 A 
ENDROOT
BRANCH   1   8
ATOM      7  O   UNL     1      49.190   6.580  13.334  0.00  0.00    +0.000 OA
ATOM      8  C   UNL     1      48.104   6.337  13.851  0.00  0.00    +0.000 C 
ATOM      9  N   UNL     1      47.874   6.436  15.208  0.00  0.00    +0.000 N 
ATOM     10  H   UNL     1      47.041   6.013  15.598  0.00  0.00    +0.000 HD
BRANCH   9  11
ATOM     11  C   UNL     1      48.958   6.820  16.091  0.00  0.00    +0.000 C 
BRANCH  11  12
ATOM     12  C   UNL     1      49.358   5.719  17.082  0.00  0.00    +0.000 C 
ATOM     13  C   UNL     1      48.398   4.520  16.992  0.00  0.00    +0.000 C 
ATOM     14  C   UNL     1      48.722   3.451  18.031  0.00  0.00    +0.000 C 
ATOM     15  C   UNL     1      48.727   4.029  19.441  0.00  0.00    +0.000 C 
ATOM     16  C   UNL     1      49.691   5.204  19.554  0.00  0.00    +0.000 C 
ATOM     17  C   UNL     1      49.388   6.282  18.514  0.00  0.00    +0.000 C 
ENDBRANCH  11  12
ENDBRANCH   9  11
ENDBRANCH   1   8
BRANCH   4  18
ATOM     18  C   UNL     1      43.544   4.871  10.556  0.00  0.00    +0.000 C 
BRANCH  18  19
ATOM     19  N   UNL     1      43.909   4.311   9.258  0.00  0.00    +0.000 NA
ATOM     20  H   UNL     1      44.652   4.876   8.847  0.00  0.00    +0.000 HD
BRANCH  19  21
ATOM     21  C   UNL     1      44.372   2.928   9.379  0.00  0.00    +0.000 C 
BRANCH  21  22
ATOM     22  C   UNL     1      45.502   2.667   8.420  0.00  0.00    +0.000 A 
ATOM     23  C   UNL     1      46.045   3.694   7.640  0.00  0.00    +0.000 A 
ATOM     24  C   UNL     1      47.113   3.428   6.789  0.00  0.00    +0.000 A 
ATOM     25  C   UNL     1      47.603   2.134   6.738  0.00  0.00    +0.000 A 
ATOM     26  N   UNL     1      47.099   1.111   7.461  0.00  0.00    +0.000 NA
ATOM     27  C   UNL     1      46.064   1.401   8.284  0.00  0.00    +0.000 A 
ENDBRANCH  21  22
ENDBRANCH  19  21
ENDBRANCH  18  19
ENDBRANCH   4  18
TORSDOF 7
ENDMDL
MODEL 3
REMARK VINA RESULT:    -7.398      1.523      2.534
REMARK INTER + INTRA:         -11.398
REMARK INTER:                 -10.400
REMARK INTRA:                  -0.998
REMARK UNBOUND:                -0.973
REMARK  Name = 
REMARK  7 active torsions:
REMARK  status: ('A' for Active; 'I' for Inactive)
REMARK    1  A    between atoms: C_2  and  C_11
REMARK    2  A    between atoms: N_3  and  C_4
REMARK    3  A    between atoms: C_4  and  C_5
REMARK    4  A    between atoms: C_14  and  C_15
REMARK    5  A    between atoms: C_15  and  N_16
REMARK    6  A    between atoms: N_16  and  C_17
REMARK    7  A    between atoms: C_17  and  C_18
REMARK                            x       y       z     vdW  Elec       q    Type
REMARK                         _______ _______ _______ _____ _____    ______ ____
ROOT
ATOM      1  C   UNL     1      46.849   6.037  13.110  0.00  0.00    +0.000 A 
ATOM      2  C   UNL     1      45.852   5.197  13.617  0.00  0.00    +0.000 A 
ATOM      3  C   UNL     1      44.711   4.921  12.859  0.00  0.00    +0.000 A 
ATOM      4  C   UNL     1      44.553   5.471  11.577  0.00  0.00    +0.000 A 
ATOM      5  C   UNL     1      45.558   6.317  11.080  0.00  0.00    +0.000 A 
ATOM      6  C   UNL     1      46.701   6.598  11.838  0.00  0.00    +0.000 A 
ENDROOT
BRANCH   1   8
ATOM      7  O   UNL     1      49.134   6.521  13.378  0.00  0.00    +0.000 OA
ATOM      8  C   UNL     1      48.073   6.240  13.926  0.00  0.00    +0.000 C 
ATOM      9  N   UNL     1      47.951   6.067  15.290  0.00  0.00    +0.000 N 
ATOM     10  H   UNL     1      47.119   5.621  15.656  0.00  0.00    +0.000 HD
BRANCH   9  11
ATOM     11  C   UNL     1      49.122   6.193  16.135  0.00  0.00    +0.000 C 
BRANCH  11  12
ATOM     12  C   UNL     1      48.930   7.171  17.302  0.00  0.00    +0.000 C 
ATOM     13  C   UNL     1      48.007   6.575  18.377  0.00  0.00    +0.000 C 
ATOM     14  C   UNL     1      47.729   7.565  19.504  0.00  0.00    +0.000 C 
ATOM     15  C   UNL     1      47.152   8.870  18.968  0.00  0.00    +0.000 C 
ATOM     16  C   UNL     1      48.067   9.488  17.916  0.00  0.00    +0.000 C 
ATOM     17  C   UNL     1      48.366   8.506  16.784  0.00  0.00    +0.000 C 
ENDBRANCH  11  12
ENDBRANCH   9  11
ENDBRANCH   1   8
BRANCH   4  18
ATOM     18  C   UNL     1      43.355   5.111  10.723  0.00  0.00    +0.000 C 
BRANCH  18  19
ATOM     19  N   UNL     1      43.757   4.516   9.453  0.00  0.00    +0.000 NA
ATOM     20  H   UNL     1      44.501   5.078   9.041  0.00  0.00    +0.000 HD
BRANCH  19  21
ATOM     21  C   UNL     1      44.238   3.145   9.628  0.00  0.00    +0.000 C 
BRANCH  21  22
ATOM     22  C   UNL     1      45.329   2.840   8.637  0.00  0.00    +0.000 A 
ATOM     23  C   UNL     1      45.909   3.850   7.861  0.00  0.00    +0.000 A 
ATOM     24  C   UNL     1      46.940   3.543   6.980  0.00  0.00    +0.000 A 
ATOM     25  C   UNL     1      47.356   2.225   6.894  0.00  0.00    +0.000 A 
ATOM     26  N   UNL     1      46.814   1.217   7.611  0.00  0.00    +0.000 NA
ATOM     27  C   UNL     1      45.816   1.548   8.464  0.00  0.00    +0.000 A 
ENDBRANCH  21  22
ENDBRANCH  19  21
ENDBRANCH  18  19
ENDBRANCH   4  18
TORSDOF 7
ENDMDL
MODEL 4
REMARK VINA RESULT:    -7.360      1.829      8.456
REMARK INTER + INTRA:         -11.344
REMARK INTER:                 -10.358
REMARK INTRA:                  -0.986
REMARK UNBOUND:                -0.973
REMARK  Name = 
REMARK  7 active torsions:
REMARK  status: ('A' for Active; 'I' for Inactive)
REMARK    1  A    between atoms: C_2  and  C_11
REMARK    2  A    between atoms: N_3  and  C_4
REMARK    3  A    between atoms: C_4  and  C_5
REMARK    4  A    between atoms: C_14  and  C_15
REMARK    5  A    between atoms: C_15  and  N_16
REMARK    6  A    between atoms: N_16  and  C_17
REMARK    7  A    between atoms: C_17  and  C_18
REMARK                            x       y       z     vdW  Elec       q    Type
REMARK                         _______ _______ _______ _____ _____    ______ ____
ROOT
ATOM      1  C   UNL     1      45.821   5.592  12.051  0.00  0.00    +0.000 A 
ATOM      2  C   UNL     1      46.375   6.853  11.811  0.00  0.00    +0.000 A 
ATOM      3  C   UNL     1      47.334   7.380  12.679  0.00  0.00    +0.000 A 
ATOM      4  C   UNL     1      47.764   6.648  13.798  0.00  0.00    +0.000 A 
ATOM      5  C   UNL     1      47.198   5.385  14.034  0.00  0.00    +0.000 A 
ATOM      6  C   UNL     1      46.234   4.856  13.166  0.00  0.00    +0.000 A 
ENDROOT
BRANCH   1   8
ATOM      7  O   UNL     1      43.715   4.771  11.404  0.00  0.00    +0.000 OA
ATOM      8  C   UNL     1      44.860   5.050  11.058  0.00  0.00    +0.000 C 
ATOM      9  N   UNL     1      45.328   4.858   9.774  0.00  0.00    +0.000 N 
ATOM     10  H   UNL     1      46.325   4.892   9.605  0.00  0.00    +0.000 HD
BRANCH   9  11
ATOM     11  C   UNL     1      44.455   4.277   8.773  0.00  0.00    +0.000 C 
BRANCH  11  12
ATOM     12  C   UNL     1      45.141   3.210   7.909  0.00  0.00    +0.000 C 
ATOM     13  C   UNL     1      45.573   2.005   8.761  0.00  0.00    +0.000 C 
ATOM     14  C   UNL     1      46.338   0.971   7.939  0.00  0.00    +0.000 C 
ATOM     15  C   UNL     1      47.542   1.594   7.244  0.00  0.00    +0.000 C 
ATOM     16  C   UNL     1      47.128   2.778   6.376  0.00  0.00    +0.000 C 
ATOM     17  C   UNL     1      46.351   3.820   7.180  0.00  0.00    +0.000 C 
ENDBRANCH  11  12
ENDBRANCH   9  11
ENDBRANCH   1   8
BRANCH   4  18
ATOM     18  C   UNL     1      48.860   7.183  14.697  0.00  0.00    +0.000 C 
BRANCH  18  19
ATOM     19  N   UNL     1      48.362   7.478  16.037  0.00  0.00    +0.000 NA
ATOM     20  H   UNL     1      47.459   7.021  16.166  0.00  0.00    +0.000 HD
BRANCH  19  21
ATOM     21  C   UNL     1      49.286   7.010  17.071  0.00  0.00    +0.000 C 
BRANCH  21  22
ATOM     22  C   UNL     1      49.186   5.516  17.227  0.00  0.00    +0.000 A 
ATOM     23  C   UNL     1      47.953   4.888  17.430  0.00  0.00    +0.000 A 
ATOM     24  C   UNL     1      47.889   3.502  17.535  0.00  0.00    +0.000 A 
ATOM     25  C   UNL     1      49.069   2.784  17.441  0.00  0.00    +0.000 A 
ATOM     26  N   UNL     1      50.281   3.351  17.262  0.00  0.00    +0.000 NA
ATOM     27  C   UNL     1      50.311   4.700  17.158  0.00  0.00    +0.000 A 
ENDBRANCH  21  22
ENDBRANCH  19  21
ENDBRANCH  18  19
ENDBRANCH   4  18
TORSDOF 7
ENDMDL
MODEL 5
REMARK VINA RESULT:    -6.880      2.196      8.665
REMARK INTER + INTRA:         -10.669
REMARK INTER:                  -9.984
REMARK INTRA:                  -0.684
REMARK UNBOUND:                -0.973
REMARK  Name = 
REMARK  7 active torsions:
REMARK  status: ('A' for Active; 'I' for Inactive)
REMARK    1  A    between atoms: C_2  and  C_11
REMARK    2  A    between atoms: N_3  and  C_4
REMARK    3  A    between atoms: C_4  and  C_5
REMARK    4  A    between atoms: C_14  and  C_15
REMARK    5  A    between atoms: C_15  and  N_16
REMARK    6  A    between atoms: N_16  and  C_17
REMARK    7  A    between atoms: C_17  and  C_18
REMARK                            x       y       z     vdW  Elec       q    Type
REMARK                         _______ _______ _______ _____ _____    ______ ____
ROOT
ATOM      1  C   UNL     1      46.303   5.339  12.556  0.00  0.00    +0.000 A 
ATOM      2  C   UNL     1      46.007   4.292  13.436  0.00  0.00    +0.000 A 
ATOM      3  C   UNL     1      46.603   4.241  14.698  0.00  0.00    +0.000 A 
ATOM      4  C   UNL     1      47.498   5.242  15.107  0.00  0.00    +0.000 A 
ATOM      5  C   UNL     1      47.793   6.286  14.216  0.00  0.00    +0.000 A 
ATOM      6  C   UNL     1      47.200   6.338  12.949  0.00  0.00    +0.000 A 
ENDROOT
BRANCH   1   8
ATOM      7  O   UNL     1      45.453   6.453  10.669  0.00  0.00    +0.000 OA
ATOM      8  C   UNL     1      45.588   5.383  11.256  0.00  0.00    +0.000 C 
ATOM      9  N   UNL     1      45.075   4.193  10.783  0.00  0.00    +0.000 N 
ATOM     10  H   UNL     1      45.021   3.398  11.409  0.00  0.00    +0.000 HD
BRANCH   9  11
ATOM     11  C   UNL     1      44.316   4.180   9.548  0.00  0.00    +0.000 C 
BRANCH  11  12
ATOM     12  C   UNL     1      44.936   3.295   8.459  0.00  0.00    +0.000 C 
ATOM     13  C   UNL     1      45.517   2.004   9.061  0.00  0.00    +0.000 C 
ATOM     14  C   UNL     1      46.218   1.150   8.010  0.00  0.00    +0.000 C 
ATOM     15  C   UNL     1      47.304   1.938   7.287  0.00  0.00    +0.000 C 
ATOM     16  C   UNL     1      46.741   3.210   6.664  0.00  0.00    +0.000 C 
ATOM     17  C   UNL     1      46.024   4.075   7.701  0.00  0.00    +0.000 C 
ENDBRANCH  11  12
ENDBRANCH   9  11
ENDBRANCH   1   8
BRANCH   4  18
ATOM     18  C   UNL     1      48.084   5.230  16.504  0.00  0.00    +0.000 C 
BRANCH  18  19
ATOM     19  N   UNL     1      49.378   4.556  16.540  0.00  0.00    +0.000 NA
ATOM     20  H   UNL     1      50.084   5.203  16.891  0.00  0.00    +0.000 HD
BRANCH  19  21
ATOM     21  C   UNL     1      49.346   3.373  17.400  0.00  0.00    +0.000 C 
BRANCH  21  22
ATOM     22  C   UNL     1      50.735   2.829  17.597  0.00  0.00    +0.000 A 
ATOM     23  C   UNL     1      51.758   3.623  18.126  0.00  0.00    +0.000 A 
ATOM     24  C   UNL     1      53.023   3.081  18.330  0.00  0.00    +0.000 A 
ATOM     25  C   UNL     1      53.229   1.755  17.989  0.00  0.00    +0.000 A 
ATOM     26  N   UNL     1      52.275   0.957  17.463  0.00  0.00    +0.000 NA
ATOM     27  C   UNL     1      51.053   1.511  17.280  0.00  0.00    +0.000 A 
ENDBRANCH  21  22
ENDBRANCH  19  21
ENDBRANCH  18  19
ENDBRANCH   4  18
TORSDOF 7
ENDMDL
MODEL 6
REMARK VINA RESULT:    -6.728      3.286      9.625
REMARK INTER + INTRA:         -10.454
REMARK INTER:                 -10.116
REMARK INTRA:                  -0.339
REMARK UNBOUND:                -0.973
REMARK  Name = 
REMARK  7 active torsions:
REMARK  status: ('A' for Active; 'I' for Inactive)
REMARK    1  A    between atoms: C_2  and  C_11
REMARK    2  A    between atoms: N_3  and  C_4
REMARK    3  A    between atoms: C_4  and  C_5
REMARK    4  A    between atoms: C_14  and  C_15
REMARK    5  A    between atoms: C_15  and  N_16
REMARK    6  A    between atoms: N_16  and  C_17
REMARK    7  A    between atoms: C_17  and  C_18
REMARK                            x       y       z     vdW  Elec       q    Type
REMARK                         _______ _______ _______ _____ _____    ______ ____
ROOT
ATOM      1  C   UNL     1      45.967   2.293   7.883  0.00  0.00    +0.000 A 
ATOM      2  C   UNL     1      46.019   3.687   7.773  0.00  0.00    +0.000 A 
ATOM      3  C   UNL     1      45.236   4.490   8.607  0.00  0.00    +0.000 A 
ATOM      4  C   UNL     1      44.397   3.912   9.572  0.00  0.00    +0.000 A 
ATOM      5  C   UNL     1      44.347   2.512   9.672  0.00  0.00    +0.000 A 
ATOM      6  C   UNL     1      45.128   1.705   8.835  0.00  0.00    +0.000 A 
ENDROOT
BRANCH   1   8
ATOM      7  O   UNL     1      47.579   0.620   7.522  0.00  0.00    +0.000 OA
ATOM      8  C   UNL     1      46.872   1.490   7.022  0.00  0.00    +0.000 C 
ATOM      9  N   UNL     1      46.889   1.795   5.677  0.00  0.00    +0.000 N 
ATOM     10  H   UNL     1      46.461   2.658   5.363  0.00  0.00    +0.000 HD
BRANCH   9  11
ATOM     11  C   UNL     1      47.794   1.087   4.793  0.00  0.00    +0.000 C 
BRANCH  11  12
ATOM     12  C   UNL     1      47.125   0.590   3.505  0.00  0.00    +0.000 C 
ATOM     13  C   UNL     1      45.788   1.312   3.262  0.00  0.00    +0.000 C 
ATOM     14  C   UNL     1      45.062   0.770   2.035  0.00  0.00    +0.000 C 
ATOM     15  C   UNL     1      44.846  -0.735   2.136  0.00  0.00    +0.000 C 
ATOM     16  C   UNL     1      46.164  -1.470   2.354  0.00  0.00    +0.000 C 
ATOM     17  C   UNL     1      46.912  -0.933   3.574  0.00  0.00    +0.000 C 
ENDBRANCH  11  12
ENDBRANCH   9  11
ENDBRANCH   1   8
BRANCH   4  18
ATOM     18  C   UNL     1      43.607   4.783  10.529  0.00  0.00    +0.000 C 
BRANCH  18  19
ATOM     19  N   UNL     1      42.897   3.984  11.523  0.00  0.00    +0.000 NA
ATOM     20  H   UNL     1      43.196   3.012  11.447  0.00  0.00    +0.000 HD
BRANCH  19  21
ATOM     21  C   UNL     1      43.158   4.457  12.883  0.00  0.00    +0.000 C 
BRANCH  21  22
ATOM     22  C   UNL     1      44.542   5.038  12.980  0.00  0.00    +0.000 A 
ATOM     23  C   UNL     1      45.640   4.245  13.332  0.00  0.00    +0.000 A 
ATOM     24  C   UNL     1      46.913   4.803  13.379  0.00  0.00    +0.000 A 
ATOM     25  C   UNL     1      47.049   6.147  13.078  0.00  0.00    +0.000 A 
ATOM     26  N   UNL     1      46.017   6.953  12.749  0.00  0.00    +0.000 NA
ATOM     27  C   UNL     1      44.790   6.380  12.708  0.00  0.00    +0.000 A 
ENDBRANCH  21  22
ENDBRANCH  19  21
ENDBRANCH  18  19
ENDBRANCH   4  18
TORSDOF 7
ENDMDL
MODEL 7
REMARK VINA RESULT:    -6.700      2.734      4.805
REMARK INTER + INTRA:         -10.414
REMARK INTER:                  -9.763
REMARK INTRA:                  -0.652
REMARK UNBOUND:                -0.973
REMARK  Name = 
REMARK  7 active torsions:
REMARK  status: ('A' for Active; 'I' for Inactive)
REMARK    1  A    between atoms: C_2  and  C_11
REMARK    2  A    between atoms: N_3  and  C_4
REMARK    3  A    between atoms: C_4  and  C_5
REMARK    4  A    between atoms: C_14  and  C_15
REMARK    5  A    between atoms: C_15  and  N_16
REMARK    6  A    between atoms: N_16  and  C_17
REMARK    7  A    between atoms: C_17  and  C_18
REMARK                            x       y       z     vdW  Elec       q    Type
REMARK                         _______ _______ _______ _____ _____    ______ ____
ROOT
ATOM      1  C   UNL     1      46.987   5.537  12.933  0.00  0.00    +0.000 A 
ATOM      2  C   UNL     1      46.135   6.137  12.000  0.00  0.00    +0.000 A 
ATOM      3  C   UNL     1      45.073   5.416  11.448  0.00  0.00    +0.000 A 
ATOM      4  C   UNL     1      44.839   4.085  11.829  0.00  0.00    +0.000 A 
ATOM      5  C   UNL     1      45.703   3.490  12.762  0.00  0.00    +0.000 A 
ATOM      6  C   UNL     1      46.769   4.209  13.314  0.00  0.00    +0.000 A 
ENDROOT
BRANCH   1   8
ATOM      7  O   UNL     1      48.415   6.157  14.695  0.00  0.00    +0.000 OA
ATOM      8  C   UNL     1      48.056   6.370  13.540  0.00  0.00    +0.000 C 
ATOM      9  N   UNL     1      48.578   7.383  12.762  0.00  0.00    +0.000 N 
ATOM     10  H   UNL     1      48.093   7.651  11.915  0.00  0.00    +0.000 HD
BRANCH   9  11
ATOM     11  C   UNL     1      49.582   8.268  13.319  0.00  0.00    +0.000 C 
BRANCH  11  12
ATOM     12  C   UNL     1      49.566   9.673  12.703  0.00  0.00    +0.000 C 
ATOM     13  C   UNL     1      48.335   9.868  11.802  0.00  0.00    +0.000 C 
ATOM     14  C   UNL     1      48.345  11.226  11.108  0.00  0.00    +0.000 C 
ATOM     15  C   UNL     1      49.627  11.434  10.312  0.00  0.00    +0.000 C 
ATOM     16  C   UNL     1      50.860  11.268  11.195  0.00  0.00    +0.000 C 
ATOM     17  C   UNL     1      50.862   9.916  11.908  0.00  0.00    +0.000 C 
ENDBRANCH  11  12
ENDBRANCH   9  11
ENDBRANCH   1   8
BRANCH   4  18
ATOM     18  C   UNL     1      43.642   3.327  11.292  0.00  0.00    +0.000 C 
BRANCH  18  19
ATOM     19  N   UNL     1      43.992   2.524  10.125  0.00  0.00    +0.000 NA
ATOM     20  H   UNL     1      43.177   1.986   9.831  0.00  0.00    +0.000 HD
BRANCH  19  21
ATOM     21  C   UNL     1      44.439   3.359   9.009  0.00  0.00    +0.000 C 
BRANCH  21  22
ATOM     22  C   UNL     1      45.527   2.664   8.235  0.00  0.00    +0.000 A 
ATOM     23  C   UNL     1      46.279   3.342   7.270  0.00  0.00    +0.000 A 
ATOM     24  C   UNL     1      47.302   2.682   6.598  0.00  0.00    +0.000 A 
ATOM     25  C   UNL     1      47.536   1.352   6.906  0.00  0.00    +0.000 A 
ATOM     26  N   UNL     1      46.825   0.656   7.818  0.00  0.00    +0.000 NA
ATOM     27  C   UNL     1      45.839   1.326   8.460  0.00  0.00    +0.000 A 
ENDBRANCH  21  22
ENDBRANCH  19  21
ENDBRANCH  18  19
ENDBRANCH   4  18
TORSDOF 7
ENDMDL
MODEL 8
REMARK VINA RESULT:    -6.530      3.297      4.387
REMARK INTER + INTRA:         -10.174
REMARK INTER:                  -9.380
REMARK INTRA:                  -0.795
REMARK UNBOUND:                -0.973
REMARK  Name = 
REMARK  7 active torsions:
REMARK  status: ('A' for Active; 'I' for Inactive)
REMARK    1  A    between atoms: C_2  and  C_11
REMARK    2  A    between atoms: N_3  and  C_4
REMARK    3  A    between atoms: C_4  and  C_5
REMARK    4  A    between atoms: C_14  and  C_15
REMARK    5  A    between atoms: C_15  and  N_16
REMARK    6  A    between atoms: N_16  and  C_17
REMARK    7  A    between atoms: C_17  and  C_18
REMARK                            x       y       z     vdW  Elec       q    Type
REMARK                         _______ _______ _______ _____ _____    ______ ____
ROOT
ATOM      1  C   UNL     1      45.983   6.947  12.335  0.00  0.00    +0.000 A 
ATOM      2  C   UNL     1      46.449   5.707  12.784  0.00  0.00    +0.000 A 
ATOM      3  C   UNL     1      45.691   4.551  12.576  0.00  0.00    +0.000 A 
ATOM      4  C   UNL     1      44.459   4.616  11.906  0.00  0.00    +0.000 A 
ATOM      5  C   UNL     1      43.997   5.866  11.464  0.00  0.00    +0.000 A 
ATOM      6  C   UNL     1      44.754   7.026  11.674  0.00  0.00    +0.000 A 
ENDROOT
BRANCH   1   8
ATOM      7  O   UNL     1      46.386   9.260  12.446  0.00  0.00    +0.000 OA
ATOM      8  C   UNL     1      46.861   8.131  12.519  0.00  0.00    +0.000 C 
ATOM      9  N   UNL     1      48.201   7.888  12.737  0.00  0.00    +0.000 N 
ATOM     10  H   UNL     1      48.566   6.960  12.564  0.00  0.00    +0.000 HD
BRANCH   9  11
ATOM     11  C   UNL     1      49.119   9.003  12.865  0.00  0.00    +0.000 C 
BRANCH  11  12
ATOM     12  C   UNL     1      50.508   8.720  12.277  0.00  0.00    +0.000 C 
ATOM     13  C   UNL     1      51.146  10.006  11.724  0.00  0.00    +0.000 C 
ATOM     14  C   UNL     1      52.488   9.734  11.053  0.00  0.00    +0.000 C 
ATOM     15  C   UNL     1      52.359   8.686   9.955  0.00  0.00    +0.000 C 
ATOM     16  C   UNL     1      51.750   7.395  10.491  0.00  0.00    +0.000 C 
ATOM     17  C   UNL     1      50.407   7.650  11.177  0.00  0.00    +0.000 C 
ENDBRANCH  11  12
ENDBRANCH   9  11
ENDBRANCH   1   8
BRANCH   4  18
ATOM     18  C   UNL     1      43.673   3.354  11.610  0.00  0.00    +0.000 C 
BRANCH  18  19
ATOM     19  N   UNL     1      44.340   2.526  10.611  0.00  0.00    +0.000 NA
ATOM     20  H   UNL     1      43.851   1.635  10.534  0.00  0.00    +0.000 HD
BRANCH  19  21
ATOM     21  C   UNL     1      44.357   3.174   9.299  0.00  0.00    +0.000 C 
BRANCH  21  22
ATOM     22  C   UNL     1      45.473   2.620   8.454  0.00  0.00    +0.000 A 
ATOM     23  C   UNL     1      46.218   3.443   7.604  0.00  0.00    +0.000 A 
ATOM     24  C   UNL     1      47.267   2.908   6.863  0.00  0.00    +0.000 A 
ATOM     25  C   UNL     1      47.534   1.555   6.990  0.00  0.00    +0.000 A 
ATOM     26  N   UNL     1      46.831   0.722   7.786  0.00  0.00    +0.000 NA
ATOM     27  C   UNL     1      45.819   1.272   8.498  0.00  0.00    +0.000 A 
ENDBRANCH  21  22
ENDBRANCH  19  21
ENDBRANCH  18  19
ENDBRANCH   4  18
TORSDOF 7
ENDMDL
MODEL 9
REMARK VINA RESULT:    -6.485      3.684      5.295
REMARK INTER + INTRA:         -10.112
REMARK INTER:                  -9.302
REMARK INTRA:                  -0.810
REMARK UNBOUND:                -0.973
REMARK  Name = 
REMARK  7 active torsions:
REMARK  status: ('A' for Active; 'I' for Inactive)
REMARK    1  A    between atoms: C_2  and  C_11
REMARK    2  A    between atoms: N_3  and  C_4
REMARK    3  A    between atoms: C_4  and  C_5
REMARK    4  A    between atoms: C_14  and  C_15
REMARK    5  A    between atoms: C_15  and  N_16
REMARK    6  A    between atoms: N_16  and  C_17
REMARK    7  A    between atoms: C_17  and  C_18
REMARK                            x       y       z     vdW  Elec       q    Type
REMARK                         _______ _______ _______ _____ _____    ______ ____
ROOT
ATOM      1  C   UNL     1      47.664   6.670  12.625  0.00  0.00    +0.000 A 
ATOM      2  C   UNL     1      46.666   6.777  11.649  0.00  0.00    +0.000 A 
ATOM      3  C   UNL     1      45.639   5.832  11.584  0.00  0.00    +0.000 A 
ATOM      4  C   UNL     1      45.586   4.770  12.501  0.00  0.00    +0.000 A 
ATOM      5  C   UNL     1      46.595   4.668  13.473  0.00  0.00    +0.000 A 
ATOM      6  C   UNL     1      47.627   5.612  13.538  0.00  0.00    +0.000 A 
ENDROOT
BRANCH   1   8
ATOM      7  O   UNL     1      48.366   8.878  13.022  0.00  0.00    +0.000 OA
ATOM      8  C   UNL     1      48.690   7.741  12.694  0.00  0.00    +0.000 C 
ATOM      9  N   UNL     1      49.980   7.394  12.347  0.00  0.00    +0.000 N 
ATOM     10  H   UNL     1      50.141   6.513  11.875  0.00  0.00    +0.000 HD
BRANCH   9  11
ATOM     11  C   UNL     1      51.016   8.408  12.339  0.00  0.00    +0.000 C 
BRANCH  11  12
ATOM     12  C   UNL     1      51.509   8.765  10.930  0.00  0.00    +0.000 C 
ATOM     13  C   UNL     1      52.344   7.621  10.330  0.00  0.00    +0.000 C 
ATOM     14  C   UNL     1      52.920   7.990   8.967  0.00  0.00    +0.000 C 
ATOM     15  C   UNL     1      53.742   9.271   9.038  0.00  0.00    +0.000 C 
ATOM     16  C   UNL     1      52.921  10.423   9.609  0.00  0.00    +0.000 C 
ATOM     17  C   UNL     1      52.327  10.068  10.972  0.00  0.00    +0.000 C 
ENDBRANCH  11  12
ENDBRANCH   9  11
ENDBRANCH   1   8
BRANCH   4  18
ATOM     18  C   UNL     1      44.431   3.789  12.481  0.00  0.00    +0.000 C 
BRANCH  18  19
ATOM     19  N   UNL     1      44.700   2.658  11.600  0.00  0.00    +0.000 NA
ATOM     20  H   UNL     1      44.396   1.798  12.056  0.00  0.00    +0.000 HD
BRANCH  19  21
ATOM     21  C   UNL     1      44.000   2.792  10.322  0.00  0.00    +0.000 C 
BRANCH  21  22
ATOM     22  C   UNL     1      44.987   2.876   9.189  0.00  0.00    +0.000 A 
ATOM     23  C   UNL     1      45.684   1.747   8.747  0.00  0.00    +0.000 A 
ATOM     24  C   UNL     1      46.562   1.849   7.673  0.00  0.00    +0.000 A 
ATOM     25  C   UNL     1      46.724   3.088   7.076  0.00  0.00    +0.000 A 
ATOM     26  N   UNL     1      46.084   4.206   7.480  0.00  0.00    +0.000 NA
ATOM     27  C   UNL     1      45.231   4.074   8.524  0.00  0.00    +0.000 A 
ENDBRANCH  21  22
ENDBRANCH  19  21
ENDBRANCH  18  19
ENDBRANCH   4  18
TORSDOF 7
ENDMDL
