MODEL 1
REMARK VINA RESULT:    -7.896      0.000      0.000
REMARK INTER + INTRA:         -12.571
REMARK INTER:                 -11.358
REMARK INTRA:                  -1.213
REMARK UNBOUND:                -1.213
REMARK  Name = 
REMARK  9 active torsions:
REMARK  status: ('A' for Active; 'I' for Inactive)
REMARK    1  A    between atoms: C_1  and  C_2
REMARK    2  A    between atoms: C_6  and  C_7
REMARK    3  A    between atoms: C_7  and  N_8
REMARK    4  A    between atoms: N_8  and  C_9
REMARK    5  A    between atoms: C_9  and  C_10
REMARK    6  A    between atoms: C_13  and  C_14
REMARK    7  A    between atoms: C_14  and  N_15
REMARK    8  A    between atoms: C_16  and  C_18
REMARK    9  A    between atoms: C_25  and  O_26
REMARK                            x       y       z     vdW  Elec       q    Type
REMARK                         _______ _______ _______ _____ _____    ______ ____
ROOT
ATOM      1  C   UNL     1      44.755   5.556  11.868  0.00  0.00    +0.000 A 
ATOM      2  C   UNL     1      45.120   4.927  13.067  0.00  0.00    +0.000 A 
ATOM      3  C   UNL     1      46.303   5.276  13.724  0.00  0.00    +0.000 A 
ATOM      4  C   UNL     1      47.143   6.266  13.196  0.00  0.00    +0.000 A 
ATOM      5  C   UNL     1      46.795   6.869  11.979  0.00  0.00    +0.000 A 
ATOM      6  C   UNL     1      45.612   6.521  11.324  0.00  0.00    +0.000 A 
ENDROOT
BRANCH   1   7
ATOM      7  C   UNL     1      43.443   5.223  11.193  0.00  0.00    +0.000 C 
BRANCH   7   8
ATOM      8  N   UNL     1      43.612   4.639   9.861  0.00  0.00    +0.000 NA
ATOM      9  H   UNL     1      42.703   4.604   9.398  0.00  0.00    +0.000 HD
BRANCH   8  10
ATOM     10  C   UNL     1      44.108   3.256   9.923  0.00  0.00    +0.000 C 
BRANCH  10  16
ATOM     11  C   UNL     1      46.933   0.073   7.544  0.00  0.00    +0.000 C 
ATOM     12  C   UNL     1      46.530   1.501   7.746  0.00  0.00    +0.000 A 
ATOM     13  C   UNL     1      47.130   2.524   7.017  0.00  0.00    +0.000 A 
ATOM     14  C   UNL     1      46.729   3.836   7.248  0.00  0.00    +0.000 A 
ATOM     15  C   UNL     1      45.747   4.089   8.198  0.00  0.00    +0.000 A 
ATOM     16  C   UNL     1      45.199   3.018   8.898  0.00  0.00    +0.000 A 
ATOM     17  N   UNL     1      45.570   1.731   8.674  0.00  0.00    +0.000 NA
ENDBRANCH  10  16
ENDBRANCH   8  10
ENDBRANCH   7   8
ENDBRANCH   1   7
BRANCH   4  18
ATOM     18  C   UNL     1      48.405   6.666  13.912  0.00  0.00    +0.000 C 
BRANCH  18  19
ATOM     19  N   UNL     1      48.148   7.004  15.287  0.00  0.00    +0.000 N 
ATOM     20  C   UNL     1      48.923   6.499  16.297  0.00  0.00    +0.000 C 
ATOM     21  O   UNL     1      49.898   5.784  16.075  0.00  0.00    +0.000 OA
ATOM     22  H   UNL     1      47.251   7.411  15.525  0.00  0.00    +0.000 HD
BRANCH  20  23
ATOM     23  C   UNL     1      48.570   6.921  17.657  0.00  0.00    +0.000 A 
ATOM     24  C   UNL     1      48.228   8.249  17.883  0.00  0.00    +0.000 A 
ATOM     25  S   UNL     1      47.781   8.571  19.491  0.00  0.00    +0.000 S 
ATOM     26  C   UNL     1      48.088   6.965  19.952  0.00  0.00    +0.000 A 
ATOM     27  N   UNL     1      47.911   6.598  21.238  0.00  0.00    +0.000 NA
ATOM     28  C   UNL     1      48.197   5.311  21.496  0.00  0.00    +0.000 A 
ATOM     29  C   UNL     1      48.642   4.392  20.568  0.00  0.00    +0.000 A 
ATOM     30  C   UNL     1      48.803   4.817  19.253  0.00  0.00    +0.000 A 
ATOM     31  C   UNL     1      48.514   6.161  18.894  0.00  0.00    +0.000 A 
BRANCH  30  32
ATOM     32  O   UNL     1      49.244   3.923  18.308  0.00  0.00    +0.000 OA
ATOM     33  H   UNL     1      48.476   3.503  17.880  0.00  0.00    +0.000 HD
ENDBRANCH  30  32
ENDBRANCH  20  23
ENDBRANCH  18  19
ENDBRANCH   4  18
TORSDOF 8
ENDMDL
MODEL 2
REMARK VINA RESULT:    -7.872      1.223      2.108
REMARK INTER + INTRA:         -12.537
REMARK INTER:                 -11.422
REMARK INTRA:                  -1.115
REMARK UNBOUND:                -1.213
REMARK  Name = 
REMARK  9 active torsions:
REMARK  status: ('A' for Active; 'I' for Inactive)
REMARK    1  A    between atoms: C_1  and  C_2
REMARK    2  A    between atoms: C_6  and  C_7
REMARK    3  A    between atoms: C_7  and  N_8
REMARK    4  A    between atoms: N_8  and  C_9
REMARK    5  A    between atoms: C_9  and  C_10
REMARK    6  A    between atoms: C_13  and  C_14
REMARK    7  A    between atoms: C_14  and  N_15
REMARK    8  A    between atoms: C_16  and  C_18
REMARK    9  A    between atoms: C_25  and  O_26
REMARK                            x       y       z     vdW  Elec       q    Type
REMARK                         _______ _______ _______ _____ _____    ______ ____
ROOT
ATOM      1  C   UNL     1      44.652   5.558  11.853  0.00  0.00    +0.000 A 
ATOM      2  C   UNL     1      45.465   6.626  11.447  0.00  0.00    +0.000 A 
ATOM      3  C   UNL     1      46.620   6.955  12.163  0.00  0.00    +0.000 A 
ATOM      4  C   UNL     1      46.986   6.218  13.297  0.00  0.00    +0.000 A 
ATOM      5  C   UNL     1      46.154   5.174  13.723  0.00  0.00    +0.000 A 
ATOM      6  C   UNL     1      45.001   4.845  13.007  0.00  0.00    +0.000 A 
ENDROOT
BRANCH   1   7
ATOM      7  C   UNL     1      43.438   5.163  11.042  0.00  0.00    +0.000 C 
BRANCH   7   8
ATOM      8  N   UNL     1      43.776   4.619   9.726  0.00  0.00    +0.000 NA
ATOM      9  H   UNL     1      42.943   4.638   9.136  0.00  0.00    +0.000 HD
BRANCH   8  10
ATOM     10  C   UNL     1      44.207   3.215   9.803  0.00  0.00    +0.000 C 
BRANCH  10  16
ATOM     11  C   UNL     1      46.981  -0.107   7.559  0.00  0.00    +0.000 C 
ATOM     12  C   UNL     1      46.598   1.334   7.699  0.00  0.00    +0.000 A 
ATOM     13  C   UNL     1      47.209   2.315   6.925  0.00  0.00    +0.000 A 
ATOM     14  C   UNL     1      46.828   3.641   7.099  0.00  0.00    +0.000 A 
ATOM     15  C   UNL     1      45.852   3.949   8.039  0.00  0.00    +0.000 A 
ATOM     16  C   UNL     1      45.291   2.918   8.786  0.00  0.00    +0.000 A 
ATOM     17  N   UNL     1      45.644   1.617   8.618  0.00  0.00    +0.000 NA
ENDBRANCH  10  16
ENDBRANCH   8  10
ENDBRANCH   7   8
ENDBRANCH   1   7
BRANCH   4  18
ATOM     18  C   UNL     1      48.243   6.550  14.056  0.00  0.00    +0.000 C 
BRANCH  18  19
ATOM     19  N   UNL     1      48.052   6.417  15.476  0.00  0.00    +0.000 N 
ATOM     20  C   UNL     1      49.115   6.233  16.321  0.00  0.00    +0.000 C 
ATOM     21  O   UNL     1      50.275   6.225  15.915  0.00  0.00    +0.000 OA
ATOM     22  H   UNL     1      47.121   6.213  15.822  0.00  0.00    +0.000 HD
BRANCH  20  23
ATOM     23  C   UNL     1      48.797   6.120  17.748  0.00  0.00    +0.000 A 
ATOM     24  C   UNL     1      49.053   4.921  18.402  0.00  0.00    +0.000 A 
ATOM     25  S   UNL     1      48.694   4.963  20.064  0.00  0.00    +0.000 S 
ATOM     26  C   UNL     1      48.128   6.561  19.952  0.00  0.00    +0.000 A 
ATOM     27  N   UNL     1      47.652   7.175  21.056  0.00  0.00    +0.000 NA
ATOM     28  C   UNL     1      47.215   8.430  20.852  0.00  0.00    +0.000 A 
ATOM     29  C   UNL     1      47.224   9.089  19.641  0.00  0.00    +0.000 A 
ATOM     30  C   UNL     1      47.730   8.416  18.533  0.00  0.00    +0.000 A 
ATOM     31  C   UNL     1      48.220   7.090  18.664  0.00  0.00    +0.000 A 
BRANCH  30  32
ATOM     32  O   UNL     1      47.750   9.050  17.315  0.00  0.00    +0.000 OA
ATOM     33  H   UNL     1      46.852   9.360  17.099  0.00  0.00    +0.000 HD
ENDBRANCH  30  32
ENDBRANCH  20  23
ENDBRANCH  18  19
ENDBRANCH   4  18
TORSDOF 8
ENDMDL
MODEL 3
REMARK VINA RESULT:    -7.276      3.271      8.983
REMARK INTER + INTRA:         -11.680
REMARK INTER:                 -10.108
REMARK INTRA:                  -1.572
REMARK UNBOUND:                -1.213
REMARK  Name = 
REMARK  9 active torsions:
REMARK  status: ('A' for Active; 'I' for Inactive)
REMARK    1  A    between atoms: C_1  and  C_2
REMARK    2  A    between atoms: C_6  and  C_7
REMARK    3  A    between atoms: C_7  and  N_8
REMARK    4  A    between atoms: N_8  and  C_9
REMARK    5  A    between atoms: C_9  and  C_10
REMARK    6  A    between atoms: C_13  and  C_14
REMARK    7  A    between atoms: C_14  and  N_15
REMARK    8  A    between atoms: C_16  and  C_18
REMARK    9  A    between atoms: C_25  and  O_26
REMARK                            x       y       z     vdW  Elec       q    Type
REMARK                         _______ _______ _______ _____ _____    ______ ____
ROOT
ATOM      1  C   UNL     1      49.222   7.916  16.364  0.00  0.00    +0.000 A 
ATOM      2  C   UNL     1      48.456   8.997  15.904  0.00  0.00    +0.000 A 
ATOM      3  C   UNL     1      47.928   8.996  14.610  0.00  0.00    +0.000 A 
ATOM      4  C   UNL     1      48.152   7.912  13.752  0.00  0.00    +0.000 A 
ATOM      5  C   UNL     1      48.947   6.848  14.200  0.00  0.00    +0.000 A 
ATOM      6  C   UNL     1      49.473   6.848  15.494  0.00  0.00    +0.000 A 
ENDROOT
BRANCH   1   7
ATOM      7  C   UNL     1      49.738   7.889  17.786  0.00  0.00    +0.000 C 
BRANCH   7   8
ATOM      8  N   UNL     1      48.735   7.445  18.755  0.00  0.00    +0.000 NA
ATOM      9  H   UNL     1      48.679   8.131  19.510  0.00  0.00    +0.000 HD
BRANCH   8  10
ATOM     10  C   UNL     1      49.097   6.163  19.377  0.00  0.00    +0.000 C 
BRANCH  10  16
ATOM     11  C   UNL     1      50.518   2.050  17.177  0.00  0.00    +0.000 C 
ATOM     12  C   UNL     1      49.413   3.025  17.443  0.00  0.00    +0.000 A 
ATOM     13  C   UNL     1      48.149   2.843  16.890  0.00  0.00    +0.000 A 
ATOM     14  C   UNL     1      47.158   3.781  17.157  0.00  0.00    +0.000 A 
ATOM     15  C   UNL     1      47.455   4.872  17.963  0.00  0.00    +0.000 A 
ATOM     16  C   UNL     1      48.744   4.998  18.474  0.00  0.00    +0.000 A 
ATOM     17  N   UNL     1      49.718   4.082  18.233  0.00  0.00    +0.000 NA
ENDBRANCH  10  16
ENDBRANCH   8  10
ENDBRANCH   7   8
ENDBRANCH   1   7
BRANCH   4  18
ATOM     18  C   UNL     1      47.564   7.892  12.366  0.00  0.00    +0.000 C 
BRANCH  18  19
ATOM     19  N   UNL     1      46.896   6.647  12.093  0.00  0.00    +0.000 N 
ATOM     20  C   UNL     1      45.530   6.556  12.118  0.00  0.00    +0.000 C 
ATOM     21  O   UNL     1      44.815   7.535  12.320  0.00  0.00    +0.000 OA
ATOM     22  H   UNL     1      47.437   5.790  12.127  0.00  0.00    +0.000 HD
BRANCH  20  23
ATOM     23  C   UNL     1      44.963   5.237  11.815  0.00  0.00    +0.000 A 
ATOM     24  C   UNL     1      44.353   4.517  12.834  0.00  0.00    +0.000 A 
ATOM     25  S   UNL     1      43.687   3.039  12.318  0.00  0.00    +0.000 S 
ATOM     26  C   UNL     1      44.245   3.284  10.732  0.00  0.00    +0.000 A 
ATOM     27  N   UNL     1      44.008   2.345   9.793  0.00  0.00    +0.000 NA
ATOM     28  C   UNL     1      44.507   2.632   8.579  0.00  0.00    +0.000 A 
ATOM     29  C   UNL     1      45.213   3.772   8.256  0.00  0.00    +0.000 A 
ATOM     30  C   UNL     1      45.426   4.714   9.258  0.00  0.00    +0.000 A 
ATOM     31  C   UNL     1      44.924   4.492  10.568  0.00  0.00    +0.000 A 
BRANCH  30  32
ATOM     32  O   UNL     1      46.125   5.859   8.964  0.00  0.00    +0.000 OA
ATOM     33  H   UNL     1      46.190   5.956   7.996  0.00  0.00    +0.000 HD
ENDBRANCH  30  32
ENDBRANCH  20  23
ENDBRANCH  18  19
ENDBRANCH   4  18
TORSDOF 8
ENDMDL
MODEL 4
REMARK VINA RESULT:    -6.879      3.482      8.344
REMARK INTER + INTRA:         -11.108
REMARK INTER:                  -9.284
REMARK INTRA:                  -1.824
REMARK UNBOUND:                -1.213
REMARK  Name = 
REMARK  9 active torsions:
REMARK  status: ('A' for Active; 'I' for Inactive)
REMARK    1  A    between atoms: C_1  and  C_2
REMARK    2  A    between atoms: C_6  and  C_7
REMARK    3  A    between atoms: C_7  and  N_8
REMARK    4  A    between atoms: N_8  and  C_9
REMARK    5  A    between atoms: C_9  and  C_10
REMARK    6  A    between atoms: C_13  and  C_14
REMARK    7  A    between atoms: C_14  and  N_15
REMARK    8  A    between atoms: C_16  and  C_18
REMARK    9  A    between atoms: C_25  and  O_26
REMARK                            x       y       z     vdW  Elec       q    Type
REMARK                         _______ _______ _______ _____ _____    ______ ____
ROOT
ATOM      1  C   UNL     1      49.717   7.520  18.104  0.00  0.00    +0.000 A 
ATOM      2  C   UNL     1      48.737   8.196  17.364  0.00  0.00    +0.000 A 
ATOM      3  C   UNL     1      48.763   8.183  15.967  0.00  0.00    +0.000 A 
ATOM      4  C   UNL     1      49.767   7.487  15.282  0.00  0.00    +0.000 A 
ATOM      5  C   UNL     1      50.767   6.840  16.022  0.00  0.00    +0.000 A 
ATOM      6  C   UNL     1      50.740   6.853  17.418  0.00  0.00    +0.000 A 
ENDROOT
BRANCH   1   7
ATOM      7  C   UNL     1      49.651   7.482  19.615  0.00  0.00    +0.000 C 
BRANCH   7   8
ATOM      8  N   UNL     1      49.723   6.125  20.162  0.00  0.00    +0.000 NA
ATOM      9  H   UNL     1      50.385   5.581  19.607  0.00  0.00    +0.000 HD
BRANCH   8  10
ATOM     10  C   UNL     1      48.431   5.428  20.081  0.00  0.00    +0.000 C 
BRANCH  10  16
ATOM     11  C   UNL     1      50.339   2.023  17.159  0.00  0.00    +0.000 C 
ATOM     12  C   UNL     1      49.219   2.982  17.420  0.00  0.00    +0.000 A 
ATOM     13  C   UNL     1      48.154   3.096  16.532  0.00  0.00    +0.000 A 
ATOM     14  C   UNL     1      47.142   4.008  16.812  0.00  0.00    +0.000 A 
ATOM     15  C   UNL     1      47.222   4.780  17.965  0.00  0.00    +0.000 A 
ATOM     16  C   UNL     1      48.323   4.621  18.803  0.00  0.00    +0.000 A 
ATOM     17  N   UNL     1      49.311   3.725  18.549  0.00  0.00    +0.000 NA
ENDBRANCH  10  16
ENDBRANCH   8  10
ENDBRANCH   7   8
ENDBRANCH   1   7
BRANCH   4  18
ATOM     18  C   UNL     1      49.786   7.445  13.777  0.00  0.00    +0.000 C 
BRANCH  18  19
ATOM     19  N   UNL     1      48.456   7.487  13.231  0.00  0.00    +0.000 N 
ATOM     20  C   UNL     1      47.732   6.340  13.039  0.00  0.00    +0.000 C 
ATOM     21  O   UNL     1      48.160   5.237  13.370  0.00  0.00    +0.000 OA
ATOM     22  H   UNL     1      48.152   8.333  12.761  0.00  0.00    +0.000 HD
BRANCH  20  23
ATOM     23  C   UNL     1      46.385   6.509  12.484  0.00  0.00    +0.000 A 
ATOM     24  C   UNL     1      45.998   7.762  12.025  0.00  0.00    +0.000 A 
ATOM     25  S   UNL     1      44.437   7.787  11.351  0.00  0.00    +0.000 S 
ATOM     26  C   UNL     1      44.204   6.141  11.704  0.00  0.00    +0.000 A 
ATOM     27  N   UNL     1      43.031   5.554  11.386  0.00  0.00    +0.000 NA
ATOM     28  C   UNL     1      42.947   4.256  11.724  0.00  0.00    +0.000 A 
ATOM     29  C   UNL     1      43.940   3.530  12.347  0.00  0.00    +0.000 A 
ATOM     30  C   UNL     1      45.133   4.178  12.649  0.00  0.00    +0.000 A 
ATOM     31  C   UNL     1      45.307   5.548  12.318  0.00  0.00    +0.000 A 
BRANCH  30  32
ATOM     32  O   UNL     1      46.138   3.478  13.269  0.00  0.00    +0.000 OA
ATOM     33  H   UNL     1      46.994   3.724  12.872  0.00  0.00    +0.000 HD
ENDBRANCH  30  32
ENDBRANCH  20  23
ENDBRANCH  18  19
ENDBRANCH   4  18
TORSDOF 8
ENDMDL
MODEL 5
REMARK VINA RESULT:    -6.869      5.560     10.002
REMARK INTER + INTRA:         -11.094
REMARK INTER:                 -10.278
REMARK INTRA:                  -0.816
REMARK UNBOUND:                -1.213
REMARK  Name = 
REMARK  9 active torsions:
REMARK  status: ('A' for Active; 'I' for Inactive)
REMARK    1  A    between atoms: C_1  and  C_2
REMARK    2  A    between atoms: C_6  and  C_7
REMARK    3  A    between atoms: C_7  and  N_8
REMARK    4  A    between atoms: N_8  and  C_9
REMARK    5  A    between atoms: C_9  and  C_10
REMARK    6  A    between atoms: C_13  and  C_14
REMARK    7  A    between atoms: C_14  and  N_15
REMARK    8  A    between atoms: C_16  and  C_18
REMARK    9  A    between atoms: C_25  and  O_26
REMARK                            x       y       z     vdW  Elec       q    Type
REMARK                         _______ _______ _______ _____ _____    ______ ____
ROOT
ATOM      1  C   UNL     1      51.479   3.102  17.798  0.00  0.00    +0.000 A 
ATOM      2  C   UNL     1      50.864   4.337  18.047  0.00  0.00    +0.000 A 
ATOM      3  C   UNL     1      49.498   4.515  17.808  0.00  0.00    +0.000 A 
ATOM      4  C   UNL     1      48.719   3.458  17.321  0.00  0.00    +0.000 A 
ATOM      5  C   UNL     1      49.341   2.233  17.039  0.00  0.00    +0.000 A 
ATOM      6  C   UNL     1      50.705   2.057  17.278  0.00  0.00    +0.000 A 
ENDROOT
BRANCH   1   7
ATOM      7  C   UNL     1      52.942   2.893  18.117  0.00  0.00    +0.000 C 
BRANCH   7   8
ATOM      8  N   UNL     1      53.254   1.520  18.518  0.00  0.00    +0.000 NA
ATOM      9  H   UNL     1      53.655   1.533  19.457  0.00  0.00    +0.000 HD
BRANCH   8  10
ATOM     10  C   UNL     1      54.259   0.903  17.640  0.00  0.00    +0.000 C 
BRANCH  10  16
ATOM     11  C   UNL     1      53.007  -2.937  20.371  0.00  0.00    +0.000 C 
ATOM     12  C   UNL     1      53.749  -2.424  19.176  0.00  0.00    +0.000 A 
ATOM     13  C   UNL     1      54.474  -3.286  18.359  0.00  0.00    +0.000 A 
ATOM     14  C   UNL     1      55.155  -2.760  17.266  0.00  0.00    +0.000 A 
ATOM     15  C   UNL     1      55.098  -1.394  17.023  0.00  0.00    +0.000 A 
ATOM     16  C   UNL     1      54.363  -0.589  17.889  0.00  0.00    +0.000 A 
ATOM     17  N   UNL     1      53.681  -1.090  18.952  0.00  0.00    +0.000 NA
ENDBRANCH  10  16
ENDBRANCH   8  10
ENDBRANCH   7   8
ENDBRANCH   1   7
BRANCH   4  18
ATOM     18  C   UNL     1      47.242   3.634  17.087  0.00  0.00    +0.000 C 
BRANCH  18  19
ATOM     19  N   UNL     1      46.984   4.480  15.952  0.00  0.00    +0.000 N 
ATOM     20  C   UNL     1      47.112   4.009  14.673  0.00  0.00    +0.000 C 
ATOM     21  O   UNL     1      47.400   2.837  14.436  0.00  0.00    +0.000 OA
ATOM     22  H   UNL     1      46.950   5.483  16.095  0.00  0.00    +0.000 HD
BRANCH  20  23
ATOM     23  C   UNL     1      46.814   4.962  13.598  0.00  0.00    +0.000 A 
ATOM     24  C   UNL     1      47.384   6.229  13.645  0.00  0.00    +0.000 A 
ATOM     25  S   UNL     1      46.999   7.196  12.300  0.00  0.00    +0.000 S 
ATOM     26  C   UNL     1      46.013   5.979  11.643  0.00  0.00    +0.000 A 
ATOM     27  N   UNL     1      45.367   6.204  10.480  0.00  0.00    +0.000 NA
ATOM     28  C   UNL     1      44.602   5.183  10.059  0.00  0.00    +0.000 A 
ATOM     29  C   UNL     1      44.447   3.981  10.717  0.00  0.00    +0.000 A 
ATOM     30  C   UNL     1      45.138   3.794  11.909  0.00  0.00    +0.000 A 
ATOM     31  C   UNL     1      45.975   4.821  12.420  0.00  0.00    +0.000 A 
BRANCH  30  32
ATOM     32  O   UNL     1      45.001   2.606  12.585  0.00  0.00    +0.000 OA
ATOM     33  H   UNL     1      45.186   2.750  13.531  0.00  0.00    +0.000 HD
ENDBRANCH  30  32
ENDBRANCH  20  23
ENDBRANCH  18  19
ENDBRANCH   4  18
TORSDOF 8
ENDMDL
MODEL 6
REMARK VINA RESULT:    -6.670      1.536      2.156
REMARK INTER + INTRA:         -10.808
REMARK INTER:                  -9.913
REMARK INTRA:                  -0.895
REMARK UNBOUND:                -1.213
REMARK  Name = 
REMARK  9 active torsions:
REMARK  status: ('A' for Active; 'I' for Inactive)
REMARK    1  A    between atoms: C_1  and  C_2
REMARK    2  A    between atoms: C_6  and  C_7
REMARK    3  A    between atoms: C_7  and  N_8
REMARK    4  A    between atoms: N_8  and  C_9
REMARK    5  A    between atoms: C_9  and  C_10
REMARK    6  A    between atoms: C_13  and  C_14
REMARK    7  A    between atoms: C_14  and  N_15
REMARK    8  A    between atoms: C_16  and  C_18
REMARK    9  A    between atoms: C_25  and  O_26
REMARK                            x       y       z     vdW  Elec       q    Type
REMARK                         _______ _______ _______ _____ _____    ______ ____
ROOT
ATOM      1  C   UNL     1      45.421   6.267  11.532  0.00  0.00    +0.000 A 
ATOM      2  C   UNL     1      45.055   7.606  11.731  0.00  0.00    +0.000 A 
ATOM      3  C   UNL     1      45.801   8.431  12.577  0.00  0.00    +0.000 A 
ATOM      4  C   UNL     1      46.932   7.934  13.237  0.00  0.00    +0.000 A 
ATOM      5  C   UNL     1      47.278   6.586  13.066  0.00  0.00    +0.000 A 
ATOM      6  C   UNL     1      46.532   5.763  12.220  0.00  0.00    +0.000 A 
ENDROOT
BRANCH   1   7
ATOM      7  C   UNL     1      44.651   5.393  10.567  0.00  0.00    +0.000 C 
BRANCH   7   8
ATOM      8  N   UNL     1      45.432   5.006   9.390  0.00  0.00    +0.000 NA
ATOM      9  H   UNL     1      45.687   5.847   8.871  0.00  0.00    +0.000 HD
BRANCH   8  10
ATOM     10  C   UNL     1      44.660   4.159   8.469  0.00  0.00    +0.000 C 
BRANCH  10  16
ATOM     11  C   UNL     1      47.634   2.550   4.956  0.00  0.00    +0.000 C 
ATOM     12  C   UNL     1      46.946   2.271   6.257  0.00  0.00    +0.000 A 
ATOM     13  C   UNL     1      47.103   1.047   6.901  0.00  0.00    +0.000 A 
ATOM     14  C   UNL     1      46.435   0.831   8.102  0.00  0.00    +0.000 A 
ATOM     15  C   UNL     1      45.630   1.836   8.622  0.00  0.00    +0.000 A 
ATOM     16  C   UNL     1      45.510   3.032   7.918  0.00  0.00    +0.000 A 
ATOM     17  N   UNL     1      46.167   3.262   6.752  0.00  0.00    +0.000 NA
ENDBRANCH  10  16
ENDBRANCH   8  10
ENDBRANCH   7   8
ENDBRANCH   1   7
BRANCH   4  18
ATOM     18  C   UNL     1      47.756   8.824  14.129  0.00  0.00    +0.000 C 
BRANCH  18  19
ATOM     19  N   UNL     1      47.863   8.286  15.459  0.00  0.00    +0.000 N 
ATOM     20  C   UNL     1      48.815   8.740  16.333  0.00  0.00    +0.000 C 
ATOM     21  O   UNL     1      49.581   9.656  16.043  0.00  0.00    +0.000 OA
ATOM     22  H   UNL     1      47.400   7.407  15.664  0.00  0.00    +0.000 HD
BRANCH  20  23
ATOM     23  C   UNL     1      48.820   8.122  17.663  0.00  0.00    +0.000 A 
ATOM     24  C   UNL     1      48.847   8.940  18.786  0.00  0.00    +0.000 A 
ATOM     25  S   UNL     1      48.784   8.082  20.253  0.00  0.00    +0.000 S 
ATOM     26  C   UNL     1      48.781   6.590  19.440  0.00  0.00    +0.000 A 
ATOM     27  N   UNL     1      48.755   5.446  20.153  0.00  0.00    +0.000 NA
ATOM     28  C   UNL     1      48.772   4.325  19.411  0.00  0.00    +0.000 A 
ATOM     29  C   UNL     1      48.813   4.283  18.034  0.00  0.00    +0.000 A 
ATOM     30  C   UNL     1      48.832   5.490  17.342  0.00  0.00    +0.000 A 
ATOM     31  C   UNL     1      48.808   6.721  18.051  0.00  0.00    +0.000 A 
BRANCH  30  32
ATOM     32  O   UNL     1      48.873   5.476  15.970  0.00  0.00    +0.000 OA
ATOM     33  H   UNL     1      48.718   4.568  15.653  0.00  0.00    +0.000 HD
ENDBRANCH  30  32
ENDBRANCH  20  23
ENDBRANCH  18  19
ENDBRANCH   4  18
TORSDOF 8
ENDMDL
MODEL 7
REMARK VINA RESULT:    -6.629      1.653      2.760
REMARK INTER + INTRA:         -10.749
REMARK INTER:                  -9.864
REMARK INTRA:                  -0.885
REMARK UNBOUND:                -1.213
REMARK  Name = 
REMARK  9 active torsions:
REMARK  status: ('A' for Active; 'I' for Inactive)
REMARK    1  A    between atoms: C_1  and  C_2
REMARK    2  A    between atoms: C_6  and  C_7
REMARK    3  A    between atoms: C_7  and  N_8
REMARK    4  A    between atoms: N_8  and  C_9
REMARK    5  A    between atoms: C_9  and  C_10
REMARK    6  A    between atoms: C_13  and  C_14
REMARK    7  A    between atoms: C_14  and  N_15
REMARK    8  A    between atoms: C_16  and  C_18
REMARK    9  A    between atoms: C_25  and  O_26
REMARK                            x       y       z     vdW  Elec       q    Type
REMARK                         _______ _______ _______ _____ _____    ______ ____
ROOT
ATOM      1  C   UNL     1      46.024   7.285  12.592  0.00  0.00    +0.000 A 
ATOM      2  C   UNL     1      46.731   6.077  12.678  0.00  0.00    +0.000 A 
ATOM      3  C   UNL     1      47.894   5.984  13.447  0.00  0.00    +0.000 A 
ATOM      4  C   UNL     1      48.370   7.097  14.151  0.00  0.00    +0.000 A 
ATOM      5  C   UNL     1      47.684   8.314  14.037  0.00  0.00    +0.000 A 
ATOM      6  C   UNL     1      46.521   8.406  13.269  0.00  0.00    +0.000 A 
ENDROOT
BRANCH   1   7
ATOM      7  C   UNL     1      44.731   7.367  11.811  0.00  0.00    +0.000 C 
BRANCH   7   8
ATOM      8  N   UNL     1      44.759   6.595  10.568  0.00  0.00    +0.000 NA
ATOM      9  H   UNL     1      44.408   7.180   9.808  0.00  0.00    +0.000 HD
BRANCH   8  10
ATOM     10  C   UNL     1      43.885   5.415  10.630  0.00  0.00    +0.000 C 
BRANCH  10  16
ATOM     11  C   UNL     1      46.708   3.948   6.936  0.00  0.00    +0.000 C 
ATOM     12  C   UNL     1      45.819   3.563   8.078  0.00  0.00    +0.000 A 
ATOM     13  C   UNL     1      45.559   2.226   8.364  0.00  0.00    +0.000 A 
ATOM     14  C   UNL     1      44.719   1.919   9.429  0.00  0.00    +0.000 A 
ATOM     15  C   UNL     1      44.161   2.951  10.174  0.00  0.00    +0.000 A 
ATOM     16  C   UNL     1      44.456   4.266   9.824  0.00  0.00    +0.000 A 
ATOM     17  N   UNL     1      45.286   4.580   8.796  0.00  0.00    +0.000 NA
ENDBRANCH  10  16
ENDBRANCH   8  10
ENDBRANCH   7   8
ENDBRANCH   1   7
BRANCH   4  18
ATOM     18  C   UNL     1      49.607   6.998  15.003  0.00  0.00    +0.000 C 
BRANCH  18  19
ATOM     19  N   UNL     1      49.286   7.020  16.406  0.00  0.00    +0.000 N 
ATOM     20  C   UNL     1      48.829   5.899  17.046  0.00  0.00    +0.000 C 
ATOM     21  O   UNL     1      48.724   4.818  16.471  0.00  0.00    +0.000 OA
ATOM     22  H   UNL     1      49.161   7.919  16.859  0.00  0.00    +0.000 HD
BRANCH  20  23
ATOM     23  C   UNL     1      48.542   6.042  18.477  0.00  0.00    +0.000 A 
ATOM     24  C   UNL     1      48.790   4.968  19.324  0.00  0.00    +0.000 A 
ATOM     25  S   UNL     1      48.471   5.306  20.960  0.00  0.00    +0.000 S 
ATOM     26  C   UNL     1      47.934   6.873  20.585  0.00  0.00    +0.000 A 
ATOM     27  N   UNL     1      47.497   7.680  21.574  0.00  0.00    +0.000 NA
ATOM     28  C   UNL     1      47.081   8.890  21.165  0.00  0.00    +0.000 A 
ATOM     29  C   UNL     1      47.073   9.330  19.857  0.00  0.00    +0.000 A 
ATOM     30  C   UNL     1      47.540   8.464  18.874  0.00  0.00    +0.000 A 
ATOM     31  C   UNL     1      48.006   7.169  19.223  0.00  0.00    +0.000 A 
BRANCH  30  32
ATOM     32  O   UNL     1      47.544   8.876  17.564  0.00  0.00    +0.000 OA
ATOM     33  H   UNL     1      48.444   9.158  17.318  0.00  0.00    +0.000 HD
ENDBRANCH  30  32
ENDBRANCH  20  23
ENDBRANCH  18  19
ENDBRANCH   4  18
TORSDOF 8
ENDMDL
MODEL 8
REMARK VINA RESULT:    -6.479      2.367      3.233
REMARK INTER + INTRA:         -10.533
REMARK INTER:                  -9.247
REMARK INTRA:                  -1.286
REMARK UNBOUND:                -1.213
REMARK  Name = 
REMARK  9 active torsions:
REMARK  status: ('A' for Active; 'I' for Inactive)
REMARK    1  A    between atoms: C_1  and  C_2
REMARK    2  A    between atoms: C_6  and  C_7
REMARK    3  A    between atoms: C_7  and  N_8
REMARK    4  A    between atoms: N_8  and  C_9
REMARK    5  A    between atoms: C_9  and  C_10
REMARK    6  A    between atoms: C_13  and  C_14
REMARK    7  A    between atoms: C_14  and  N_15
REMARK    8  A    between atoms: C_16  and  C_18
REMARK    9  A    between atoms: C_25  and  O_26
REMARK                            x       y       z     vdW  Elec       q    Type
REMARK                         _______ _______ _______ _____ _____    ______ ____
ROOT
ATOM      1  C   UNL     1      46.036   7.908  11.828  0.00  0.00    +0.000 A 
ATOM      2  C   UNL     1      46.839   6.759  11.821  0.00  0.00    +0.000 A 
ATOM      3  C   UNL     1      48.163   6.811  12.267  0.00  0.00    +0.000 A 
ATOM      4  C   UNL     1      48.707   8.014  12.734  0.00  0.00    +0.000 A 
ATOM      5  C   UNL     1      47.915   9.171  12.709  0.00  0.00    +0.000 A 
ATOM      6  C   UNL     1      46.592   9.117  12.263  0.00  0.00    +0.000 A 
ENDROOT
BRANCH   1   7
ATOM      7  C   UNL     1      44.585   7.836  11.405  0.00  0.00    +0.000 C 
BRANCH   7   8
ATOM      8  N   UNL     1      43.811   6.852  12.164  0.00  0.00    +0.000 NA
ATOM      9  H   UNL     1      44.447   6.139  12.526  0.00  0.00    +0.000 HD
BRANCH   8  10
ATOM     10  C   UNL     1      42.829   6.153  11.323  0.00  0.00    +0.000 C 
BRANCH  10  16
ATOM     11  C   UNL     1      45.154   3.578   7.897  0.00  0.00    +0.000 C 
ATOM     12  C   UNL     1      44.488   3.586   9.238  0.00  0.00    +0.000 A 
ATOM     13  C   UNL     1      44.386   2.422   9.994  0.00  0.00    +0.000 A 
ATOM     14  C   UNL     1      43.750   2.478  11.230  0.00  0.00    +0.000 A 
ATOM     15  C   UNL     1      43.233   3.689  11.673  0.00  0.00    +0.000 A 
ATOM     16  C   UNL     1      43.361   4.811  10.860  0.00  0.00    +0.000 A 
ATOM     17  N   UNL     1      43.991   4.775   9.657  0.00  0.00    +0.000 NA
ENDBRANCH  10  16
ENDBRANCH   8  10
ENDBRANCH   7   8
ENDBRANCH   1   7
BRANCH   4  18
ATOM     18  C   UNL     1      50.123   8.072  13.242  0.00  0.00    +0.000 C 
BRANCH  18  19
ATOM     19  N   UNL     1      50.290   7.282  14.433  0.00  0.00    +0.000 N 
ATOM     20  C   UNL     1      50.129   7.831  15.677  0.00  0.00    +0.000 C 
ATOM     21  O   UNL     1      49.786   9.001  15.833  0.00  0.00    +0.000 OA
ATOM     22  H   UNL     1      50.766   6.389  14.358  0.00  0.00    +0.000 HD
BRANCH  20  23
ATOM     23  C   UNL     1      50.317   6.925  16.815  0.00  0.00    +0.000 A 
ATOM     24  C   UNL     1      51.399   7.125  17.664  0.00  0.00    +0.000 A 
ATOM     25  S   UNL     1      51.447   6.038  18.971  0.00  0.00    +0.000 S 
ATOM     26  C   UNL     1      50.062   5.227  18.413  0.00  0.00    +0.000 A 
ATOM     27  N   UNL     1      49.594   4.164  19.100  0.00  0.00    +0.000 NA
ATOM     28  C   UNL     1      48.506   3.588  18.562  0.00  0.00    +0.000 A 
ATOM     29  C   UNL     1      47.875   4.000  17.407  0.00  0.00    +0.000 A 
ATOM     30  C   UNL     1      48.391   5.105  16.738  0.00  0.00    +0.000 A 
ATOM     31  C   UNL     1      49.535   5.777  17.244  0.00  0.00    +0.000 A 
BRANCH  30  32
ATOM     32  O   UNL     1      47.782   5.537  15.586  0.00  0.00    +0.000 OA
ATOM     33  H   UNL     1      46.862   5.214  15.568  0.00  0.00    +0.000 HD
ENDBRANCH  30  32
ENDBRANCH  20  23
ENDBRANCH  18  19
ENDBRANCH   4  18
TORSDOF 8
ENDMDL
MODEL 9
REMARK VINA RESULT:    -6.392      4.312      6.478
REMARK INTER + INTRA:         -10.408
REMARK INTER:                  -9.681
REMARK INTRA:                  -0.727
REMARK UNBOUND:                -1.213
REMARK  Name = 
REMARK  9 active torsions:
REMARK  status: ('A' for Active; 'I' for Inactive)
REMARK    1  A    between atoms: C_1  and  C_2
REMARK    2  A    between atoms: C_6  and  C_7
REMARK    3  A    between atoms: C_7  and  N_8
REMARK    4  A    between atoms: N_8  and  C_9
REMARK    5  A    between atoms: C_9  and  C_10
REMARK    6  A    between atoms: C_13  and  C_14
REMARK    7  A    between atoms: C_14  and  N_15
REMARK    8  A    between atoms: C_16  and  C_18
REMARK    9  A    between atoms: C_25  and  O_26
REMARK                            x       y       z     vdW  Elec       q    Type
REMARK                         _______ _______ _______ _____ _____    ______ ____
ROOT
ATOM      1  C   UNL     1      44.905   7.197  11.929  0.00  0.00    +0.000 A 
ATOM      2  C   UNL     1      44.074   6.097  12.185  0.00  0.00    +0.000 A 
ATOM      3  C   UNL     1      44.525   5.028  12.963  0.00  0.00    +0.000 A 
ATOM      4  C   UNL     1      45.817   5.040  13.506  0.00  0.00    +0.000 A 
ATOM      5  C   UNL     1      46.660   6.123  13.221  0.00  0.00    +0.000 A 
ATOM      6  C   UNL     1      46.208   7.192  12.444  0.00  0.00    +0.000 A 
ENDROOT
BRANCH   1   7
ATOM      7  C   UNL     1      44.394   8.382  11.140  0.00  0.00    +0.000 C 
BRANCH   7   8
ATOM      8  N   UNL     1      44.207   9.582  11.958  0.00  0.00    +0.000 NA
ATOM      9  H   UNL     1      43.390   9.451  12.555  0.00  0.00    +0.000 HD
BRANCH   8  10
ATOM     10  C   UNL     1      43.944  10.774  11.138  0.00  0.00    +0.000 C 
BRANCH  10  16
ATOM     11  C   UNL     1      40.130  12.223  13.807  0.00  0.00    +0.000 C 
ATOM     12  C   UNL     1      40.666  11.873  12.453  0.00  0.00    +0.000 A 
ATOM     13  C   UNL     1      39.850  11.918  11.327  0.00  0.00    +0.000 A 
ATOM     14  C   UNL     1      40.390  11.573  10.092  0.00  0.00    +0.000 A 
ATOM     15  C   UNL     1      41.725  11.193  10.017  0.00  0.00    +0.000 A 
ATOM     16  C   UNL     1      42.480  11.160  11.187  0.00  0.00    +0.000 A 
ATOM     17  N   UNL     1      41.969  11.507  12.397  0.00  0.00    +0.000 NA
ENDBRANCH  10  16
ENDBRANCH   8  10
ENDBRANCH   7   8
ENDBRANCH   1   7
BRANCH   4  18
ATOM     18  C   UNL     1      46.300   3.905  14.368  0.00  0.00    +0.000 C 
BRANCH  18  19
ATOM     19  N   UNL     1      47.410   4.303  15.193  0.00  0.00    +0.000 N 
ATOM     20  C   UNL     1      47.482   3.935  16.510  0.00  0.00    +0.000 C 
ATOM     21  O   UNL     1      46.637   3.211  17.031  0.00  0.00    +0.000 OA
ATOM     22  H   UNL     1      48.008   5.056  14.869  0.00  0.00    +0.000 HD
BRANCH  20  23
ATOM     23  C   UNL     1      48.665   4.394  17.247  0.00  0.00    +0.000 A 
ATOM     24  C   UNL     1      48.651   5.658  17.823  0.00  0.00    +0.000 A 
ATOM     25  S   UNL     1      50.063   6.022  18.697  0.00  0.00    +0.000 S 
ATOM     26  C   UNL     1      50.764   4.530  18.285  0.00  0.00    +0.000 A 
ATOM     27  N   UNL     1      52.007   4.237  18.721  0.00  0.00    +0.000 NA
ATOM     28  C   UNL     1      52.470   3.040  18.324  0.00  0.00    +0.000 A 
ATOM     29  C   UNL     1      51.782   2.142  17.535  0.00  0.00    +0.000 A 
ATOM     30  C   UNL     1      50.501   2.487  17.116  0.00  0.00    +0.000 A 
ATOM     31  C   UNL     1      49.934   3.731  17.498  0.00  0.00    +0.000 A 
BRANCH  30  32
ATOM     32  O   UNL     1      49.794   1.610  16.330  0.00  0.00    +0.000 OA
ATOM     33  H   UNL     1      50.358   1.313  15.592  0.00  0.00    +0.000 HD
ENDBRANCH  30  32
ENDBRANCH  20  23
ENDBRANCH  18  19
ENDBRANCH   4  18
TORSDOF 8
ENDMDL
