MODEL 1
REMARK VINA RESULT:    -7.524      0.000      0.000
REMARK INTER + INTRA:         -11.306
REMARK INTER:                 -10.163
REMARK INTRA:                  -1.143
REMARK UNBOUND:                -1.143
REMARK  Name = 
REMARK  7 active torsions:
REMARK  status: ('A' for Active; 'I' for Inactive)
REMARK    1  A    between atoms: C_1  and  N_2
REMARK    2  A    between atoms: N_2  and  C_3
REMARK    3  A    between atoms: C_3  and  C_4
REMARK    4  A    between atoms: C_10  and  C_12
REMARK    5  A    between atoms: C_15  and  C_16
REMARK    6  A    between atoms: C_16  and  N_17
REMARK    7  A    between atoms: C_18  and  C_20
REMARK                            x       y       z     vdW  Elec       q    Type
REMARK                         _______ _______ _______ _____ _____    ______ ____
ROOT
ATOM      1  C   UNL     1      48.573   6.248  17.393  0.00  0.00    +0.000 A 
ATOM      2  C   UNL     1      48.961   7.502  16.931  0.00  0.00    +0.000 A 
ATOM      3  C   UNL     1      48.884   7.809  15.579  0.00  0.00    +0.000 A 
ATOM      4  C   UNL     1      48.509   6.814  14.689  0.00  0.00    +0.000 A 
ATOM      5  N   UNL     1      48.185   5.559  15.096  0.00  0.00    +0.000 NA
ATOM      6  C   UNL     1      48.228   5.305  16.433  0.00  0.00    +0.000 A 
ENDROOT
BRANCH   1   9
ATOM      7  C   UNL     1      49.555   4.844  20.806  0.00  0.00    +0.000 C 
ATOM      8  N   UNL     1      49.672   5.191  19.397  0.00  0.00    +0.000 N 
ATOM      9  C   UNL     1      48.579   5.859  18.824  0.00  0.00    +0.000 C 
ATOM     10  O   UNL     1      47.585   6.158  19.488  0.00  0.00    +0.000 OA
BRANCH   8  11
ATOM     11  C   UNL     1      51.020   5.106  18.823  0.00  0.00    +0.000 C 
BRANCH  11  12
ATOM     12  C   UNL     1      51.389   3.745  18.277  0.00  0.00    +0.000 A 
ATOM     13  C   UNL     1      52.635   3.132  18.464  0.00  0.00    +0.000 A 
ATOM     14  C   UNL     1      52.844   1.827  18.022  0.00  0.00    +0.000 A 
ATOM     15  C   UNL     1      51.806   1.178  17.378  0.00  0.00    +0.000 A 
ATOM     16  N   UNL     1      50.602   1.740  17.150  0.00  0.00    +0.000 NA
ATOM     17  C   UNL     1      50.421   3.002  17.603  0.00  0.00    +0.000 A 
ENDBRANCH  11  12
ENDBRANCH   8  11
ENDBRANCH   1   9
BRANCH   4  18
ATOM     18  C   UNL     1      48.460   7.124  13.212  0.00  0.00    +0.000 C 
BRANCH  18  19
ATOM     19  N   UNL     1      47.587   6.222  12.497  0.00  0.00    +0.000 N 
ATOM     20  C   UNL     1      46.484   6.649  11.809  0.00  0.00    +0.000 C 
ATOM     21  O   UNL     1      46.158   7.833  11.768  0.00  0.00    +0.000 OA
ATOM     22  H   UNL     1      47.697   5.237  12.722  0.00  0.00    +0.000 HD
BRANCH  20  23
ATOM     23  C   UNL     1      45.750   5.625  11.054  0.00  0.00    +0.000 A 
ATOM     24  C   UNL     1      45.790   5.633   9.665  0.00  0.00    +0.000 A 
ATOM     25  S   UNL     1      44.942   4.341   8.946  0.00  0.00    +0.000 S 
ATOM     26  C   UNL     1      44.442   3.753  10.463  0.00  0.00    +0.000 A 
ATOM     27  N   UNL     1      43.649   2.653  10.560  0.00  0.00    +0.000 NA
ATOM     28  C   UNL     1      43.323   2.334  11.768  0.00  0.00    +0.000 A 
ATOM     29  N   UNL     1      43.724   3.014  12.889  0.00  0.00    +0.000 N 
ATOM     30  C   UNL     1      44.560   4.101  12.840  0.00  0.00    +0.000 A 
ATOM     31  O   UNL     1      44.963   4.641  13.866  0.00  0.00    +0.000 OA
ATOM     32  C   UNL     1      44.934   4.520  11.503  0.00  0.00    +0.000 A 
ATOM     33  H   UNL     1      43.451   2.704  13.809  0.00  0.00    +0.000 HD
ENDBRANCH  20  23
ENDBRANCH  18  19
ENDBRANCH   4  18
TORSDOF 6
ENDMDL
MODEL 2
REMARK VINA RESULT:    -7.373      2.140      2.883
REMARK INTER + INTRA:         -11.102
REMARK INTER:                  -9.727
REMARK INTRA:                  -1.375
REMARK UNBOUND:                -1.143
REMARK  Name = 
REMARK  7 active torsions:
REMARK  status: ('A' for Active; 'I' for Inactive)
REMARK    1  A    between atoms: C_1  and  N_2
REMARK    2  A    between atoms: N_2  and  C_3
REMARK    3  A    between atoms: C_3  and  C_4
REMARK    4  A    between atoms: C_10  and  C_12
REMARK    5  A    between atoms: C_15  and  C_16
REMARK    6  A    between atoms: C_16  and  N_17
REMARK    7  A    between atoms: C_18  and  C_20
REMARK                            x       y       z     vdW  Elec       q    Type
REMARK                         _______ _______ _______ _____ _____    ______ ____
ROOT
ATOM      1  C   UNL     1      49.310   7.807  16.273  0.00  0.00    +0.000 A 
ATOM      2  C   UNL     1      48.416   8.785  15.849  0.00  0.00    +0.000 A 
ATOM      3  C   UNL     1      47.867   8.733  14.575  0.00  0.00    +0.000 A 
ATOM      4  C   UNL     1      48.302   7.748  13.701  0.00  0.00    +0.000 A 
ATOM      5  N   UNL     1      49.222   6.814  14.059  0.00  0.00    +0.000 NA
ATOM      6  C   UNL     1      49.706   6.867  15.330  0.00  0.00    +0.000 A 
ENDROOT
BRANCH   1   9
ATOM      7  C   UNL     1      49.877   7.249  20.009  0.00  0.00    +0.000 C 
ATOM      8  N   UNL     1      49.201   7.217  18.720  0.00  0.00    +0.000 N 
ATOM      9  C   UNL     1      49.901   7.764  17.633  0.00  0.00    +0.000 C 
ATOM     10  O   UNL     1      51.038   8.221  17.761  0.00  0.00    +0.000 OA
BRANCH   8  11
ATOM     11  C   UNL     1      48.028   6.341  18.629  0.00  0.00    +0.000 C 
BRANCH  11  12
ATOM     12  C   UNL     1      48.278   5.018  17.941  0.00  0.00    +0.000 A 
ATOM     13  C   UNL     1      49.394   4.204  18.179  0.00  0.00    +0.000 A 
ATOM     14  C   UNL     1      49.481   2.947  17.585  0.00  0.00    +0.000 A 
ATOM     15  C   UNL     1      48.458   2.547  16.743  0.00  0.00    +0.000 A 
ATOM     16  N   UNL     1      47.382   3.309  16.462  0.00  0.00    +0.000 NA
ATOM     17  C   UNL     1      47.316   4.519  17.065  0.00  0.00    +0.000 A 
ENDBRANCH  11  12
ENDBRANCH   8  11
ENDBRANCH   1   9
BRANCH   4  18
ATOM     18  C   UNL     1      47.744   7.704  12.299  0.00  0.00    +0.000 C 
BRANCH  18  19
ATOM     19  N   UNL     1      47.004   6.490  12.046  0.00  0.00    +0.000 N 
ATOM     20  C   UNL     1      45.658   6.381  12.271  0.00  0.00    +0.000 C 
ATOM     21  O   UNL     1      44.994   7.314  12.718  0.00  0.00    +0.000 OA
ATOM     22  H   UNL     1      47.567   5.654  11.918  0.00  0.00    +0.000 HD
BRANCH  20  23
ATOM     23  C   UNL     1      45.032   5.113  11.878  0.00  0.00    +0.000 A 
ATOM     24  C   UNL     1      44.328   4.372  12.819  0.00  0.00    +0.000 A 
ATOM     25  S   UNL     1      43.608   2.963  12.185  0.00  0.00    +0.000 S 
ATOM     26  C   UNL     1      44.255   3.261  10.640  0.00  0.00    +0.000 A 
ATOM     27  N   UNL     1      44.032   2.402   9.610  0.00  0.00    +0.000 NA
ATOM     28  C   UNL     1      44.605   2.736   8.502  0.00  0.00    +0.000 A 
ATOM     29  N   UNL     1      45.378   3.855   8.330  0.00  0.00    +0.000 N 
ATOM     30  C   UNL     1      45.591   4.772   9.328  0.00  0.00    +0.000 A 
ATOM     31  O   UNL     1      46.223   5.804   9.121  0.00  0.00    +0.000 OA
ATOM     32  C   UNL     1      44.992   4.431  10.605  0.00  0.00    +0.000 A 
ATOM     33  H   UNL     1      45.784   4.072   7.432  0.00  0.00    +0.000 HD
ENDBRANCH  20  23
ENDBRANCH  18  19
ENDBRANCH   4  18
TORSDOF 6
ENDMDL
MODEL 3
REMARK VINA RESULT:    -6.997      5.703      8.661
REMARK INTER + INTRA:         -10.595
REMARK INTER:                  -9.467
REMARK INTRA:                  -1.128
REMARK UNBOUND:                -1.143
REMARK  Name = 
REMARK  7 active torsions:
REMARK  status: ('A' for Active; 'I' for Inactive)
REMARK    1  A    between atoms: C_1  and  N_2
REMARK    2  A    between atoms: N_2  and  C_3
REMARK    3  A    between atoms: C_3  and  C_4
REMARK    4  A    between atoms: C_10  and  C_12
REMARK    5  A    between atoms: C_15  and  C_16
REMARK    6  A    between atoms: C_16  and  N_17
REMARK    7  A    between atoms: C_18  and  C_20
REMARK                            x       y       z     vdW  Elec       q    Type
REMARK                         _______ _______ _______ _____ _____    ______ ____
ROOT
ATOM      1  C   UNL     1      45.566   5.866  12.479  0.00  0.00    +0.000 A 
ATOM      2  C   UNL     1      46.888   6.003  12.066  0.00  0.00    +0.000 A 
ATOM      3  C   UNL     1      47.475   7.259  11.990  0.00  0.00    +0.000 A 
ATOM      4  C   UNL     1      46.692   8.378  12.237  0.00  0.00    +0.000 A 
ATOM      5  N   UNL     1      45.381   8.285  12.580  0.00  0.00    +0.000 NA
ATOM      6  C   UNL     1      44.849   7.036  12.689  0.00  0.00    +0.000 A 
ENDROOT
BRANCH   1   9
ATOM      7  C   UNL     1      43.383   2.781  11.920  0.00  0.00    +0.000 C 
ATOM      8  N   UNL     1      44.010   4.067  11.649  0.00  0.00    +0.000 N 
ATOM      9  C   UNL     1      44.882   4.558  12.632  0.00  0.00    +0.000 C 
ATOM     10  O   UNL     1      45.124   3.920  13.658  0.00  0.00    +0.000 OA
BRANCH   8  11
ATOM     11  C   UNL     1      43.925   4.546  10.264  0.00  0.00    +0.000 C 
BRANCH  11  12
ATOM     12  C   UNL     1      44.932   3.930   9.319  0.00  0.00    +0.000 A 
ATOM     13  C   UNL     1      45.097   2.552   9.131  0.00  0.00    +0.000 A 
ATOM     14  C   UNL     1      45.970   2.080   8.152  0.00  0.00    +0.000 A 
ATOM     15  C   UNL     1      46.678   3.004   7.404  0.00  0.00    +0.000 A 
ATOM     16  N   UNL     1      46.572   4.338   7.571  0.00  0.00    +0.000 NA
ATOM     17  C   UNL     1      45.706   4.768   8.517  0.00  0.00    +0.000 A 
ENDBRANCH  11  12
ENDBRANCH   8  11
ENDBRANCH   1   9
BRANCH   4  18
ATOM     18  C   UNL     1      47.307   9.750  12.119  0.00  0.00    +0.000 C 
BRANCH  18  19
ATOM     19  N   UNL     1      48.566   9.723  11.411  0.00  0.00    +0.000 N 
ATOM     20  C   UNL     1      49.438  10.777  11.409  0.00  0.00    +0.000 C 
ATOM     21  O   UNL     1      49.196  11.825  12.003  0.00  0.00    +0.000 OA
ATOM     22  H   UNL     1      48.666   8.978  10.727  0.00  0.00    +0.000 HD
BRANCH  20  23
ATOM     23  C   UNL     1      50.718  10.564  10.722  0.00  0.00    +0.000 A 
ATOM     24  C   UNL     1      51.123  11.449   9.729  0.00  0.00    +0.000 A 
ATOM     25  S   UNL     1      52.658  11.097   9.080  0.00  0.00    +0.000 S 
ATOM     26  C   UNL     1      52.818   9.716  10.062  0.00  0.00    +0.000 A 
ATOM     27  N   UNL     1      53.922   8.926   9.984  0.00  0.00    +0.000 NA
ATOM     28  C   UNL     1      53.899   7.897  10.764  0.00  0.00    +0.000 A 
ATOM     29  N   UNL     1      52.873   7.591  11.619  0.00  0.00    +0.000 N 
ATOM     30  C   UNL     1      51.763   8.384  11.764  0.00  0.00    +0.000 A 
ATOM     31  O   UNL     1      50.897   8.123  12.594  0.00  0.00    +0.000 OA
ATOM     32  C   UNL     1      51.723   9.539  10.888  0.00  0.00    +0.000 A 
ATOM     33  H   UNL     1      52.922   6.781  12.220  0.00  0.00    +0.000 HD
ENDBRANCH  20  23
ENDBRANCH  18  19
ENDBRANCH   4  18
TORSDOF 6
ENDMDL
MODEL 4
REMARK VINA RESULT:    -6.730      2.596      4.230
REMARK INTER + INTRA:         -10.234
REMARK INTER:                  -8.932
REMARK INTRA:                  -1.302
REMARK UNBOUND:                -1.143
REMARK  Name = 
REMARK  7 active torsions:
REMARK  status: ('A' for Active; 'I' for Inactive)
REMARK    1  A    between atoms: C_1  and  N_2
REMARK    2  A    between atoms: N_2  and  C_3
REMARK    3  A    between atoms: C_3  and  C_4
REMARK    4  A    between atoms: C_10  and  C_12
REMARK    5  A    between atoms: C_15  and  C_16
REMARK    6  A    between atoms: C_16  and  N_17
REMARK    7  A    between atoms: C_18  and  C_20
REMARK                            x       y       z     vdW  Elec       q    Type
REMARK                         _______ _______ _______ _____ _____    ______ ____
ROOT
ATOM      1  C   UNL     1      50.675   4.756  18.981  0.00  0.00    +0.000 A 
ATOM      2  C   UNL     1      49.390   5.007  19.451  0.00  0.00    +0.000 A 
ATOM      3  C   UNL     1      48.282   4.546  18.753  0.00  0.00    +0.000 A 
ATOM      4  C   UNL     1      48.476   3.920  17.531  0.00  0.00    +0.000 A 
ATOM      5  N   UNL     1      49.714   3.714  17.009  0.00  0.00    +0.000 NA
ATOM      6  C   UNL     1      50.780   4.139  17.741  0.00  0.00    +0.000 A 
ENDROOT
BRANCH   1   9
ATOM      7  C   UNL     1      53.640   6.761  20.316  0.00  0.00    +0.000 C 
ATOM      8  N   UNL     1      52.411   6.477  19.588  0.00  0.00    +0.000 N 
ATOM      9  C   UNL     1      51.909   5.171  19.692  0.00  0.00    +0.000 C 
ATOM     10  O   UNL     1      52.466   4.318  20.386  0.00  0.00    +0.000 OA
BRANCH   8  11
ATOM     11  C   UNL     1      51.665   7.644  19.104  0.00  0.00    +0.000 C 
BRANCH  11  12
ATOM     12  C   UNL     1      51.416   7.661  17.613  0.00  0.00    +0.000 A 
ATOM     13  C   UNL     1      50.152   7.800  17.025  0.00  0.00    +0.000 A 
ATOM     14  C   UNL     1      50.033   7.921  15.642  0.00  0.00    +0.000 A 
ATOM     15  C   UNL     1      51.186   7.874  14.878  0.00  0.00    +0.000 A 
ATOM     16  N   UNL     1      52.420   7.713  15.399  0.00  0.00    +0.000 NA
ATOM     17  C   UNL     1      52.507   7.612  16.745  0.00  0.00    +0.000 A 
ENDBRANCH  11  12
ENDBRANCH   8  11
ENDBRANCH   1   9
BRANCH   4  18
ATOM     18  C   UNL     1      47.278   3.450  16.742  0.00  0.00    +0.000 C 
BRANCH  18  19
ATOM     19  N   UNL     1      46.844   4.433  15.776  0.00  0.00    +0.000 N 
ATOM     20  C   UNL     1      46.846   4.197  14.428  0.00  0.00    +0.000 C 
ATOM     21  O   UNL     1      47.232   3.132  13.953  0.00  0.00    +0.000 OA
ATOM     22  H   UNL     1      46.760   5.382  16.127  0.00  0.00    +0.000 HD
BRANCH  20  23
ATOM     23  C   UNL     1      46.289   5.258  13.581  0.00  0.00    +0.000 A 
ATOM     24  C   UNL     1      47.023   6.416  13.354  0.00  0.00    +0.000 A 
ATOM     25  S   UNL     1      46.263   7.515  12.297  0.00  0.00    +0.000 S 
ATOM     26  C   UNL     1      44.898   6.510  12.144  0.00  0.00    +0.000 A 
ATOM     27  N   UNL     1      43.838   6.882  11.378  0.00  0.00    +0.000 NA
ATOM     28  C   UNL     1      42.861   6.038  11.373  0.00  0.00    +0.000 A 
ATOM     29  N   UNL     1      42.851   4.853  12.063  0.00  0.00    +0.000 N 
ATOM     30  C   UNL     1      43.916   4.418  12.810  0.00  0.00    +0.000 A 
ATOM     31  O   UNL     1      43.906   3.317  13.353  0.00  0.00    +0.000 OA
ATOM     32  C   UNL     1      45.032   5.343  12.873  0.00  0.00    +0.000 A 
ATOM     33  H   UNL     1      42.063   4.226  12.004  0.00  0.00    +0.000 HD
ENDBRANCH  20  23
ENDBRANCH  18  19
ENDBRANCH   4  18
TORSDOF 6
ENDMDL
MODEL 5
REMARK VINA RESULT:    -6.589      3.544      8.937
REMARK INTER + INTRA:         -10.044
REMARK INTER:                  -9.999
REMARK INTRA:                  -0.044
REMARK UNBOUND:                -1.143
REMARK  Name = 
REMARK  7 active torsions:
REMARK  status: ('A' for Active; 'I' for Inactive)
REMARK    1  A    between atoms: C_1  and  N_2
REMARK    2  A    between atoms: N_2  and  C_3
REMARK    3  A    between atoms: C_3  and  C_4
REMARK    4  A    between atoms: C_10  and  C_12
REMARK    5  A    between atoms: C_15  and  C_16
REMARK    6  A    between atoms: C_16  and  N_17
REMARK    7  A    between atoms: C_18  and  C_20
REMARK                            x       y       z     vdW  Elec       q    Type
REMARK                         _______ _______ _______ _____ _____    ______ ____
ROOT
ATOM      1  C   UNL     1      44.918   4.878  11.451  0.00  0.00    +0.000 A 
ATOM      2  C   UNL     1      46.043   5.055  12.251  0.00  0.00    +0.000 A 
ATOM      3  C   UNL     1      46.355   6.309  12.759  0.00  0.00    +0.000 A 
ATOM      4  C   UNL     1      45.585   7.396  12.372  0.00  0.00    +0.000 A 
ATOM      5  N   UNL     1      44.517   7.271  11.541  0.00  0.00    +0.000 NA
ATOM      6  C   UNL     1      44.213   6.021  11.098  0.00  0.00    +0.000 A 
ENDROOT
BRANCH   1   9
ATOM      7  C   UNL     1      44.162   1.934   9.137  0.00  0.00    +0.000 C 
ATOM      8  N   UNL     1      44.637   3.246   9.553  0.00  0.00    +0.000 N 
ATOM      9  C   UNL     1      44.490   3.564  10.911  0.00  0.00    +0.000 C 
ATOM     10  O   UNL     1      44.009   2.762  11.714  0.00  0.00    +0.000 OA
BRANCH   8  11
ATOM     11  C   UNL     1      45.499   3.951   8.597  0.00  0.00    +0.000 C 
BRANCH  11  12
ATOM     12  C   UNL     1      46.243   3.054   7.635  0.00  0.00    +0.000 A 
ATOM     13  C   UNL     1      46.654   1.748   7.931  0.00  0.00    +0.000 A 
ATOM     14  C   UNL     1      47.231   0.954   6.941  0.00  0.00    +0.000 A 
ATOM     15  C   UNL     1      47.406   1.501   5.682  0.00  0.00    +0.000 A 
ATOM     16  N   UNL     1      47.053   2.763   5.361  0.00  0.00    +0.000 NA
ATOM     17  C   UNL     1      46.482   3.505   6.337  0.00  0.00    +0.000 A 
ENDBRANCH  11  12
ENDBRANCH   8  11
ENDBRANCH   1   9
BRANCH   4  18
ATOM     18  C   UNL     1      45.938   8.771  12.885  0.00  0.00    +0.000 C 
BRANCH  18  19
ATOM     19  N   UNL     1      46.710   8.715  14.104  0.00  0.00    +0.000 N 
ATOM     20  C   UNL     1      48.021   9.101  14.169  0.00  0.00    +0.000 C 
ATOM     21  O   UNL     1      48.630   9.511  13.184  0.00  0.00    +0.000 OA
ATOM     22  H   UNL     1      46.306   8.158  14.852  0.00  0.00    +0.000 HD
BRANCH  20  23
ATOM     23  C   UNL     1      48.643   9.075  15.499  0.00  0.00    +0.000 A 
ATOM     24  C   UNL     1      48.889  10.268  16.168  0.00  0.00    +0.000 A 
ATOM     25  S   UNL     1      49.553  10.059  17.723  0.00  0.00    +0.000 S 
ATOM     26  C   UNL     1      49.588   8.367  17.541  0.00  0.00    +0.000 A 
ATOM     27  N   UNL     1      50.075   7.567  18.527  0.00  0.00    +0.000 NA
ATOM     28  C   UNL     1      50.068   6.307  18.245  0.00  0.00    +0.000 A 
ATOM     29  N   UNL     1      49.612   5.775  17.067  0.00  0.00    +0.000 N 
ATOM     30  C   UNL     1      49.070   6.540  16.066  0.00  0.00    +0.000 A 
ATOM     31  O   UNL     1      48.599   6.026  15.055  0.00  0.00    +0.000 OA
ATOM     32  C   UNL     1      49.080   7.968  16.318  0.00  0.00    +0.000 A 
ATOM     33  H   UNL     1      49.614   4.778  16.913  0.00  0.00    +0.000 HD
ENDBRANCH  20  23
ENDBRANCH  18  19
ENDBRANCH   4  18
TORSDOF 6
ENDMDL
MODEL 6
REMARK VINA RESULT:    -6.509      5.717      8.993
REMARK INTER + INTRA:          -9.936
REMARK INTER:                  -9.608
REMARK INTRA:                  -0.328
REMARK UNBOUND:                -1.143
REMARK  Name = 
REMARK  7 active torsions:
REMARK  status: ('A' for Active; 'I' for Inactive)
REMARK    1  A    between atoms: C_1  and  N_2
REMARK    2  A    between atoms: N_2  and  C_3
REMARK    3  A    between atoms: C_3  and  C_4
REMARK    4  A    between atoms: C_10  and  C_12
REMARK    5  A    between atoms: C_15  and  C_16
REMARK    6  A    between atoms: C_16  and  N_17
REMARK    7  A    between atoms: C_18  and  C_20
REMARK                            x       y       z     vdW  Elec       q    Type
REMARK                         _______ _______ _______ _____ _____    ______ ____
ROOT
ATOM      1  C   UNL     1      44.688   4.780  11.247  0.00  0.00    +0.000 A 
ATOM      2  C   UNL     1      45.845   5.077  11.961  0.00  0.00    +0.000 A 
ATOM      3  C   UNL     1      46.045   6.349  12.479  0.00  0.00    +0.000 A 
ATOM      4  C   UNL     1      45.121   7.342  12.188  0.00  0.00    +0.000 A 
ATOM      5  N   UNL     1      44.012   7.105  11.440  0.00  0.00    +0.000 NA
ATOM      6  C   UNL     1      43.824   5.835  10.985  0.00  0.00    +0.000 A 
ENDROOT
BRANCH   1   9
ATOM      7  C   UNL     1      44.350   1.735   8.965  0.00  0.00    +0.000 C 
ATOM      8  N   UNL     1      44.725   3.076   9.393  0.00  0.00    +0.000 N 
ATOM      9  C   UNL     1      44.377   3.435  10.704  0.00  0.00    +0.000 C 
ATOM     10  O   UNL     1      43.810   2.646  11.461  0.00  0.00    +0.000 OA
BRANCH   8  11
ATOM     11  C   UNL     1      45.694   3.775   8.542  0.00  0.00    +0.000 C 
BRANCH  11  12
ATOM     12  C   UNL     1      46.307   2.926   7.451  0.00  0.00    +0.000 A 
ATOM     13  C   UNL     1      46.346   3.288   6.098  0.00  0.00    +0.000 A 
ATOM     14  C   UNL     1      47.034   2.495   5.182  0.00  0.00    +0.000 A 
ATOM     15  C   UNL     1      47.645   1.342   5.641  0.00  0.00    +0.000 A 
ATOM     16  N   UNL     1      47.607   0.940   6.928  0.00  0.00    +0.000 NA
ATOM     17  C   UNL     1      46.945   1.736   7.798  0.00  0.00    +0.000 A 
ENDBRANCH  11  12
ENDBRANCH   8  11
ENDBRANCH   1   9
BRANCH   4  18
ATOM     18  C   UNL     1      45.348   8.739  12.711  0.00  0.00    +0.000 C 
BRANCH  18  19
ATOM     19  N   UNL     1      46.582   9.309  12.223  0.00  0.00    +0.000 N 
ATOM     20  C   UNL     1      47.701   9.429  13.002  0.00  0.00    +0.000 C 
ATOM     21  O   UNL     1      47.721   9.070  14.177  0.00  0.00    +0.000 OA
ATOM     22  H   UNL     1      46.510   9.827  11.352  0.00  0.00    +0.000 HD
BRANCH  20  23
ATOM     23  C   UNL     1      48.906   9.941  12.337  0.00  0.00    +0.000 A 
ATOM     24  C   UNL     1      49.090  11.313  12.207  0.00  0.00    +0.000 A 
ATOM     25  S   UNL     1      50.567  11.741  11.472  0.00  0.00    +0.000 S 
ATOM     26  C   UNL     1      50.993  10.108  11.250  0.00  0.00    +0.000 A 
ATOM     27  N   UNL     1      52.160   9.766  10.642  0.00  0.00    +0.000 NA
ATOM     28  C   UNL     1      52.343   8.494  10.515  0.00  0.00    +0.000 A 
ATOM     29  N   UNL     1      51.466   7.534  10.946  0.00  0.00    +0.000 N 
ATOM     30  C   UNL     1      50.300   7.833  11.605  0.00  0.00    +0.000 A 
ATOM     31  O   UNL     1      49.573   6.947  12.047  0.00  0.00    +0.000 OA
ATOM     32  C   UNL     1      50.030   9.250  11.750  0.00  0.00    +0.000 A 
ATOM     33  H   UNL     1      51.675   6.553  10.834  0.00  0.00    +0.000 HD
ENDBRANCH  20  23
ENDBRANCH  18  19
ENDBRANCH   4  18
TORSDOF 6
ENDMDL
MODEL 7
REMARK VINA RESULT:    -6.313      3.300      8.190
REMARK INTER + INTRA:          -9.671
REMARK INTER:                  -8.137
REMARK INTRA:                  -1.534
REMARK UNBOUND:                -1.143
REMARK  Name = 
REMARK  7 active torsions:
REMARK  status: ('A' for Active; 'I' for Inactive)
REMARK    1  A    between atoms: C_1  and  N_2
REMARK    2  A    between atoms: N_2  and  C_3
REMARK    3  A    between atoms: C_3  and  C_4
REMARK    4  A    between atoms: C_10  and  C_12
REMARK    5  A    between atoms: C_15  and  C_16
REMARK    6  A    between atoms: C_16  and  N_17
REMARK    7  A    between atoms: C_18  and  C_20
REMARK                            x       y       z     vdW  Elec       q    Type
REMARK                         _______ _______ _______ _____ _____    ______ ____
ROOT
ATOM      1  C   UNL     1      47.705   9.332  12.385  0.00  0.00    +0.000 A 
ATOM      2  C   UNL     1      48.565   8.438  11.756  0.00  0.00    +0.000 A 
ATOM      3  C   UNL     1      49.704   7.981  12.405  0.00  0.00    +0.000 A 
ATOM      4  C   UNL     1      50.020   8.508  13.649  0.00  0.00    +0.000 A 
ATOM      5  N   UNL     1      49.237   9.431  14.266  0.00  0.00    +0.000 NA
ATOM      6  C   UNL     1      48.105   9.824  13.621  0.00  0.00    +0.000 A 
ENDROOT
BRANCH   1   9
ATOM      7  C   UNL     1      44.143   9.597  11.029  0.00  0.00    +0.000 C 
ATOM      8  N   UNL     1      45.316   9.005  11.657  0.00  0.00    +0.000 N 
ATOM      9  C   UNL     1      46.445   9.829  11.779  0.00  0.00    +0.000 C 
ATOM     10  O   UNL     1      46.433  11.001  11.399  0.00  0.00    +0.000 OA
BRANCH   8  11
ATOM     11  C   UNL     1      45.093   7.746  12.378  0.00  0.00    +0.000 C 
BRANCH  11  12
ATOM     12  C   UNL     1      44.766   6.562  11.497  0.00  0.00    +0.000 A 
ATOM     13  C   UNL     1      45.660   5.987  10.585  0.00  0.00    +0.000 A 
ATOM     14  C   UNL     1      45.310   4.826   9.900  0.00  0.00    +0.000 A 
ATOM     15  C   UNL     1      44.057   4.283  10.127  0.00  0.00    +0.000 A 
ATOM     16  N   UNL     1      43.155   4.819  10.974  0.00  0.00    +0.000 NA
ATOM     17  C   UNL     1      43.527   5.937  11.636  0.00  0.00    +0.000 A 
ENDBRANCH  11  12
ENDBRANCH   8  11
ENDBRANCH   1   9
BRANCH   4  18
ATOM     18  C   UNL     1      51.277   8.050  14.347  0.00  0.00    +0.000 C 
BRANCH  18  19
ATOM     19  N   UNL     1      51.007   7.041  15.345  0.00  0.00    +0.000 N 
ATOM     20  C   UNL     1      50.769   7.344  16.659  0.00  0.00    +0.000 C 
ATOM     21  O   UNL     1      50.783   8.500  17.075  0.00  0.00    +0.000 OA
ATOM     22  H   UNL     1      51.232   6.088  15.075  0.00  0.00    +0.000 HD
BRANCH  20  23
ATOM     23  C   UNL     1      50.418   6.218  17.533  0.00  0.00    +0.000 A 
ATOM     24  C   UNL     1      51.126   6.015  18.712  0.00  0.00    +0.000 A 
ATOM     25  S   UNL     1      50.551   4.709  19.643  0.00  0.00    +0.000 S 
ATOM     26  C   UNL     1      49.367   4.330  18.480  0.00  0.00    +0.000 A 
ATOM     27  N   UNL     1      48.527   3.275  18.655  0.00  0.00    +0.000 NA
ATOM     28  C   UNL     1      47.697   3.086  17.683  0.00  0.00    +0.000 A 
ATOM     29  N   UNL     1      47.630   3.861  16.554  0.00  0.00    +0.000 N 
ATOM     30  C   UNL     1      48.427   4.960  16.358  0.00  0.00    +0.000 A 
ATOM     31  O   UNL     1      48.289   5.679  15.372  0.00  0.00    +0.000 OA
ATOM     32  C   UNL     1      49.398   5.203  17.407  0.00  0.00    +0.000 A 
ATOM     33  H   UNL     1      46.946   3.673  15.837  0.00  0.00    +0.000 HD
ENDBRANCH  20  23
ENDBRANCH  18  19
ENDBRANCH   4  18
TORSDOF 6
ENDMDL
MODEL 8
REMARK VINA RESULT:    -6.114      5.481      9.057
REMARK INTER + INTRA:          -9.402
REMARK INTER:                  -8.336
REMARK INTRA:                  -1.066
REMARK UNBOUND:                -1.143
REMARK  Name = 
REMARK  7 active torsions:
REMARK  status: ('A' for Active; 'I' for Inactive)
REMARK    1  A    between atoms: C_1  and  N_2
REMARK    2  A    between atoms: N_2  and  C_3
REMARK    3  A    between atoms: C_3  and  C_4
REMARK    4  A    between atoms: C_10  and  C_12
REMARK    5  A    between atoms: C_15  and  C_16
REMARK    6  A    between atoms: C_16  and  N_17
REMARK    7  A    between atoms: C_18  and  C_20
REMARK                            x       y       z     vdW  Elec       q    Type
REMARK                         _______ _______ _______ _____ _____    ______ ____
ROOT
ATOM      1  C   UNL     1      46.137   6.227  12.768  0.00  0.00    +0.000 A 
ATOM      2  C   UNL     1      47.464   6.170  12.354  0.00  0.00    +0.000 A 
ATOM      3  C   UNL     1      48.173   7.337  12.098  0.00  0.00    +0.000 A 
ATOM      4  C   UNL     1      47.507   8.551  12.166  0.00  0.00    +0.000 A 
ATOM      5  N   UNL     1      46.194   8.641  12.505  0.00  0.00    +0.000 NA
ATOM      6  C   UNL     1      45.541   7.481  12.792  0.00  0.00    +0.000 A 
ENDROOT
BRANCH   1   9
ATOM      7  C   UNL     1      43.476   3.487  12.791  0.00  0.00    +0.000 C 
ATOM      8  N   UNL     1      44.203   4.669  12.350  0.00  0.00    +0.000 N 
ATOM      9  C   UNL     1      45.327   5.031  13.107  0.00  0.00    +0.000 C 
ATOM     10  O   UNL     1      45.695   4.366  14.077  0.00  0.00    +0.000 OA
BRANCH   8  11
ATOM     11  C   UNL     1      43.887   5.153  11.001  0.00  0.00    +0.000 C 
BRANCH  11  12
ATOM     12  C   UNL     1      44.643   4.463   9.888  0.00  0.00    +0.000 A 
ATOM     13  C   UNL     1      44.384   3.159   9.448  0.00  0.00    +0.000 A 
ATOM     14  C   UNL     1      45.055   2.649   8.339  0.00  0.00    +0.000 A 
ATOM     15  C   UNL     1      45.991   3.452   7.712  0.00  0.00    +0.000 A 
ATOM     16  N   UNL     1      46.294   4.702   8.120  0.00  0.00    +0.000 NA
ATOM     17  C   UNL     1      45.617   5.177   9.190  0.00  0.00    +0.000 A 
ENDBRANCH  11  12
ENDBRANCH   8  11
ENDBRANCH   1   9
BRANCH   4  18
ATOM     18  C   UNL     1      48.255   9.823  11.852  0.00  0.00    +0.000 C 
BRANCH  18  19
ATOM     19  N   UNL     1      49.628   9.568  11.482  0.00  0.00    +0.000 N 
ATOM     20  C   UNL     1      50.680   9.826  12.319  0.00  0.00    +0.000 C 
ATOM     21  O   UNL     1      50.520  10.304  13.440  0.00  0.00    +0.000 OA
ATOM     22  H   UNL     1      49.792   9.411  10.492  0.00  0.00    +0.000 HD
BRANCH  20  23
ATOM     23  C   UNL     1      52.008   9.426  11.838  0.00  0.00    +0.000 A 
ATOM     24  C   UNL     1      52.756   8.507  12.564  0.00  0.00    +0.000 A 
ATOM     25  S   UNL     1      54.242   8.102  11.836  0.00  0.00    +0.000 S 
ATOM     26  C   UNL     1      53.969   9.183  10.549  0.00  0.00    +0.000 A 
ATOM     27  N   UNL     1      54.890   9.342   9.562  0.00  0.00    +0.000 NA
ATOM     28  C   UNL     1      54.566  10.212   8.665  0.00  0.00    +0.000 A 
ATOM     29  N   UNL     1      53.402  10.935   8.665  0.00  0.00    +0.000 N 
ATOM     30  C   UNL     1      52.426  10.773   9.615  0.00  0.00    +0.000 A 
ATOM     31  O   UNL     1      51.360  11.379   9.544  0.00  0.00    +0.000 OA
ATOM     32  C   UNL     1      52.750   9.826  10.665  0.00  0.00    +0.000 A 
ATOM     33  H   UNL     1      53.197  11.588   7.924  0.00  0.00    +0.000 HD
ENDBRANCH  20  23
ENDBRANCH  18  19
ENDBRANCH   4  18
TORSDOF 6
ENDMDL
MODEL 9
REMARK VINA RESULT:    -6.006      3.457      8.761
REMARK INTER + INTRA:          -9.256
REMARK INTER:                  -7.837
REMARK INTRA:                  -1.419
REMARK UNBOUND:                -1.143
REMARK  Name = 
REMARK  7 active torsions:
REMARK  status: ('A' for Active; 'I' for Inactive)
REMARK    1  A    between atoms: C_1  and  N_2
REMARK    2  A    between atoms: N_2  and  C_3
REMARK    3  A    between atoms: C_3  and  C_4
REMARK    4  A    between atoms: C_10  and  C_12
REMARK    5  A    between atoms: C_15  and  C_16
REMARK    6  A    between atoms: C_16  and  N_17
REMARK    7  A    between atoms: C_18  and  C_20
REMARK                            x       y       z     vdW  Elec       q    Type
REMARK                         _______ _______ _______ _____ _____    ______ ____
ROOT
ATOM      1  C   UNL     1      47.493   8.759  12.913  0.00  0.00    +0.000 A 
ATOM      2  C   UNL     1      48.371   7.809  12.400  0.00  0.00    +0.000 A 
ATOM      3  C   UNL     1      49.315   7.207  13.222  0.00  0.00    +0.000 A 
ATOM      4  C   UNL     1      49.431   7.640  14.534  0.00  0.00    +0.000 A 
ATOM      5  N   UNL     1      48.634   8.611  15.052  0.00  0.00    +0.000 NA
ATOM      6  C   UNL     1      47.690   9.149  14.232  0.00  0.00    +0.000 A 
ENDROOT
BRANCH   1   9
ATOM      7  C   UNL     1      44.270   9.479  10.993  0.00  0.00    +0.000 C 
ATOM      8  N   UNL     1      45.234   8.743  11.799  0.00  0.00    +0.000 N 
ATOM      9  C   UNL     1      46.426   9.412  12.115  0.00  0.00    +0.000 C 
ATOM     10  O   UNL     1      46.633  10.571  11.752  0.00  0.00    +0.000 OA
BRANCH   8  11
ATOM     11  C   UNL     1      44.731   7.533  12.458  0.00  0.00    +0.000 C 
BRANCH  11  12
ATOM     12  C   UNL     1      44.555   6.341  11.544  0.00  0.00    +0.000 A 
ATOM     13  C   UNL     1      45.510   5.915  10.612  0.00  0.00    +0.000 A 
ATOM     14  C   UNL     1      45.309   4.737   9.894  0.00  0.00    +0.000 A 
ATOM     15  C   UNL     1      44.141   4.028  10.111  0.00  0.00    +0.000 A 
ATOM     16  N   UNL     1      43.182   4.417  10.977  0.00  0.00    +0.000 NA
ATOM     17  C   UNL     1      43.410   5.556  11.670  0.00  0.00    +0.000 A 
ENDBRANCH  11  12
ENDBRANCH   8  11
ENDBRANCH   1   9
BRANCH   4  18
ATOM     18  C   UNL     1      50.480   7.022  15.426  0.00  0.00    +0.000 C 
BRANCH  18  19
ATOM     19  N   UNL     1      50.013   6.863  16.784  0.00  0.00    +0.000 N 
ATOM     20  C   UNL     1      49.212   5.825  17.176  0.00  0.00    +0.000 C 
ATOM     21  O   UNL     1      48.828   4.964  16.388  0.00  0.00    +0.000 OA
ATOM     22  H   UNL     1      50.113   7.681  17.378  0.00  0.00    +0.000 HD
BRANCH  20  23
ATOM     23  C   UNL     1      48.899   5.748  18.608  0.00  0.00    +0.000 A 
ATOM     24  C   UNL     1      49.174   4.582  19.312  0.00  0.00    +0.000 A 
ATOM     25  S   UNL     1      48.812   4.681  20.974  0.00  0.00    +0.000 S 
ATOM     26  C   UNL     1      48.222   6.269  20.807  0.00  0.00    +0.000 A 
ATOM     27  N   UNL     1      47.725   6.946  21.876  0.00  0.00    +0.000 NA
ATOM     28  C   UNL     1      47.286   8.130  21.602  0.00  0.00    +0.000 A 
ATOM     29  N   UNL     1      47.305   8.698  20.354  0.00  0.00    +0.000 N 
ATOM     30  C   UNL     1      47.839   8.068  19.258  0.00  0.00    +0.000 A 
ATOM     31  O   UNL     1      47.911   8.635  18.171  0.00  0.00    +0.000 OA
ATOM     32  C   UNL     1      48.320   6.723  19.505  0.00  0.00    +0.000 A 
ATOM     33  H   UNL     1      46.964   9.636  20.207  0.00  0.00    +0.000 HD
ENDBRANCH  20  23
ENDBRANCH  18  19
ENDBRANCH   4  18
TORSDOF 6
ENDMDL
