MODEL 1
REMARK VINA RESULT:    -7.836      0.000      0.000
REMARK INTER + INTRA:         -11.592
REMARK INTER:                 -11.043
REMARK INTRA:                  -0.549
REMARK UNBOUND:                -0.549
REMARK  Name = 
REMARK  9 active torsions:
REMARK  status: ('A' for Active; 'I' for Inactive)
REMARK    1  A    between atoms: C_1  and  C_2
REMARK    2  A    between atoms: C_2  and  C_3
REMARK    3  A    between atoms: C_2  and  O_4
REMARK    4  A    between atoms: O_4  and  C_5
REMARK    5  A    between atoms: C_10  and  C_11
REMARK    6  A    between atoms: C_11  and  C_12
REMARK    7  A    between atoms: C_12  and  N_13
REMARK    8  A    between atoms: C_17  and  C_18
REMARK    9  A    between atoms: C_23  and  C_24
REMARK                            x       y       z     vdW  Elec       q    Type
REMARK                         _______ _______ _______ _____ _____    ______ ____
ROOT
ATOM      1  C   UNL     1      47.653   5.709  13.976  0.00  0.00    +0.000 A 
ATOM      2  C   UNL     1      47.094   4.577  14.613  0.00  0.00    +0.000 A 
ATOM      3 CL   UNL     1      47.706   3.987  16.125  0.00  0.00    +0.000 Cl
ATOM      4  C   UNL     1      46.010   3.913  14.072  0.00  0.00    +0.000 A 
ATOM      5  C   UNL     1      45.430   4.382  12.903  0.00  0.00    +0.000 A 
ATOM      6  C   UNL     1      45.871   5.575  12.289  0.00  0.00    +0.000 A 
ATOM      7  C   UNL     1      47.007   6.273  12.827  0.00  0.00    +0.000 A 
ENDROOT
BRANCH   7   8
ATOM      8  C   UNL     1      47.487   7.565  12.238  0.00  0.00    +0.000 A 
ATOM      9  C   UNL     1      46.810   8.772  12.503  0.00  0.00    +0.000 A 
ATOM     10  C   UNL     1      47.438  10.012  12.309  0.00  0.00    +0.000 A 
ATOM     11  C   UNL     1      48.697  10.073  11.721  0.00  0.00    +0.000 A 
ATOM     12  C   UNL     1      49.313   8.903  11.301  0.00  0.00    +0.000 A 
ATOM     13  C   UNL     1      48.730   7.664  11.585  0.00  0.00    +0.000 A 
ENDBRANCH   7   8
BRANCH   1  14
ATOM     14  O   UNL     1      48.747   6.223  14.635  0.00  0.00    +0.000 OA
BRANCH  14  16
ATOM     15  C   UNL     1      48.895   6.993  16.868  0.00  0.00    +0.000 C 
ATOM     16  C   UNL     1      48.666   7.420  15.417  0.00  0.00    +0.000 C 
ATOM     17  C   UNL     1      49.701   8.460  15.013  0.00  0.00    +0.000 C 
ENDBRANCH  14  16
ENDBRANCH   1  14
BRANCH   6  18
ATOM     18  C   UNL     1      45.090   6.105  11.087  0.00  0.00    +0.000 C 
BRANCH  18  19
ATOM     19  C   UNL     1      43.895   5.315  10.531  0.00  0.00    +0.000 C 
BRANCH  19  20
ATOM     20  N   UNL     1      44.126   3.866  10.473  0.00  0.00    +0.000 N 
ATOM     21  C   UNL     1      44.921   3.500   9.370  0.00  0.00    +0.000 A 
ATOM     22  C   UNL     1      45.261   2.165   9.181  0.00  0.00    +0.000 A 
ATOM     23  C   UNL     1      46.068   1.809   8.096  0.00  0.00    +0.000 A 
ATOM     24  C   UNL     1      46.535   2.791   7.224  0.00  0.00    +0.000 A 
ATOM     25  C   UNL     1      46.171   4.095   7.499  0.00  0.00    +0.000 A 
ATOM     26  N   UNL     1      45.384   4.458   8.535  0.00  0.00    +0.000 NA
ATOM     27  H   UNL     1      43.265   3.323  10.472  0.00  0.00    +0.000 HD
BRANCH  24  28
ATOM     28  C   UNL     1      47.382   2.423   6.070  0.00  0.00    +0.000 C 
ATOM     29  N   UNL     1      48.742   2.455   6.207  0.00  0.00    +0.000 N 
ATOM     30  O   UNL     1      46.883   2.107   4.994  0.00  0.00    +0.000 OA
ATOM     31  H   UNL     1      49.258   2.735   7.028  0.00  0.00    +0.000 HD
ATOM     32  H   UNL     1      49.284   2.208   5.385  0.00  0.00    +0.000 HD
ENDBRANCH  24  28
ENDBRANCH  19  20
ENDBRANCH  18  19
ENDBRANCH   6  18
TORSDOF 7
ENDMDL
MODEL 2
REMARK VINA RESULT:    -7.430      1.525      3.592
REMARK INTER + INTRA:         -11.020
REMARK INTER:                  -9.306
REMARK INTRA:                  -1.715
REMARK UNBOUND:                -0.549
REMARK  Name = 
REMARK  9 active torsions:
REMARK  status: ('A' for Active; 'I' for Inactive)
REMARK    1  A    between atoms: C_1  and  C_2
REMARK    2  A    between atoms: C_2  and  C_3
REMARK    3  A    between atoms: C_2  and  O_4
REMARK    4  A    between atoms: O_4  and  C_5
REMARK    5  A    between atoms: C_10  and  C_11
REMARK    6  A    between atoms: C_11  and  C_12
REMARK    7  A    between atoms: C_12  and  N_13
REMARK    8  A    between atoms: C_17  and  C_18
REMARK    9  A    between atoms: C_23  and  C_24
REMARK                            x       y       z     vdW  Elec       q    Type
REMARK                         _______ _______ _______ _____ _____    ______ ____
ROOT
ATOM      1  C   UNL     1      47.714   6.206  13.971  0.00  0.00    +0.000 A 
ATOM      2  C   UNL     1      48.620   7.284  13.838  0.00  0.00    +0.000 A 
ATOM      3 CL   UNL     1      50.164   7.279  14.628  0.00  0.00    +0.000 Cl
ATOM      4  C   UNL     1      48.324   8.375  13.043  0.00  0.00    +0.000 A 
ATOM      5  C   UNL     1      47.136   8.402  12.328  0.00  0.00    +0.000 A 
ATOM      6  C   UNL     1      46.250   7.302  12.329  0.00  0.00    +0.000 A 
ATOM      7  C   UNL     1      46.531   6.164  13.161  0.00  0.00    +0.000 A 
ENDROOT
BRANCH   7   8
ATOM      8  C   UNL     1      45.646   4.955  13.165  0.00  0.00    +0.000 A 
ATOM      9  C   UNL     1      44.274   5.069  13.465  0.00  0.00    +0.000 A 
ATOM     10  C   UNL     1      43.366   4.064  13.097  0.00  0.00    +0.000 A 
ATOM     11  C   UNL     1      43.828   2.872  12.548  0.00  0.00    +0.000 A 
ATOM     12  C   UNL     1      45.192   2.673  12.395  0.00  0.00    +0.000 A 
ATOM     13  C   UNL     1      46.086   3.713  12.670  0.00  0.00    +0.000 A 
ENDBRANCH   7   8
BRANCH   1  14
ATOM     14  O   UNL     1      48.154   5.223  14.828  0.00  0.00    +0.000 OA
BRANCH  14  16
ATOM     15  C   UNL     1      47.314   3.605  16.337  0.00  0.00    +0.000 C 
ATOM     16  C   UNL     1      47.636   5.089  16.157  0.00  0.00    +0.000 C 
ATOM     17  C   UNL     1      48.622   5.540  17.224  0.00  0.00    +0.000 C 
ENDBRANCH  14  16
ENDBRANCH   1  14
BRANCH   6  18
ATOM     18  C   UNL     1      45.034   7.348  11.404  0.00  0.00    +0.000 C 
BRANCH  18  19
ATOM     19  C   UNL     1      45.095   6.695  10.013  0.00  0.00    +0.000 C 
BRANCH  19  20
ATOM     20  N   UNL     1      44.540   5.336   9.977  0.00  0.00    +0.000 N 
ATOM     21  C   UNL     1      45.235   4.503   9.080  0.00  0.00    +0.000 A 
ATOM     22  C   UNL     1      44.856   3.172   8.945  0.00  0.00    +0.000 A 
ATOM     23  C   UNL     1      45.562   2.342   8.068  0.00  0.00    +0.000 A 
ATOM     24  C   UNL     1      46.643   2.850   7.349  0.00  0.00    +0.000 A 
ATOM     25  C   UNL     1      46.968   4.176   7.561  0.00  0.00    +0.000 A 
ATOM     26  N   UNL     1      46.292   4.996   8.396  0.00  0.00    +0.000 NA
ATOM     27  H   UNL     1      43.545   5.316   9.766  0.00  0.00    +0.000 HD
BRANCH  24  28
ATOM     28  C   UNL     1      47.390   1.984   6.414  0.00  0.00    +0.000 C 
ATOM     29  N   UNL     1      48.480   2.493   5.761  0.00  0.00    +0.000 N 
ATOM     30  O   UNL     1      47.039   0.826   6.204  0.00  0.00    +0.000 OA
ATOM     31  H   UNL     1      48.833   3.435   5.827  0.00  0.00    +0.000 HD
ATOM     32  H   UNL     1      48.954   1.867   5.119  0.00  0.00    +0.000 HD
ENDBRANCH  24  28
ENDBRANCH  19  20
ENDBRANCH  18  19
ENDBRANCH   6  18
TORSDOF 7
ENDMDL
MODEL 3
REMARK VINA RESULT:    -7.408      3.272      5.992
REMARK INTER + INTRA:         -10.989
REMARK INTER:                  -9.237
REMARK INTRA:                  -1.752
REMARK UNBOUND:                -0.549
REMARK  Name = 
REMARK  9 active torsions:
REMARK  status: ('A' for Active; 'I' for Inactive)
REMARK    1  A    between atoms: C_1  and  C_2
REMARK    2  A    between atoms: C_2  and  C_3
REMARK    3  A    between atoms: C_2  and  O_4
REMARK    4  A    between atoms: O_4  and  C_5
REMARK    5  A    between atoms: C_10  and  C_11
REMARK    6  A    between atoms: C_11  and  C_12
REMARK    7  A    between atoms: C_12  and  N_13
REMARK    8  A    between atoms: C_17  and  C_18
REMARK    9  A    between atoms: C_23  and  C_24
REMARK                            x       y       z     vdW  Elec       q    Type
REMARK                         _______ _______ _______ _____ _____    ______ ____
ROOT
ATOM      1  C   UNL     1      48.779   7.493  18.716  0.00  0.00    +0.000 A 
ATOM      2  C   UNL     1      48.453   8.859  18.885  0.00  0.00    +0.000 A 
ATOM      3 CL   UNL     1      48.401   9.595  20.455  0.00  0.00    +0.000 Cl
ATOM      4  C   UNL     1      48.194   9.674  17.800  0.00  0.00    +0.000 A 
ATOM      5  C   UNL     1      48.293   9.160  16.515  0.00  0.00    +0.000 A 
ATOM      6  C   UNL     1      48.730   7.837  16.283  0.00  0.00    +0.000 A 
ATOM      7  C   UNL     1      48.990   6.968  17.398  0.00  0.00    +0.000 A 
ENDROOT
BRANCH   7   8
ATOM      8  C   UNL     1      49.497   5.572  17.205  0.00  0.00    +0.000 A 
ATOM      9  C   UNL     1      50.863   5.273  17.369  0.00  0.00    +0.000 A 
ATOM     10  C   UNL     1      51.296   3.956  17.585  0.00  0.00    +0.000 A 
ATOM     11  C   UNL     1      50.392   2.901  17.507  0.00  0.00    +0.000 A 
ATOM     12  C   UNL     1      49.068   3.159  17.183  0.00  0.00    +0.000 A 
ATOM     13  C   UNL     1      48.621   4.479  17.065  0.00  0.00    +0.000 A 
ENDBRANCH   7   8
BRANCH   1  14
ATOM     14  O   UNL     1      48.970   6.825  19.904  0.00  0.00    +0.000 OA
BRANCH  14  16
ATOM     15  C   UNL     1      48.783   4.617  20.736  0.00  0.00    +0.000 C 
ATOM     16  C   UNL     1      48.007   5.895  20.413  0.00  0.00    +0.000 C 
ATOM     17  C   UNL     1      47.299   6.401  21.661  0.00  0.00    +0.000 C 
ENDBRANCH  14  16
ENDBRANCH   1  14
BRANCH   6  18
ATOM     18  C   UNL     1      48.953   7.390  14.839  0.00  0.00    +0.000 C 
BRANCH  18  19
ATOM     19  C   UNL     1      47.753   7.056  13.938  0.00  0.00    +0.000 C 
BRANCH  19  20
ATOM     20  N   UNL     1      47.124   5.766  14.251  0.00  0.00    +0.000 N 
ATOM     21  C   UNL     1      46.411   5.245  13.155  0.00  0.00    +0.000 A 
ATOM     22  C   UNL     1      45.778   4.012  13.272  0.00  0.00    +0.000 A 
ATOM     23  C   UNL     1      45.087   3.489  12.173  0.00  0.00    +0.000 A 
ATOM     24  C   UNL     1      45.051   4.196  10.973  0.00  0.00    +0.000 A 
ATOM     25  C   UNL     1      45.727   5.400  10.936  0.00  0.00    +0.000 A 
ATOM     26  N   UNL     1      46.390   5.927  11.987  0.00  0.00    +0.000 NA
ATOM     27  H   UNL     1      46.521   5.803  15.069  0.00  0.00    +0.000 HD
BRANCH  24  28
ATOM     28  C   UNL     1      44.317   3.654   9.810  0.00  0.00    +0.000 C 
ATOM     29  N   UNL     1      44.011   4.488   8.770  0.00  0.00    +0.000 N 
ATOM     30  O   UNL     1      43.967   2.478   9.773  0.00  0.00    +0.000 OA
ATOM     31  H   UNL     1      44.212   5.475   8.711  0.00  0.00    +0.000 HD
ATOM     32  H   UNL     1      43.494   4.078   7.999  0.00  0.00    +0.000 HD
ENDBRANCH  24  28
ENDBRANCH  19  20
ENDBRANCH  18  19
ENDBRANCH   6  18
TORSDOF 7
ENDMDL
MODEL 4
REMARK VINA RESULT:    -7.197      3.526      6.034
REMARK INTER + INTRA:         -10.691
REMARK INTER:                  -9.082
REMARK INTRA:                  -1.610
REMARK UNBOUND:                -0.549
REMARK  Name = 
REMARK  9 active torsions:
REMARK  status: ('A' for Active; 'I' for Inactive)
REMARK    1  A    between atoms: C_1  and  C_2
REMARK    2  A    between atoms: C_2  and  C_3
REMARK    3  A    between atoms: C_2  and  O_4
REMARK    4  A    between atoms: O_4  and  C_5
REMARK    5  A    between atoms: C_10  and  C_11
REMARK    6  A    between atoms: C_11  and  C_12
REMARK    7  A    between atoms: C_12  and  N_13
REMARK    8  A    between atoms: C_17  and  C_18
REMARK    9  A    between atoms: C_23  and  C_24
REMARK                            x       y       z     vdW  Elec       q    Type
REMARK                         _______ _______ _______ _____ _____    ______ ____
ROOT
ATOM      1  C   UNL     1      51.154   4.116  18.136  0.00  0.00    +0.000 A 
ATOM      2  C   UNL     1      51.563   2.809  17.784  0.00  0.00    +0.000 A 
ATOM      3 CL   UNL     1      53.157   2.225  18.139  0.00  0.00    +0.000 Cl
ATOM      4  C   UNL     1      50.693   1.928  17.169  0.00  0.00    +0.000 A 
ATOM      5  C   UNL     1      49.383   2.312  16.926  0.00  0.00    +0.000 A 
ATOM      6  C   UNL     1      48.889   3.561  17.364  0.00  0.00    +0.000 A 
ATOM      7  C   UNL     1      49.779   4.498  17.991  0.00  0.00    +0.000 A 
ENDROOT
BRANCH   7   8
ATOM      8  C   UNL     1      49.295   5.817  18.511  0.00  0.00    +0.000 A 
ATOM      9  C   UNL     1      49.145   6.920  17.648  0.00  0.00    +0.000 A 
ATOM     10  C   UNL     1      48.341   8.014  18.002  0.00  0.00    +0.000 A 
ATOM     11  C   UNL     1      47.783   8.088  19.274  0.00  0.00    +0.000 A 
ATOM     12  C   UNL     1      48.054   7.089  20.198  0.00  0.00    +0.000 A 
ATOM     13  C   UNL     1      48.772   5.954  19.811  0.00  0.00    +0.000 A 
ENDBRANCH   7   8
BRANCH   1  14
ATOM     14  O   UNL     1      52.157   4.868  18.706  0.00  0.00    +0.000 OA
BRANCH  14  16
ATOM     15  C   UNL     1      52.714   7.166  18.813  0.00  0.00    +0.000 C 
ATOM     16  C   UNL     1      52.843   5.892  17.976  0.00  0.00    +0.000 C 
ATOM     17  C   UNL     1      54.313   5.570  17.747  0.00  0.00    +0.000 C 
ENDBRANCH  14  16
ENDBRANCH   1  14
BRANCH   6  18
ATOM     18  C   UNL     1      47.399   3.854  17.188  0.00  0.00    +0.000 C 
BRANCH  18  19
ATOM     19  C   UNL     1      46.778   3.892  15.782  0.00  0.00    +0.000 C 
BRANCH  19  20
ATOM     20  N   UNL     1      47.070   5.128  15.045  0.00  0.00    +0.000 N 
ATOM     21  C   UNL     1      46.594   5.079  13.721  0.00  0.00    +0.000 A 
ATOM     22  C   UNL     1      46.763   6.182  12.890  0.00  0.00    +0.000 A 
ATOM     23  C   UNL     1      46.271   6.137  11.581  0.00  0.00    +0.000 A 
ATOM     24  C   UNL     1      45.607   4.999  11.126  0.00  0.00    +0.000 A 
ATOM     25  C   UNL     1      45.462   3.959  12.024  0.00  0.00    +0.000 A 
ATOM     26  N   UNL     1      45.938   3.979  13.288  0.00  0.00    +0.000 NA
ATOM     27  H   UNL     1      48.058   5.371  15.048  0.00  0.00    +0.000 HD
BRANCH  24  28
ATOM     28  C   UNL     1      45.091   4.939   9.743  0.00  0.00    +0.000 C 
ATOM     29  N   UNL     1      43.776   4.624   9.536  0.00  0.00    +0.000 N 
ATOM     30  O   UNL     1      45.826   5.152   8.783  0.00  0.00    +0.000 OA
ATOM     31  H   UNL     1      43.095   4.393  10.244  0.00  0.00    +0.000 HD
ATOM     32  H   UNL     1      43.469   4.581   8.571  0.00  0.00    +0.000 HD
ENDBRANCH  24  28
ENDBRANCH  19  20
ENDBRANCH  18  19
ENDBRANCH   6  18
TORSDOF 7
ENDMDL
MODEL 5
REMARK VINA RESULT:    -6.732      5.614      8.262
REMARK INTER + INTRA:         -10.036
REMARK INTER:                  -8.415
REMARK INTRA:                  -1.620
REMARK UNBOUND:                -0.549
REMARK  Name = 
REMARK  9 active torsions:
REMARK  status: ('A' for Active; 'I' for Inactive)
REMARK    1  A    between atoms: C_1  and  C_2
REMARK    2  A    between atoms: C_2  and  C_3
REMARK    3  A    between atoms: C_2  and  O_4
REMARK    4  A    between atoms: O_4  and  C_5
REMARK    5  A    between atoms: C_10  and  C_11
REMARK    6  A    between atoms: C_11  and  C_12
REMARK    7  A    between atoms: C_12  and  N_13
REMARK    8  A    between atoms: C_17  and  C_18
REMARK    9  A    between atoms: C_23  and  C_24
REMARK                            x       y       z     vdW  Elec       q    Type
REMARK                         _______ _______ _______ _____ _____    ______ ____
ROOT
ATOM      1  C   UNL     1      46.652   7.416  12.405  0.00  0.00    +0.000 A 
ATOM      2  C   UNL     1      47.440   8.590  12.415  0.00  0.00    +0.000 A 
ATOM      3 CL   UNL     1      49.133   8.547  12.790  0.00  0.00    +0.000 Cl
ATOM      4  C   UNL     1      46.899   9.820  12.092  0.00  0.00    +0.000 A 
ATOM      5  C   UNL     1      45.568   9.907  11.712  0.00  0.00    +0.000 A 
ATOM      6  C   UNL     1      44.766   8.752  11.569  0.00  0.00    +0.000 A 
ATOM      7  C   UNL     1      45.305   7.465  11.914  0.00  0.00    +0.000 A 
ENDROOT
BRANCH   7   8
ATOM      8  C   UNL     1      44.510   6.208  11.739  0.00  0.00    +0.000 A 
ATOM      9  C   UNL     1      44.732   5.364  10.633  0.00  0.00    +0.000 A 
ATOM     10  C   UNL     1      44.309   4.026  10.646  0.00  0.00    +0.000 A 
ATOM     11  C   UNL     1      43.540   3.547  11.702  0.00  0.00    +0.000 A 
ATOM     12  C   UNL     1      43.169   4.408  12.724  0.00  0.00    +0.000 A 
ATOM     13  C   UNL     1      43.675   5.712  12.758  0.00  0.00    +0.000 A 
ENDBRANCH   7   8
BRANCH   1  14
ATOM     14  O   UNL     1      47.344   6.289  12.786  0.00  0.00    +0.000 OA
BRANCH  14  16
ATOM     15  C   UNL     1      46.972   4.151  13.730  0.00  0.00    +0.000 C 
ATOM     16  C   UNL     1      47.105   5.643  14.042  0.00  0.00    +0.000 C 
ATOM     17  C   UNL     1      48.229   5.865  15.043  0.00  0.00    +0.000 C 
ENDBRANCH  14  16
ENDBRANCH   1  14
BRANCH   6  18
ATOM     18  C   UNL     1      43.354   8.915  11.007  0.00  0.00    +0.000 C 
BRANCH  18  19
ATOM     19  C   UNL     1      42.780  10.317  10.748  0.00  0.00    +0.000 C 
BRANCH  19  20
ATOM     20  N   UNL     1      42.168  10.929  11.934  0.00  0.00    +0.000 N 
ATOM     21  C   UNL     1      40.765  10.984  11.837  0.00  0.00    +0.000 A 
ATOM     22  C   UNL     1      40.024  11.510  12.890  0.00  0.00    +0.000 A 
ATOM     23  C   UNL     1      38.628  11.544  12.797  0.00  0.00    +0.000 A 
ATOM     24  C   UNL     1      37.994  11.043  11.662  0.00  0.00    +0.000 A 
ATOM     25  C   UNL     1      38.804  10.517  10.674  0.00  0.00    +0.000 A 
ATOM     26  N   UNL     1      40.152  10.484  10.740  0.00  0.00    +0.000 NA
ATOM     27  H   UNL     1      42.536  11.854  12.142  0.00  0.00    +0.000 HD
BRANCH  24  28
ATOM     28  C   UNL     1      36.521  11.083  11.552  0.00  0.00    +0.000 C 
ATOM     29  N   UNL     1      35.949  11.170  10.312  0.00  0.00    +0.000 N 
ATOM     30  O   UNL     1      35.809  11.055  12.552  0.00  0.00    +0.000 OA
ATOM     31  H   UNL     1      36.433  11.238   9.430  0.00  0.00    +0.000 HD
ATOM     32  H   UNL     1      34.935  11.208  10.284  0.00  0.00    +0.000 HD
ENDBRANCH  24  28
ENDBRANCH  19  20
ENDBRANCH  18  19
ENDBRANCH   6  18
TORSDOF 7
ENDMDL
MODEL 6
REMARK VINA RESULT:    -6.574      5.489      7.806
REMARK INTER + INTRA:          -9.814
REMARK INTER:                  -7.589
REMARK INTRA:                  -2.224
REMARK UNBOUND:                -0.549
REMARK  Name = 
REMARK  9 active torsions:
REMARK  status: ('A' for Active; 'I' for Inactive)
REMARK    1  A    between atoms: C_1  and  C_2
REMARK    2  A    between atoms: C_2  and  C_3
REMARK    3  A    between atoms: C_2  and  O_4
REMARK    4  A    between atoms: O_4  and  C_5
REMARK    5  A    between atoms: C_10  and  C_11
REMARK    6  A    between atoms: C_11  and  C_12
REMARK    7  A    between atoms: C_12  and  N_13
REMARK    8  A    between atoms: C_17  and  C_18
REMARK    9  A    between atoms: C_23  and  C_24
REMARK                            x       y       z     vdW  Elec       q    Type
REMARK                         _______ _______ _______ _____ _____    ______ ____
ROOT
ATOM      1  C   UNL     1      50.137   9.934  14.148  0.00  0.00    +0.000 A 
ATOM      2  C   UNL     1      50.929  11.003  14.626  0.00  0.00    +0.000 A 
ATOM      3 CL   UNL     1      52.017  11.866  13.587  0.00  0.00    +0.000 Cl
ATOM      4  C   UNL     1      50.843  11.428  15.938  0.00  0.00    +0.000 A 
ATOM      5  C   UNL     1      49.937  10.826  16.798  0.00  0.00    +0.000 A 
ATOM      6  C   UNL     1      49.038   9.835  16.344  0.00  0.00    +0.000 A 
ATOM      7  C   UNL     1      49.120   9.367  14.988  0.00  0.00    +0.000 A 
ENDROOT
BRANCH   7   8
ATOM      8  C   UNL     1      48.163   8.351  14.447  0.00  0.00    +0.000 A 
ATOM      9  C   UNL     1      47.076   8.743  13.640  0.00  0.00    +0.000 A 
ATOM     10  C   UNL     1      46.417   7.820  12.814  0.00  0.00    +0.000 A 
ATOM     11  C   UNL     1      46.740   6.468  12.879  0.00  0.00    +0.000 A 
ATOM     12  C   UNL     1      47.696   6.037  13.788  0.00  0.00    +0.000 A 
ATOM     13  C   UNL     1      48.419   6.970  14.538  0.00  0.00    +0.000 A 
ENDBRANCH   7   8
BRANCH   1  14
ATOM     14  O   UNL     1      50.376   9.622  12.829  0.00  0.00    +0.000 OA
BRANCH  14  16
ATOM     15  C   UNL     1      50.219   7.740  11.402  0.00  0.00    +0.000 C 
ATOM     16  C   UNL     1      51.089   8.439  12.449  0.00  0.00    +0.000 C 
ATOM     17  C   UNL     1      52.462   8.738  11.866  0.00  0.00    +0.000 C 
ENDBRANCH  14  16
ENDBRANCH   1  14
BRANCH   6  18
ATOM     18  C   UNL     1      47.973   9.322  17.314  0.00  0.00    +0.000 C 
BRANCH  18  19
ATOM     19  C   UNL     1      48.327   8.249  18.356  0.00  0.00    +0.000 C 
BRANCH  19  20
ATOM     20  N   UNL     1      47.393   7.116  18.371  0.00  0.00    +0.000 N 
ATOM     21  C   UNL     1      48.024   5.905  18.028  0.00  0.00    +0.000 A 
ATOM     22  C   UNL     1      47.287   4.725  18.022  0.00  0.00    +0.000 A 
ATOM     23  C   UNL     1      47.923   3.521  17.701  0.00  0.00    +0.000 A 
ATOM     24  C   UNL     1      49.284   3.510  17.402  0.00  0.00    +0.000 A 
ATOM     25  C   UNL     1      49.945   4.723  17.455  0.00  0.00    +0.000 A 
ATOM     26  N   UNL     1      49.348   5.897  17.754  0.00  0.00    +0.000 NA
ATOM     27  H   UNL     1      46.579   7.260  17.779  0.00  0.00    +0.000 HD
BRANCH  24  28
ATOM     28  C   UNL     1      49.962   2.245  17.053  0.00  0.00    +0.000 C 
ATOM     29  N   UNL     1      50.935   1.760  17.884  0.00  0.00    +0.000 N 
ATOM     30  O   UNL     1      49.676   1.635  16.027  0.00  0.00    +0.000 OA
ATOM     31  H   UNL     1      51.276   2.194  18.727  0.00  0.00    +0.000 HD
ATOM     32  H   UNL     1      51.382   0.895  17.598  0.00  0.00    +0.000 HD
ENDBRANCH  24  28
ENDBRANCH  19  20
ENDBRANCH  18  19
ENDBRANCH   6  18
TORSDOF 7
ENDMDL
MODEL 7
REMARK VINA RESULT:    -6.573      3.286      5.621
REMARK INTER + INTRA:          -9.812
REMARK INTER:                  -8.300
REMARK INTRA:                  -1.513
REMARK UNBOUND:                -0.549
REMARK  Name = 
REMARK  9 active torsions:
REMARK  status: ('A' for Active; 'I' for Inactive)
REMARK    1  A    between atoms: C_1  and  C_2
REMARK    2  A    between atoms: C_2  and  C_3
REMARK    3  A    between atoms: C_2  and  O_4
REMARK    4  A    between atoms: O_4  and  C_5
REMARK    5  A    between atoms: C_10  and  C_11
REMARK    6  A    between atoms: C_11  and  C_12
REMARK    7  A    between atoms: C_12  and  N_13
REMARK    8  A    between atoms: C_17  and  C_18
REMARK    9  A    between atoms: C_23  and  C_24
REMARK                            x       y       z     vdW  Elec       q    Type
REMARK                         _______ _______ _______ _____ _____    ______ ____
ROOT
ATOM      1  C   UNL     1      51.234   6.156  17.869  0.00  0.00    +0.000 A 
ATOM      2  C   UNL     1      52.011   4.982  18.008  0.00  0.00    +0.000 A 
ATOM      3 CL   UNL     1      53.674   5.042  18.496  0.00  0.00    +0.000 Cl
ATOM      4  C   UNL     1      51.464   3.732  17.792  0.00  0.00    +0.000 A 
ATOM      5  C   UNL     1      50.119   3.615  17.472  0.00  0.00    +0.000 A 
ATOM      6  C   UNL     1      49.270   4.743  17.437  0.00  0.00    +0.000 A 
ATOM      7  C   UNL     1      49.821   6.055  17.643  0.00  0.00    +0.000 A 
ENDROOT
BRANCH   7   8
ATOM      8  C   UNL     1      48.956   7.278  17.659  0.00  0.00    +0.000 A 
ATOM      9  C   UNL     1      48.481   7.808  18.874  0.00  0.00    +0.000 A 
ATOM     10  C   UNL     1      48.022   9.131  18.957  0.00  0.00    +0.000 A 
ATOM     11  C   UNL     1      47.902   9.903  17.807  0.00  0.00    +0.000 A 
ATOM     12  C   UNL     1      48.210   9.345  16.574  0.00  0.00    +0.000 A 
ATOM     13  C   UNL     1      48.760   8.061  16.505  0.00  0.00    +0.000 A 
ENDBRANCH   7   8
BRANCH   1  14
ATOM     14  O   UNL     1      51.948   7.313  18.086  0.00  0.00    +0.000 OA
BRANCH  14  16
ATOM     15  C   UNL     1      52.244   7.252  15.739  0.00  0.00    +0.000 C 
ATOM     16  C   UNL     1      52.574   8.029  17.015  0.00  0.00    +0.000 C 
ATOM     17  C   UNL     1      52.077   9.462  16.892  0.00  0.00    +0.000 C 
ENDBRANCH  14  16
ENDBRANCH   1  14
BRANCH   6  18
ATOM     18  C   UNL     1      47.774   4.519  17.220  0.00  0.00    +0.000 C 
BRANCH  18  19
ATOM     19  C   UNL     1      47.239   4.166  15.823  0.00  0.00    +0.000 C 
BRANCH  19  20
ATOM     20  N   UNL     1      47.340   5.269  14.859  0.00  0.00    +0.000 N 
ATOM     21  C   UNL     1      46.595   5.021  13.690  0.00  0.00    +0.000 A 
ATOM     22  C   UNL     1      46.559   5.980  12.683  0.00  0.00    +0.000 A 
ATOM     23  C   UNL     1      45.801   5.738  11.532  0.00  0.00    +0.000 A 
ATOM     24  C   UNL     1      45.082   4.550  11.410  0.00  0.00    +0.000 A 
ATOM     25  C   UNL     1      45.154   3.663  12.467  0.00  0.00    +0.000 A 
ATOM     26  N   UNL     1      45.888   3.874  13.582  0.00  0.00    +0.000 NA
ATOM     27  H   UNL     1      48.300   5.499  14.614  0.00  0.00    +0.000 HD
BRANCH  24  28
ATOM     28  C   UNL     1      44.286   4.282  10.194  0.00  0.00    +0.000 C 
ATOM     29  N   UNL     1      44.693   3.297   9.337  0.00  0.00    +0.000 N 
ATOM     30  O   UNL     1      43.280   4.937   9.938  0.00  0.00    +0.000 OA
ATOM     31  H   UNL     1      45.519   2.725   9.426  0.00  0.00    +0.000 HD
ATOM     32  H   UNL     1      44.124   3.156   8.508  0.00  0.00    +0.000 HD
ENDBRANCH  24  28
ENDBRANCH  19  20
ENDBRANCH  18  19
ENDBRANCH   6  18
TORSDOF 7
ENDMDL
MODEL 8
REMARK VINA RESULT:    -6.560      3.141      5.395
REMARK INTER + INTRA:          -9.795
REMARK INTER:                  -8.108
REMARK INTRA:                  -1.686
REMARK UNBOUND:                -0.549
REMARK  Name = 
REMARK  9 active torsions:
REMARK  status: ('A' for Active; 'I' for Inactive)
REMARK    1  A    between atoms: C_1  and  C_2
REMARK    2  A    between atoms: C_2  and  C_3
REMARK    3  A    between atoms: C_2  and  O_4
REMARK    4  A    between atoms: O_4  and  C_5
REMARK    5  A    between atoms: C_10  and  C_11
REMARK    6  A    between atoms: C_11  and  C_12
REMARK    7  A    between atoms: C_12  and  N_13
REMARK    8  A    between atoms: C_17  and  C_18
REMARK    9  A    between atoms: C_23  and  C_24
REMARK                            x       y       z     vdW  Elec       q    Type
REMARK                         _______ _______ _______ _____ _____    ______ ____
ROOT
ATOM      1  C   UNL     1      49.564   6.464  19.249  0.00  0.00    +0.000 A 
ATOM      2  C   UNL     1      49.268   5.569  20.304  0.00  0.00    +0.000 A 
ATOM      3 CL   UNL     1      49.383   6.051  21.966  0.00  0.00    +0.000 Cl
ATOM      4  C   UNL     1      48.842   4.279  20.051  0.00  0.00    +0.000 A 
ATOM      5  C   UNL     1      48.660   3.860  18.741  0.00  0.00    +0.000 A 
ATOM      6  C   UNL     1      48.825   4.747  17.654  0.00  0.00    +0.000 A 
ATOM      7  C   UNL     1      49.283   6.088  17.894  0.00  0.00    +0.000 A 
ENDROOT
BRANCH   7   8
ATOM      8  C   UNL     1      49.433   7.079  16.780  0.00  0.00    +0.000 A 
ATOM      9  C   UNL     1      50.452   6.933  15.819  0.00  0.00    +0.000 A 
ATOM     10  C   UNL     1      50.378   7.586  14.579  0.00  0.00    +0.000 A 
ATOM     11  C   UNL     1      49.359   8.499  14.330  0.00  0.00    +0.000 A 
ATOM     12  C   UNL     1      48.435   8.781  15.326  0.00  0.00    +0.000 A 
ATOM     13  C   UNL     1      48.453   8.057  16.523  0.00  0.00    +0.000 A 
ENDBRANCH   7   8
BRANCH   1  14
ATOM     14  O   UNL     1      50.009   7.693  19.682  0.00  0.00    +0.000 OA
BRANCH  14  16
ATOM     15  C   UNL     1      51.317   9.533  18.974  0.00  0.00    +0.000 C 
ATOM     16  C   UNL     1      51.371   8.105  19.521  0.00  0.00    +0.000 C 
ATOM     17  C   UNL     1      52.155   8.078  20.824  0.00  0.00    +0.000 C 
ENDBRANCH  14  16
ENDBRANCH   1  14
BRANCH   6  18
ATOM     18  C   UNL     1      48.467   4.252  16.253  0.00  0.00    +0.000 C 
BRANCH  18  19
ATOM     19  C   UNL     1      47.060   4.496  15.683  0.00  0.00    +0.000 C 
BRANCH  19  20
ATOM     20  N   UNL     1      47.026   5.503  14.615  0.00  0.00    +0.000 N 
ATOM     21  C   UNL     1      46.359   5.034  13.466  0.00  0.00    +0.000 A 
ATOM     22  C   UNL     1      46.211   5.875  12.368  0.00  0.00    +0.000 A 
ATOM     23  C   UNL     1      45.531   5.412  11.237  0.00  0.00    +0.000 A 
ATOM     24  C   UNL     1      44.998   4.124  11.224  0.00  0.00    +0.000 A 
ATOM     25  C   UNL     1      45.169   3.365  12.365  0.00  0.00    +0.000 A 
ATOM     26  N   UNL     1      45.831   3.790  13.463  0.00  0.00    +0.000 NA
ATOM     27  H   UNL     1      47.948   5.849  14.361  0.00  0.00    +0.000 HD
BRANCH  24  28
ATOM     28  C   UNL     1      44.285   3.624  10.030  0.00  0.00    +0.000 C 
ATOM     29  N   UNL     1      43.976   4.498   9.024  0.00  0.00    +0.000 N 
ATOM     30  O   UNL     1      43.955   2.445   9.936  0.00  0.00    +0.000 OA
ATOM     31  H   UNL     1      44.163   5.490   9.012  0.00  0.00    +0.000 HD
ATOM     32  H   UNL     1      43.475   4.115   8.230  0.00  0.00    +0.000 HD
ENDBRANCH  24  28
ENDBRANCH  19  20
ENDBRANCH  18  19
ENDBRANCH   6  18
TORSDOF 7
ENDMDL
MODEL 9
REMARK VINA RESULT:    -6.368      3.104      5.936
REMARK INTER + INTRA:          -9.524
REMARK INTER:                  -8.076
REMARK INTRA:                  -1.448
REMARK UNBOUND:                -0.549
REMARK  Name = 
REMARK  9 active torsions:
REMARK  status: ('A' for Active; 'I' for Inactive)
REMARK    1  A    between atoms: C_1  and  C_2
REMARK    2  A    between atoms: C_2  and  C_3
REMARK    3  A    between atoms: C_2  and  O_4
REMARK    4  A    between atoms: O_4  and  C_5
REMARK    5  A    between atoms: C_10  and  C_11
REMARK    6  A    between atoms: C_11  and  C_12
REMARK    7  A    between atoms: C_12  and  N_13
REMARK    8  A    between atoms: C_17  and  C_18
REMARK    9  A    between atoms: C_23  and  C_24
REMARK                            x       y       z     vdW  Elec       q    Type
REMARK                         _______ _______ _______ _____ _____    ______ ____
ROOT
ATOM      1  C   UNL     1      51.353   6.850  17.170  0.00  0.00    +0.000 A 
ATOM      2  C   UNL     1      52.422   6.978  16.254  0.00  0.00    +0.000 A 
ATOM      3 CL   UNL     1      53.997   6.337  16.596  0.00  0.00    +0.000 Cl
ATOM      4  C   UNL     1      52.247   7.594  15.029  0.00  0.00    +0.000 A 
ATOM      5  C   UNL     1      50.992   8.061  14.668  0.00  0.00    +0.000 A 
ATOM      6  C   UNL     1      49.863   7.853  15.492  0.00  0.00    +0.000 A 
ATOM      7  C   UNL     1      50.026   7.229  16.777  0.00  0.00    +0.000 A 
ENDROOT
BRANCH   7   8
ATOM      8  C   UNL     1      48.856   6.948  17.668  0.00  0.00    +0.000 A 
ATOM      9  C   UNL     1      48.148   5.734  17.565  0.00  0.00    +0.000 A 
ATOM     10  C   UNL     1      47.332   5.280  18.612  0.00  0.00    +0.000 A 
ATOM     11  C   UNL     1      47.101   6.089  19.720  0.00  0.00    +0.000 A 
ATOM     12  C   UNL     1      47.658   7.359  19.766  0.00  0.00    +0.000 A 
ATOM     13  C   UNL     1      48.549   7.769  18.769  0.00  0.00    +0.000 A 
ENDBRANCH   7   8
BRANCH   1  14
ATOM     14  O   UNL     1      51.714   6.244  18.352  0.00  0.00    +0.000 OA
BRANCH  14  16
ATOM     15  C   UNL     1      52.273   3.949  18.499  0.00  0.00    +0.000 C 
ATOM     16  C   UNL     1      51.172   4.980  18.751  0.00  0.00    +0.000 C 
ATOM     17  C   UNL     1      50.759   4.950  20.216  0.00  0.00    +0.000 C 
ENDBRANCH  14  16
ENDBRANCH   1  14
BRANCH   6  18
ATOM     18  C   UNL     1      48.491   8.267  14.961  0.00  0.00    +0.000 C 
BRANCH  18  19
ATOM     19  C   UNL     1      47.842   7.491  13.804  0.00  0.00    +0.000 C 
BRANCH  19  20
ATOM     20  N   UNL     1      47.317   6.178  14.199  0.00  0.00    +0.000 N 
ATOM     21  C   UNL     1      46.557   5.581  13.174  0.00  0.00    +0.000 A 
ATOM     22  C   UNL     1      46.008   4.319  13.373  0.00  0.00    +0.000 A 
ATOM     23  C   UNL     1      45.271   3.722  12.345  0.00  0.00    +0.000 A 
ATOM     24  C   UNL     1      45.103   4.387  11.132  0.00  0.00    +0.000 A 
ATOM     25  C   UNL     1      45.702   5.626  11.010  0.00  0.00    +0.000 A 
ATOM     26  N   UNL     1      46.409   6.224  11.994  0.00  0.00    +0.000 NA
ATOM     27  H   UNL     1      46.774   6.206  15.059  0.00  0.00    +0.000 HD
BRANCH  24  28
ATOM     28  C   UNL     1      44.319   3.767  10.043  0.00  0.00    +0.000 C 
ATOM     29  N   UNL     1      44.022   4.509   8.933  0.00  0.00    +0.000 N 
ATOM     30  O   UNL     1      43.921   2.609  10.129  0.00  0.00    +0.000 OA
ATOM     31  H   UNL     1      44.262   5.475   8.773  0.00  0.00    +0.000 HD
ATOM     32  H   UNL     1      43.470   4.048   8.217  0.00  0.00    +0.000 HD
ENDBRANCH  24  28
ENDBRANCH  19  20
ENDBRANCH  18  19
ENDBRANCH   6  18
TORSDOF 7
ENDMDL
