MODEL 1
REMARK VINA RESULT:    -7.381      0.000      0.000
REMARK INTER + INTRA:         -11.087
REMARK INTER:                  -9.970
REMARK INTRA:                  -1.117
REMARK UNBOUND:                -1.117
REMARK  Name = 
REMARK  6 active torsions:
REMARK  status: ('A' for Active; 'I' for Inactive)
REMARK    1  A    between atoms: C_2  and  C_4
REMARK    2  A    between atoms: C_6  and  C_7
REMARK    3  A    between atoms: C_7  and  O_8
REMARK    4  A    between atoms: O_8  and  C_9
REMARK    5  A    between atoms: C_14  and  N_15
REMARK    6  A    between atoms: C_23  and  C_24
REMARK                            x       y       z     vdW  Elec       q    Type
REMARK                         _______ _______ _______ _____ _____    ______ ____
ROOT
ATOM      1  C   UNL     1      47.167   5.258  14.012  0.00  0.00    +0.000 A 
ATOM      2  C   UNL     1      45.999   5.256  13.243  0.00  0.00    +0.000 A 
ATOM      3  C   UNL     1      45.879   6.107  12.136  0.00  0.00    +0.000 A 
ATOM      4  C   UNL     1      46.927   6.989  11.833  0.00  0.00    +0.000 A 
ATOM      5  C   UNL     1      48.094   7.021  12.610  0.00  0.00    +0.000 A 
ATOM      6  C   UNL     1      48.207   6.142  13.697  0.00  0.00    +0.000 A 
ENDROOT
BRANCH   1   8
ATOM      7  N   UNL     1      47.313   4.964  16.437  0.00  0.00    +0.000 N 
ATOM      8  C   UNL     1      47.325   4.376  15.200  0.00  0.00    +0.000 C 
ATOM      9  O   UNL     1      47.440   3.166  15.083  0.00  0.00    +0.000 OA
ATOM     10  H   UNL     1      47.346   4.343  17.232  0.00  0.00    +0.000 HD
ATOM     11  H   UNL     1      47.008   5.914  16.593  0.00  0.00    +0.000 HD
ENDBRANCH   1   8
BRANCH   5  12
ATOM     12  C   UNL     1      49.207   7.991  12.297  0.00  0.00    +0.000 C 
ATOM     13  F   UNL     1      48.807   9.294  12.318  0.00  0.00    +0.000 F 
ATOM     14  F   UNL     1      50.237   7.906  13.182  0.00  0.00    +0.000 F 
ATOM     15  F   UNL     1      49.746   7.789  11.064  0.00  0.00    +0.000 F 
ENDBRANCH   5  12
BRANCH   3  16
ATOM     16  C   UNL     1      44.613   6.149  11.317  0.00  0.00    +0.000 C 
BRANCH  16  17
ATOM     17  O   UNL     1      44.916   5.969   9.931  0.00  0.00    +0.000 OA
BRANCH  17  18
ATOM     18  C   UNL     1      45.012   4.663   9.529  0.00  0.00    +0.000 A 
ATOM     19  C   UNL     1      44.203   3.764  10.212  0.00  0.00    +0.000 A 
ATOM     20  C   UNL     1      44.276   2.418   9.893  0.00  0.00    +0.000 A 
ATOM     21  F   UNL     1      43.530   1.537  10.573  0.00  0.00    +0.000 F 
ATOM     22  C   UNL     1      45.124   1.961   8.888  0.00  0.00    +0.000 A 
ATOM     23  C   UNL     1      45.924   2.846   8.158  0.00  0.00    +0.000 A 
ATOM     24  C   UNL     1      45.845   4.205   8.500  0.00  0.00    +0.000 A 
BRANCH  23  25
ATOM     25  N   UNL     1      46.760   2.413   7.156  0.00  0.00    +0.000 N 
ATOM     26  C   UNL     1      47.006   3.195   5.937  0.00  0.00    +0.000 C 
ATOM     27  C   UNL     1      46.750   2.310   4.711  0.00  0.00    +0.000 C 
ATOM     28  O   UNL     1      47.557   1.119   4.753  0.00  0.00    +0.000 OA
ATOM     29  C   UNL     1      47.260   0.350   5.932  0.00  0.00    +0.000 C 
ATOM     30  C   UNL     1      47.515   1.153   7.221  0.00  0.00    +0.000 C 
ENDBRANCH  23  25
ENDBRANCH  17  18
ENDBRANCH  16  17
ENDBRANCH   3  16
TORSDOF 6
ENDMDL
MODEL 2
REMARK VINA RESULT:    -7.209      4.079      6.517
REMARK INTER + INTRA:         -10.854
REMARK INTER:                  -9.779
REMARK INTRA:                  -1.075
REMARK UNBOUND:                -1.117
REMARK  Name = 
REMARK  6 active torsions:
REMARK  status: ('A' for Active; 'I' for Inactive)
REMARK    1  A    between atoms: C_2  and  C_4
REMARK    2  A    between atoms: C_6  and  C_7
REMARK    3  A    between atoms: C_7  and  O_8
REMARK    4  A    between atoms: O_8  and  C_9
REMARK    5  A    between atoms: C_14  and  N_15
REMARK    6  A    between atoms: C_23  and  C_24
REMARK                            x       y       z     vdW  Elec       q    Type
REMARK                         _______ _______ _______ _____ _____    ______ ____
ROOT
ATOM      1  C   UNL     1      47.972   5.031  17.874  0.00  0.00    +0.000 A 
ATOM      2  C   UNL     1      48.583   5.489  16.702  0.00  0.00    +0.000 A 
ATOM      3  C   UNL     1      48.932   6.839  16.567  0.00  0.00    +0.000 A 
ATOM      4  C   UNL     1      48.626   7.734  17.604  0.00  0.00    +0.000 A 
ATOM      5  C   UNL     1      47.992   7.295  18.775  0.00  0.00    +0.000 A 
ATOM      6  C   UNL     1      47.675   5.934  18.903  0.00  0.00    +0.000 A 
ENDROOT
BRANCH   1   8
ATOM      7  N   UNL     1      48.204   2.888  19.032  0.00  0.00    +0.000 N 
ATOM      8  C   UNL     1      47.578   3.607  18.048  0.00  0.00    +0.000 C 
ATOM      9  O   UNL     1      46.710   3.098  17.356  0.00  0.00    +0.000 OA
ATOM     10  H   UNL     1      47.870   1.948  19.184  0.00  0.00    +0.000 HD
ATOM     11  H   UNL     1      48.759   3.316  19.759  0.00  0.00    +0.000 HD
ENDBRANCH   1   8
BRANCH   5  12
ATOM     12  C   UNL     1      47.640   8.264  19.876  0.00  0.00    +0.000 C 
ATOM     13  F   UNL     1      48.703   9.004  20.303  0.00  0.00    +0.000 F 
ATOM     14  F   UNL     1      46.694   9.166  19.494  0.00  0.00    +0.000 F 
ATOM     15  F   UNL     1      47.150   7.645  20.984  0.00  0.00    +0.000 F 
ENDBRANCH   5  12
BRANCH   3  16
ATOM     16  C   UNL     1      49.555   7.362  15.296  0.00  0.00    +0.000 C 
BRANCH  16  17
ATOM     17  O   UNL     1      49.200   6.525  14.193  0.00  0.00    +0.000 OA
BRANCH  17  18
ATOM     18  C   UNL     1      47.944   6.736  13.691  0.00  0.00    +0.000 A 
ATOM     19  C   UNL     1      47.613   8.062  13.440  0.00  0.00    +0.000 A 
ATOM     20  C   UNL     1      46.344   8.361  12.973  0.00  0.00    +0.000 A 
ATOM     21  F   UNL     1      46.001   9.640  12.766  0.00  0.00    +0.000 F 
ATOM     22  C   UNL     1      45.410   7.358  12.729  0.00  0.00    +0.000 A 
ATOM     23  C   UNL     1      45.726   6.011  12.937  0.00  0.00    +0.000 A 
ATOM     24  C   UNL     1      47.013   5.726  13.419  0.00  0.00    +0.000 A 
BRANCH  23  25
ATOM     25  N   UNL     1      44.819   5.006  12.692  0.00  0.00    +0.000 N 
ATOM     26  C   UNL     1      45.228   3.653  12.292  0.00  0.00    +0.000 C 
ATOM     27  C   UNL     1      44.470   3.255  11.020  0.00  0.00    +0.000 C 
ATOM     28  O   UNL     1      43.047   3.348  11.211  0.00  0.00    +0.000 OA
ATOM     29  C   UNL     1      42.671   4.694  11.555  0.00  0.00    +0.000 C 
ATOM     30  C   UNL     1      43.367   5.174  12.843  0.00  0.00    +0.000 C 
ENDBRANCH  23  25
ENDBRANCH  17  18
ENDBRANCH  16  17
ENDBRANCH   3  16
TORSDOF 6
ENDMDL
MODEL 3
REMARK VINA RESULT:    -7.193      2.958      7.809
REMARK INTER + INTRA:         -10.834
REMARK INTER:                  -9.723
REMARK INTRA:                  -1.111
REMARK UNBOUND:                -1.117
REMARK  Name = 
REMARK  6 active torsions:
REMARK  status: ('A' for Active; 'I' for Inactive)
REMARK    1  A    between atoms: C_2  and  C_4
REMARK    2  A    between atoms: C_6  and  C_7
REMARK    3  A    between atoms: C_7  and  O_8
REMARK    4  A    between atoms: O_8  and  C_9
REMARK    5  A    between atoms: C_14  and  N_15
REMARK    6  A    between atoms: C_23  and  C_24
REMARK                            x       y       z     vdW  Elec       q    Type
REMARK                         _______ _______ _______ _____ _____    ______ ____
ROOT
ATOM      1  C   UNL     1      44.357   3.845  11.320  0.00  0.00    +0.000 A 
ATOM      2  C   UNL     1      44.869   5.058  11.789  0.00  0.00    +0.000 A 
ATOM      3  C   UNL     1      45.683   5.849  10.967  0.00  0.00    +0.000 A 
ATOM      4  C   UNL     1      46.010   5.389   9.682  0.00  0.00    +0.000 A 
ATOM      5  C   UNL     1      45.524   4.163   9.206  0.00  0.00    +0.000 A 
ATOM      6  C   UNL     1      44.688   3.399  10.034  0.00  0.00    +0.000 A 
ENDROOT
BRANCH   1   8
ATOM      7  N   UNL     1      43.352   3.315  13.487  0.00  0.00    +0.000 N 
ATOM      8  C   UNL     1      43.498   2.975  12.168  0.00  0.00    +0.000 C 
ATOM      9  O   UNL     1      42.923   2.002  11.705  0.00  0.00    +0.000 OA
ATOM     10  H   UNL     1      42.707   2.757  14.027  0.00  0.00    +0.000 HD
ATOM     11  H   UNL     1      43.625   4.213  13.858  0.00  0.00    +0.000 HD
ENDBRANCH   1   8
BRANCH   5  12
ATOM     12  C   UNL     1      45.901   3.661   7.834  0.00  0.00    +0.000 C 
ATOM     13  F   UNL     1      46.464   2.419   7.851  0.00  0.00    +0.000 F 
ATOM     14  F   UNL     1      44.830   3.569   7.000  0.00  0.00    +0.000 F 
ATOM     15  F   UNL     1      46.802   4.468   7.210  0.00  0.00    +0.000 F 
ENDBRANCH   5  12
BRANCH   3  16
ATOM     16  C   UNL     1      46.279   7.141  11.467  0.00  0.00    +0.000 C 
BRANCH  16  17
ATOM     17  O   UNL     1      47.707   7.062  11.457  0.00  0.00    +0.000 OA
BRANCH  17  18
ATOM     18  C   UNL     1      48.292   7.064  12.695  0.00  0.00    +0.000 A 
ATOM     19  C   UNL     1      49.353   7.946  12.855  0.00  0.00    +0.000 A 
ATOM     20  C   UNL     1      50.025   7.976  14.066  0.00  0.00    +0.000 A 
ATOM     21  F   UNL     1      51.076   8.794  14.218  0.00  0.00    +0.000 F 
ATOM     22  C   UNL     1      49.640   7.158  15.125  0.00  0.00    +0.000 A 
ATOM     23  C   UNL     1      48.552   6.286  15.006  0.00  0.00    +0.000 A 
ATOM     24  C   UNL     1      47.888   6.262  13.770  0.00  0.00    +0.000 A 
BRANCH  23  25
ATOM     25  N   UNL     1      48.152   5.478  16.044  0.00  0.00    +0.000 N 
ATOM     26  C   UNL     1      48.539   5.734  17.439  0.00  0.00    +0.000 C 
ATOM     27  C   UNL     1      49.155   4.462  18.031  0.00  0.00    +0.000 C 
ATOM     28  O   UNL     1      48.250   3.347  17.924  0.00  0.00    +0.000 OA
ATOM     29  C   UNL     1      47.927   3.091  16.545  0.00  0.00    +0.000 C 
ATOM     30  C   UNL     1      47.275   4.312  15.870  0.00  0.00    +0.000 C 
ENDBRANCH  23  25
ENDBRANCH  17  18
ENDBRANCH  16  17
ENDBRANCH   3  16
TORSDOF 6
ENDMDL
MODEL 4
REMARK VINA RESULT:    -7.020      3.814      9.280
REMARK INTER + INTRA:         -10.599
REMARK INTER:                  -9.717
REMARK INTRA:                  -0.882
REMARK UNBOUND:                -1.117
REMARK  Name = 
REMARK  6 active torsions:
REMARK  status: ('A' for Active; 'I' for Inactive)
REMARK    1  A    between atoms: C_2  and  C_4
REMARK    2  A    between atoms: C_6  and  C_7
REMARK    3  A    between atoms: C_7  and  O_8
REMARK    4  A    between atoms: O_8  and  C_9
REMARK    5  A    between atoms: C_14  and  N_15
REMARK    6  A    between atoms: C_23  and  C_24
REMARK                            x       y       z     vdW  Elec       q    Type
REMARK                         _______ _______ _______ _____ _____    ______ ____
ROOT
ATOM      1  C   UNL     1      44.791   4.625  11.415  0.00  0.00    +0.000 A 
ATOM      2  C   UNL     1      45.486   3.854  12.351  0.00  0.00    +0.000 A 
ATOM      3  C   UNL     1      46.316   4.468  13.298  0.00  0.00    +0.000 A 
ATOM      4  C   UNL     1      46.473   5.862  13.271  0.00  0.00    +0.000 A 
ATOM      5  C   UNL     1      45.802   6.647  12.323  0.00  0.00    +0.000 A 
ATOM      6  C   UNL     1      44.954   6.016  11.400  0.00  0.00    +0.000 A 
ENDROOT
BRANCH   1   8
ATOM      7  N   UNL     1      43.944   4.528   9.121  0.00  0.00    +0.000 N 
ATOM      8  C   UNL     1      43.910   4.007  10.387  0.00  0.00    +0.000 C 
ATOM      9  O   UNL     1      43.195   3.053  10.654  0.00  0.00    +0.000 OA
ATOM     10  H   UNL     1      43.396   4.048   8.422  0.00  0.00    +0.000 HD
ATOM     11  H   UNL     1      44.664   5.160   8.805  0.00  0.00    +0.000 HD
ENDBRANCH   1   8
BRANCH   5  12
ATOM     12  C   UNL     1      45.995   8.143  12.280  0.00  0.00    +0.000 C 
ATOM     13  F   UNL     1      45.898   8.734  13.505  0.00  0.00    +0.000 F 
ATOM     14  F   UNL     1      47.216   8.498  11.795  0.00  0.00    +0.000 F 
ATOM     15  F   UNL     1      45.076   8.768  11.494  0.00  0.00    +0.000 F 
ENDBRANCH   5  12
BRANCH   3  16
ATOM     16  C   UNL     1      47.106   3.652  14.292  0.00  0.00    +0.000 C 
BRANCH  16  17
ATOM     17  O   UNL     1      46.593   3.850  15.612  0.00  0.00    +0.000 OA
BRANCH  17  18
ATOM     18  C   UNL     1      47.531   3.795  16.608  0.00  0.00    +0.000 A 
ATOM     19  C   UNL     1      48.488   2.796  16.476  0.00  0.00    +0.000 A 
ATOM     20  C   UNL     1      49.445   2.648  17.467  0.00  0.00    +0.000 A 
ATOM     21  F   UNL     1      50.348   1.663  17.369  0.00  0.00    +0.000 F 
ATOM     22  C   UNL     1      49.476   3.495  18.571  0.00  0.00    +0.000 A 
ATOM     23  C   UNL     1      48.549   4.533  18.713  0.00  0.00    +0.000 A 
ATOM     24  C   UNL     1      47.581   4.663  17.706  0.00  0.00    +0.000 A 
BRANCH  23  25
ATOM     25  N   UNL     1      48.571   5.384  19.793  0.00  0.00    +0.000 N 
ATOM     26  C   UNL     1      48.498   4.903  21.179  0.00  0.00    +0.000 C 
ATOM     27  C   UNL     1      47.375   5.647  21.911  0.00  0.00    +0.000 C 
ATOM     28  O   UNL     1      47.568   7.072  21.849  0.00  0.00    +0.000 OA
ATOM     29  C   UNL     1      47.587   7.519  20.482  0.00  0.00    +0.000 C 
ATOM     30  C   UNL     1      48.708   6.842  19.671  0.00  0.00    +0.000 C 
ENDBRANCH  23  25
ENDBRANCH  17  18
ENDBRANCH  16  17
ENDBRANCH   3  16
TORSDOF 6
ENDMDL
MODEL 5
REMARK VINA RESULT:    -7.006      5.057      9.378
REMARK INTER + INTRA:         -10.581
REMARK INTER:                  -9.594
REMARK INTRA:                  -0.987
REMARK UNBOUND:                -1.117
REMARK  Name = 
REMARK  6 active torsions:
REMARK  status: ('A' for Active; 'I' for Inactive)
REMARK    1  A    between atoms: C_2  and  C_4
REMARK    2  A    between atoms: C_6  and  C_7
REMARK    3  A    between atoms: C_7  and  O_8
REMARK    4  A    between atoms: O_8  and  C_9
REMARK    5  A    between atoms: C_14  and  N_15
REMARK    6  A    between atoms: C_23  and  C_24
REMARK                            x       y       z     vdW  Elec       q    Type
REMARK                         _______ _______ _______ _____ _____    ______ ____
ROOT
ATOM      1  C   UNL     1      45.717   7.107  12.816  0.00  0.00    +0.000 A 
ATOM      2  C   UNL     1      46.575   6.197  13.443  0.00  0.00    +0.000 A 
ATOM      3  C   UNL     1      46.361   4.819  13.312  0.00  0.00    +0.000 A 
ATOM      4  C   UNL     1      45.256   4.363  12.578  0.00  0.00    +0.000 A 
ATOM      5  C   UNL     1      44.374   5.263  11.964  0.00  0.00    +0.000 A 
ATOM      6  C   UNL     1      44.619   6.639  12.084  0.00  0.00    +0.000 A 
ENDROOT
BRANCH   1   8
ATOM      7  N   UNL     1      44.819   9.381  12.726  0.00  0.00    +0.000 N 
ATOM      8  C   UNL     1      45.906   8.578  12.942  0.00  0.00    +0.000 C 
ATOM      9  O   UNL     1      46.988   9.056  13.251  0.00  0.00    +0.000 OA
ATOM     10  H   UNL     1      44.949  10.369  12.889  0.00  0.00    +0.000 HD
ATOM     11  H   UNL     1      43.873   9.030  12.684  0.00  0.00    +0.000 HD
ENDBRANCH   1   8
BRANCH   5  12
ATOM     12  C   UNL     1      43.171   4.769  11.199  0.00  0.00    +0.000 C 
ATOM     13  F   UNL     1      42.036   5.477  11.463  0.00  0.00    +0.000 F 
ATOM     14  F   UNL     1      43.345   4.841   9.851  0.00  0.00    +0.000 F 
ATOM     15  F   UNL     1      42.871   3.471  11.475  0.00  0.00    +0.000 F 
ENDBRANCH   5  12
BRANCH   3  16
ATOM     16  C   UNL     1      47.250   3.821  14.013  0.00  0.00    +0.000 C 
BRANCH  16  17
ATOM     17  O   UNL     1      46.736   3.533  15.316  0.00  0.00    +0.000 OA
BRANCH  17  18
ATOM     18  C   UNL     1      47.654   3.621  16.328  0.00  0.00    +0.000 A 
ATOM     19  C   UNL     1      48.632   2.633  16.338  0.00  0.00    +0.000 A 
ATOM     20  C   UNL     1      49.570   2.628  17.357  0.00  0.00    +0.000 A 
ATOM     21  F   UNL     1      50.493   1.657  17.399  0.00  0.00    +0.000 F 
ATOM     22  C   UNL     1      49.563   3.605  18.349  0.00  0.00    +0.000 A 
ATOM     23  C   UNL     1      48.614   4.632  18.345  0.00  0.00    +0.000 A 
ATOM     24  C   UNL     1      47.665   4.618  17.312  0.00  0.00    +0.000 A 
BRANCH  23  25
ATOM     25  N   UNL     1      48.598   5.610  19.312  0.00  0.00    +0.000 N 
ATOM     26  C   UNL     1      48.410   5.308  20.738  0.00  0.00    +0.000 C 
ATOM     27  C   UNL     1      47.271   6.174  21.289  0.00  0.00    +0.000 C 
ATOM     28  O   UNL     1      47.528   7.573  21.069  0.00  0.00    +0.000 OA
ATOM     29  C   UNL     1      47.660   7.846  19.662  0.00  0.00    +0.000 C 
ATOM     30  C   UNL     1      48.804   7.036  19.024  0.00  0.00    +0.000 C 
ENDBRANCH  23  25
ENDBRANCH  17  18
ENDBRANCH  16  17
ENDBRANCH   3  16
TORSDOF 6
ENDMDL
MODEL 6
REMARK VINA RESULT:    -6.923      4.050      6.743
REMARK INTER + INTRA:         -10.468
REMARK INTER:                  -9.275
REMARK INTRA:                  -1.193
REMARK UNBOUND:                -1.117
REMARK  Name = 
REMARK  6 active torsions:
REMARK  status: ('A' for Active; 'I' for Inactive)
REMARK    1  A    between atoms: C_2  and  C_4
REMARK    2  A    between atoms: C_6  and  C_7
REMARK    3  A    between atoms: C_7  and  O_8
REMARK    4  A    between atoms: O_8  and  C_9
REMARK    5  A    between atoms: C_14  and  N_15
REMARK    6  A    between atoms: C_23  and  C_24
REMARK                            x       y       z     vdW  Elec       q    Type
REMARK                         _______ _______ _______ _____ _____    ______ ____
ROOT
ATOM      1  C   UNL     1      47.992   6.932  18.833  0.00  0.00    +0.000 A 
ATOM      2  C   UNL     1      48.543   7.514  17.687  0.00  0.00    +0.000 A 
ATOM      3  C   UNL     1      48.916   6.715  16.598  0.00  0.00    +0.000 A 
ATOM      4  C   UNL     1      48.768   5.323  16.687  0.00  0.00    +0.000 A 
ATOM      5  C   UNL     1      48.240   4.722  17.839  0.00  0.00    +0.000 A 
ATOM      6  C   UNL     1      47.847   5.541  18.908  0.00  0.00    +0.000 A 
ENDROOT
BRANCH   1   8
ATOM      7  N   UNL     1      47.334   9.077  19.810  0.00  0.00    +0.000 N 
ATOM      8  C   UNL     1      47.595   7.748  20.013  0.00  0.00    +0.000 C 
ATOM      9  O   UNL     1      47.481   7.249  21.123  0.00  0.00    +0.000 OA
ATOM     10  H   UNL     1      46.994   9.596  20.607  0.00  0.00    +0.000 HD
ATOM     11  H   UNL     1      47.203   9.479  18.894  0.00  0.00    +0.000 HD
ENDBRANCH   1   8
BRANCH   5  12
ATOM     12  C   UNL     1      48.109   3.223  17.940  0.00  0.00    +0.000 C 
ATOM     13  F   UNL     1      49.002   2.550  17.160  0.00  0.00    +0.000 F 
ATOM     14  F   UNL     1      48.309   2.766  19.207  0.00  0.00    +0.000 F 
ATOM     15  F   UNL     1      46.879   2.778  17.565  0.00  0.00    +0.000 F 
ENDBRANCH   5  12
BRANCH   3  16
ATOM     16  C   UNL     1      49.548   7.317  15.367  0.00  0.00    +0.000 C 
BRANCH  16  17
ATOM     17  O   UNL     1      49.250   6.519  14.219  0.00  0.00    +0.000 OA
BRANCH  17  18
ATOM     18  C   UNL     1      48.017   6.742  13.668  0.00  0.00    +0.000 A 
ATOM     19  C   UNL     1      47.730   8.065  13.355  0.00  0.00    +0.000 A 
ATOM     20  C   UNL     1      46.485   8.377  12.834  0.00  0.00    +0.000 A 
ATOM     21  F   UNL     1      46.183   9.655  12.566  0.00  0.00    +0.000 F 
ATOM     22  C   UNL     1      45.533   7.388  12.600  0.00  0.00    +0.000 A 
ATOM     23  C   UNL     1      45.805   6.043  12.871  0.00  0.00    +0.000 A 
ATOM     24  C   UNL     1      47.068   5.745  13.406  0.00  0.00    +0.000 A 
BRANCH  23  25
ATOM     25  N   UNL     1      44.880   5.054  12.637  0.00  0.00    +0.000 N 
ATOM     26  C   UNL     1      45.262   3.698  12.218  0.00  0.00    +0.000 C 
ATOM     27  C   UNL     1      44.473   3.321  10.958  0.00  0.00    +0.000 C 
ATOM     28  O   UNL     1      43.055   3.432  11.179  0.00  0.00    +0.000 OA
ATOM     29  C   UNL     1      42.705   4.780  11.542  0.00  0.00    +0.000 C 
ATOM     30  C   UNL     1      43.433   5.239  12.819  0.00  0.00    +0.000 C 
ENDBRANCH  23  25
ENDBRANCH  17  18
ENDBRANCH  16  17
ENDBRANCH   3  16
TORSDOF 6
ENDMDL
MODEL 7
REMARK VINA RESULT:    -6.708      4.058      6.550
REMARK INTER + INTRA:         -10.177
REMARK INTER:                  -9.119
REMARK INTRA:                  -1.059
REMARK UNBOUND:                -1.117
REMARK  Name = 
REMARK  6 active torsions:
REMARK  status: ('A' for Active; 'I' for Inactive)
REMARK    1  A    between atoms: C_2  and  C_4
REMARK    2  A    between atoms: C_6  and  C_7
REMARK    3  A    between atoms: C_7  and  O_8
REMARK    4  A    between atoms: O_8  and  C_9
REMARK    5  A    between atoms: C_14  and  N_15
REMARK    6  A    between atoms: C_23  and  C_24
REMARK                            x       y       z     vdW  Elec       q    Type
REMARK                         _______ _______ _______ _____ _____    ______ ____
ROOT
ATOM      1  C   UNL     1      49.224   4.018  17.520  0.00  0.00    +0.000 A 
ATOM      2  C   UNL     1      49.169   5.035  16.562  0.00  0.00    +0.000 A 
ATOM      3  C   UNL     1      48.802   6.336  16.931  0.00  0.00    +0.000 A 
ATOM      4  C   UNL     1      48.451   6.598  18.263  0.00  0.00    +0.000 A 
ATOM      5  C   UNL     1      48.477   5.584  19.232  0.00  0.00    +0.000 A 
ATOM      6  C   UNL     1      48.874   4.293  18.848  0.00  0.00    +0.000 A 
ENDROOT
BRANCH   1   8
ATOM      7  N   UNL     1      50.517   1.988  17.956  0.00  0.00    +0.000 N 
ATOM      8  C   UNL     1      49.599   2.623  17.164  0.00  0.00    +0.000 C 
ATOM      9  O   UNL     1      49.091   2.052  16.211  0.00  0.00    +0.000 OA
ATOM     10  H   UNL     1      50.702   1.019  17.743  0.00  0.00    +0.000 HD
ATOM     11  H   UNL     1      50.795   2.333  18.863  0.00  0.00    +0.000 HD
ENDBRANCH   1   8
BRANCH   5  12
ATOM     12  C   UNL     1      48.073   5.863  20.658  0.00  0.00    +0.000 C 
ATOM     13  F   UNL     1      46.723   5.843  20.849  0.00  0.00    +0.000 F 
ATOM     14  F   UNL     1      48.583   4.954  21.532  0.00  0.00    +0.000 F 
ATOM     15  F   UNL     1      48.490   7.084  21.091  0.00  0.00    +0.000 F 
ENDBRANCH   5  12
BRANCH   3  16
ATOM     16  C   UNL     1      48.697   7.439  15.906  0.00  0.00    +0.000 C 
BRANCH  16  17
ATOM     17  O   UNL     1      48.848   6.904  14.589  0.00  0.00    +0.000 OA
BRANCH  17  18
ATOM     18  C   UNL     1      47.722   6.961  13.812  0.00  0.00    +0.000 A 
ATOM     19  C   UNL     1      47.150   8.220  13.678  0.00  0.00    +0.000 A 
ATOM     20  C   UNL     1      45.983   8.352  12.943  0.00  0.00    +0.000 A 
ATOM     21  F   UNL     1      45.401   9.555  12.840  0.00  0.00    +0.000 F 
ATOM     22  C   UNL     1      45.394   7.255  12.322  0.00  0.00    +0.000 A 
ATOM     23  C   UNL     1      45.966   5.982  12.408  0.00  0.00    +0.000 A 
ATOM     24  C   UNL     1      47.143   5.863  13.163  0.00  0.00    +0.000 A 
BRANCH  23  25
ATOM     25  N   UNL     1      45.402   4.889  11.793  0.00  0.00    +0.000 N 
ATOM     26  C   UNL     1      45.045   4.881  10.368  0.00  0.00    +0.000 C 
ATOM     27  C   UNL     1      43.584   4.440  10.219  0.00  0.00    +0.000 C 
ATOM     28  O   UNL     1      43.362   3.157  10.832  0.00  0.00    +0.000 OA
ATOM     29  C   UNL     1      43.675   3.208  12.236  0.00  0.00    +0.000 C 
ATOM     30  C   UNL     1      45.138   3.618  12.484  0.00  0.00    +0.000 C 
ENDBRANCH  23  25
ENDBRANCH  17  18
ENDBRANCH  16  17
ENDBRANCH   3  16
TORSDOF 6
ENDMDL
MODEL 8
REMARK VINA RESULT:    -6.705      4.006      6.005
REMARK INTER + INTRA:         -10.174
REMARK INTER:                  -9.101
REMARK INTRA:                  -1.073
REMARK UNBOUND:                -1.117
REMARK  Name = 
REMARK  6 active torsions:
REMARK  status: ('A' for Active; 'I' for Inactive)
REMARK    1  A    between atoms: C_2  and  C_4
REMARK    2  A    between atoms: C_6  and  C_7
REMARK    3  A    between atoms: C_7  and  O_8
REMARK    4  A    between atoms: O_8  and  C_9
REMARK    5  A    between atoms: C_14  and  N_15
REMARK    6  A    between atoms: C_23  and  C_24
REMARK                            x       y       z     vdW  Elec       q    Type
REMARK                         _______ _______ _______ _____ _____    ______ ____
ROOT
ATOM      1  C   UNL     1      48.948   4.482  17.388  0.00  0.00    +0.000 A 
ATOM      2  C   UNL     1      48.443   5.587  16.696  0.00  0.00    +0.000 A 
ATOM      3  C   UNL     1      49.312   6.560  16.184  0.00  0.00    +0.000 A 
ATOM      4  C   UNL     1      50.691   6.433  16.408  0.00  0.00    +0.000 A 
ATOM      5  C   UNL     1      51.211   5.343  17.121  0.00  0.00    +0.000 A 
ATOM      6  C   UNL     1      50.327   4.365  17.602  0.00  0.00    +0.000 A 
ENDROOT
BRANCH   1   8
ATOM      7  N   UNL     1      48.220   3.102  19.272  0.00  0.00    +0.000 N 
ATOM      8  C   UNL     1      48.055   3.436  17.955  0.00  0.00    +0.000 C 
ATOM      9  O   UNL     1      47.186   2.906  17.278  0.00  0.00    +0.000 OA
ATOM     10  H   UNL     1      47.557   2.445  19.658  0.00  0.00    +0.000 HD
ATOM     11  H   UNL     1      48.766   3.655  19.917  0.00  0.00    +0.000 HD
ENDBRANCH   1   8
BRANCH   5  12
ATOM     12  C   UNL     1      52.692   5.225  17.383  0.00  0.00    +0.000 C 
ATOM     13  F   UNL     1      53.087   5.844  18.532  0.00  0.00    +0.000 F 
ATOM     14  F   UNL     1      53.099   3.932  17.503  0.00  0.00    +0.000 F 
ATOM     15  F   UNL     1      53.445   5.772  16.390  0.00  0.00    +0.000 F 
ENDBRANCH   5  12
BRANCH   3  16
ATOM     16  C   UNL     1      48.785   7.780  15.470  0.00  0.00    +0.000 C 
BRANCH  16  17
ATOM     17  O   UNL     1      48.831   7.581  14.055  0.00  0.00    +0.000 OA
BRANCH  17  18
ATOM     18  C   UNL     1      47.608   7.470  13.449  0.00  0.00    +0.000 A 
ATOM     19  C   UNL     1      46.869   8.644  13.370  0.00  0.00    +0.000 A 
ATOM     20  C   UNL     1      45.602   8.604  12.811  0.00  0.00    +0.000 A 
ATOM     21  F   UNL     1      44.866   9.723  12.765  0.00  0.00    +0.000 F 
ATOM     22  C   UNL     1      45.073   7.419  12.309  0.00  0.00    +0.000 A 
ATOM     23  C   UNL     1      45.807   6.228  12.342  0.00  0.00    +0.000 A 
ATOM     24  C   UNL     1      47.084   6.284  12.919  0.00  0.00    +0.000 A 
BRANCH  23  25
ATOM     25  N   UNL     1      45.302   5.050  11.843  0.00  0.00    +0.000 N 
ATOM     26  C   UNL     1      45.232   4.769  10.403  0.00  0.00    +0.000 C 
ATOM     27  C   UNL     1      43.802   4.347  10.042  0.00  0.00    +0.000 C 
ATOM     28  O   UNL     1      43.379   3.217  10.829  0.00  0.00    +0.000 OA
ATOM     29  C   UNL     1      43.414   3.539  12.231  0.00  0.00    +0.000 C 
ATOM     30  C   UNL     1      44.824   3.951  12.692  0.00  0.00    +0.000 C 
ENDBRANCH  23  25
ENDBRANCH  17  18
ENDBRANCH  16  17
ENDBRANCH   3  16
TORSDOF 6
ENDMDL
MODEL 9
REMARK VINA RESULT:    -6.360      3.764      8.426
REMARK INTER + INTRA:          -9.708
REMARK INTER:                  -8.607
REMARK INTRA:                  -1.101
REMARK UNBOUND:                -1.117
REMARK  Name = 
REMARK  6 active torsions:
REMARK  status: ('A' for Active; 'I' for Inactive)
REMARK    1  A    between atoms: C_2  and  C_4
REMARK    2  A    between atoms: C_6  and  C_7
REMARK    3  A    between atoms: C_7  and  O_8
REMARK    4  A    between atoms: O_8  and  C_9
REMARK    5  A    between atoms: C_14  and  N_15
REMARK    6  A    between atoms: C_23  and  C_24
REMARK                            x       y       z     vdW  Elec       q    Type
REMARK                         _______ _______ _______ _____ _____    ______ ____
ROOT
ATOM      1  C   UNL     1      44.945   3.858  11.880  0.00  0.00    +0.000 A 
ATOM      2  C   UNL     1      45.785   3.308  12.854  0.00  0.00    +0.000 A 
ATOM      3  C   UNL     1      46.597   4.138  13.639  0.00  0.00    +0.000 A 
ATOM      4  C   UNL     1      46.587   5.522  13.409  0.00  0.00    +0.000 A 
ATOM      5  C   UNL     1      45.768   6.086  12.421  0.00  0.00    +0.000 A 
ATOM      6  C   UNL     1      44.942   5.242  11.664  0.00  0.00    +0.000 A 
ENDROOT
BRANCH   1   8
ATOM      7  N   UNL     1      44.656   2.388   9.946  0.00  0.00    +0.000 N 
ATOM      8  C   UNL     1      44.077   3.007  11.021  0.00  0.00    +0.000 C 
ATOM      9  O   UNL     1      42.893   2.845  11.275  0.00  0.00    +0.000 OA
ATOM     10  H   UNL     1      44.069   1.756   9.420  0.00  0.00    +0.000 HD
ATOM     11  H   UNL     1      45.656   2.316   9.823  0.00  0.00    +0.000 HD
ENDBRANCH   1   8
BRANCH   5  12
ATOM     12  C   UNL     1      45.781   7.572  12.159  0.00  0.00    +0.000 C 
ATOM     13  F   UNL     1      44.915   7.954  11.178  0.00  0.00    +0.000 F 
ATOM     14  F   UNL     1      45.437   8.298  13.258  0.00  0.00    +0.000 F 
ATOM     15  F   UNL     1      47.004   8.025  11.771  0.00  0.00    +0.000 F 
ENDBRANCH   5  12
BRANCH   3  16
ATOM     16  C   UNL     1      47.540   3.562  14.666  0.00  0.00    +0.000 C 
BRANCH  16  17
ATOM     17  O   UNL     1      46.998   3.728  15.979  0.00  0.00    +0.000 OA
BRANCH  17  18
ATOM     18  C   UNL     1      47.831   4.349  16.871  0.00  0.00    +0.000 A 
ATOM     19  C   UNL     1      47.842   3.816  18.154  0.00  0.00    +0.000 A 
ATOM     20  C   UNL     1      48.626   4.417  19.125  0.00  0.00    +0.000 A 
ATOM     21  F   UNL     1      48.613   3.935  20.375  0.00  0.00    +0.000 F 
ATOM     22  C   UNL     1      49.416   5.525  18.829  0.00  0.00    +0.000 A 
ATOM     23  C   UNL     1      49.455   6.062  17.538  0.00  0.00    +0.000 A 
ATOM     24  C   UNL     1      48.648   5.447  16.569  0.00  0.00    +0.000 A 
BRANCH  23  25
ATOM     25  N   UNL     1      50.236   7.149  17.227  0.00  0.00    +0.000 N 
ATOM     26  C   UNL     1      49.700   8.516  17.163  0.00  0.00    +0.000 C 
ATOM     27  C   UNL     1      50.080   9.142  15.816  0.00  0.00    +0.000 C 
ATOM     28  O   UNL     1      51.506   9.118  15.615  0.00  0.00    +0.000 OA
ATOM     29  C   UNL     1      51.995   7.765  15.636  0.00  0.00    +0.000 C 
ATOM     30  C   UNL     1      51.681   7.060  16.969  0.00  0.00    +0.000 C 
ENDBRANCH  23  25
ENDBRANCH  17  18
ENDBRANCH  16  17
ENDBRANCH   3  16
TORSDOF 6
ENDMDL
