MODEL 1
REMARK VINA RESULT:    -7.975      0.000      0.000
REMARK INTER + INTRA:         -13.459
REMARK INTER:                 -12.171
REMARK INTRA:                  -1.288
REMARK UNBOUND:                -1.288
REMARK  Name = 
REMARK  10 active torsions:
REMARK  status: ('A' for Active; 'I' for Inactive)
REMARK    1  A    between atoms: C_2  and  C_22
REMARK    2  A    between atoms: N_3  and  C_4
REMARK    3  A    between atoms: C_4  and  C_5
REMARK    4  A    between atoms: C_8  and  C_9
REMARK    5  A    between atoms: C_9  and  N_10
REMARK    6  A    between atoms: N_10  and  CA_11
REMARK    7  A    between atoms: CA_11  and  C_12
REMARK    8  A    between atoms: CA_11  and  C_14
REMARK    9  A    between atoms: C_12  and  O_13
REMARK   10  A    between atoms: C_29  and  O_30
REMARK                            x       y       z     vdW  Elec       q    Type
REMARK                         _______ _______ _______ _____ _____    ______ ____
ROOT
ATOM      1  C   UNL     1      47.212   7.594  12.519  0.00  0.00    +0.000 A 
ATOM      2  C   UNL     1      46.051   8.324  12.224  0.00  0.00    +0.000 A 
ATOM      3  C   UNL     1      44.886   7.675  11.796  0.00  0.00    +0.000 A 
ATOM      4  C   UNL     1      44.862   6.283  11.653  0.00  0.00    +0.000 A 
ATOM      5  C   UNL     1      46.014   5.554  12.003  0.00  0.00    +0.000 A 
ATOM      6  C   UNL     1      47.174   6.200  12.431  0.00  0.00    +0.000 A 
ENDROOT
BRANCH   1   7
ATOM      7  C   UNL     1      48.471   8.283  12.971  0.00  0.00    +0.000 C 
BRANCH   7  10
ATOM      8  O   UNL     1      48.312   8.603  15.738  0.00  0.00    +0.000 OA
ATOM      9  C   UNL     1      48.990   7.684  15.288  0.00  0.00    +0.000 C 
ATOM     10  N   UNL     1      49.175   7.491  13.944  0.00  0.00    +0.000 N 
ATOM     11  H   UNL     1      49.636   6.649  13.620  0.00  0.00    +0.000 HD
BRANCH   9  12
ATOM     12  C   UNL     1      49.679   6.735  16.160  0.00  0.00    +0.000 A 
ATOM     13  C   UNL     1      50.953   6.956  16.672  0.00  0.00    +0.000 A 
ATOM     14  N   UNL     1      51.307   5.888  17.452  0.00  0.00    +0.000 N 
ATOM     15  C   UNL     1      50.282   4.986  17.481  0.00  0.00    +0.000 A 
ATOM     16  N   UNL     1      50.294   3.837  18.173  0.00  0.00    +0.000 NA
ATOM     17  C   UNL     1      49.144   3.154  18.023  0.00  0.00    +0.000 A 
ATOM     18  N   UNL     1      48.068   3.491  17.290  0.00  0.00    +0.000 NA
ATOM     19  C   UNL     1      48.132   4.648  16.627  0.00  0.00    +0.000 A 
ATOM     20  C   UNL     1      49.255   5.471  16.685  0.00  0.00    +0.000 A 
ATOM     21  H   UNL     1      52.179   5.769  17.948  0.00  0.00    +0.000 HD
BRANCH  19  22
ATOM     22  O   UNL     1      47.025   4.947  15.889  0.00  0.00    +0.000 OA
ATOM     23  H   UNL     1      46.497   4.139  16.034  0.00  0.00    +0.000 HD
ENDBRANCH  19  22
ENDBRANCH   9  12
ENDBRANCH   7  10
ENDBRANCH   1   7
BRANCH   4  24
ATOM     24  C   UNL     1      43.635   5.511  11.227  0.00  0.00    +0.000 C 
BRANCH  24  25
ATOM     25  N   UNL     1      43.669   4.995   9.855  0.00  0.00    +0.000 NA
ATOM     26  H   UNL     1      44.438   5.444   9.362  0.00  0.00    +0.000 HD
BRANCH  25  27
ATOM     27  CA  UNL     1      43.847   3.518   9.816  0.00  0.00    +0.000 C 
BRANCH  27  28
ATOM     28  C   UNL     1      45.007   3.150   8.874  0.00  0.00    +0.000 A 
ATOM     29  C   UNL     1      45.705   4.098   8.103  0.00  0.00    +0.000 A 
ATOM     30  C   UNL     1      46.759   3.725   7.265  0.00  0.00    +0.000 A 
ATOM     31  C   UNL     1      47.146   2.390   7.185  0.00  0.00    +0.000 A 
ATOM     32  C   UNL     1      46.487   1.433   7.953  0.00  0.00    +0.000 A 
ATOM     33  C   UNL     1      45.435   1.812   8.794  0.00  0.00    +0.000 A 
ENDBRANCH  27  28
BRANCH  27  34
ATOM     34  C   UNL     1      43.976   2.880  11.235  0.00  0.00    +0.000 C 
BRANCH  34  35
ATOM     35  O   UNL     1      42.865   2.042  11.566  0.00  0.00    +0.000 OA
ATOM     36  H   UNL     1      42.991   1.725  12.478  0.00  0.00    +0.000 HD
ENDBRANCH  34  35
ENDBRANCH  27  34
ENDBRANCH  25  27
ENDBRANCH  24  25
ENDBRANCH   4  24
TORSDOF 10
ENDMDL
MODEL 2
REMARK VINA RESULT:    -7.797      2.316      2.624
REMARK INTER + INTRA:         -13.187
REMARK INTER:                 -12.287
REMARK INTRA:                  -0.899
REMARK UNBOUND:                -1.288
REMARK  Name = 
REMARK  10 active torsions:
REMARK  status: ('A' for Active; 'I' for Inactive)
REMARK    1  A    between atoms: C_2  and  C_22
REMARK    2  A    between atoms: N_3  and  C_4
REMARK    3  A    between atoms: C_4  and  C_5
REMARK    4  A    between atoms: C_8  and  C_9
REMARK    5  A    between atoms: C_9  and  N_10
REMARK    6  A    between atoms: N_10  and  CA_11
REMARK    7  A    between atoms: CA_11  and  C_12
REMARK    8  A    between atoms: CA_11  and  C_14
REMARK    9  A    between atoms: C_12  and  O_13
REMARK   10  A    between atoms: C_29  and  O_30
REMARK                            x       y       z     vdW  Elec       q    Type
REMARK                         _______ _______ _______ _____ _____    ______ ____
ROOT
ATOM      1  C   UNL     1      47.580   6.389  13.653  0.00  0.00    +0.000 A 
ATOM      2  C   UNL     1      46.741   5.327  14.025  0.00  0.00    +0.000 A 
ATOM      3  C   UNL     1      45.593   5.027  13.279  0.00  0.00    +0.000 A 
ATOM      4  C   UNL     1      45.263   5.785  12.150  0.00  0.00    +0.000 A 
ATOM      5  C   UNL     1      46.139   6.812  11.754  0.00  0.00    +0.000 A 
ATOM      6  C   UNL     1      47.283   7.111  12.495  0.00  0.00    +0.000 A 
ENDROOT
BRANCH   1   7
ATOM      7  C   UNL     1      48.809   6.724  14.453  0.00  0.00    +0.000 C 
BRANCH   7  10
ATOM      8  O   UNL     1      49.360   5.083  16.640  0.00  0.00    +0.000 OA
ATOM      9  C   UNL     1      48.836   6.175  16.839  0.00  0.00    +0.000 C 
ATOM     10  N   UNL     1      48.474   7.017  15.821  0.00  0.00    +0.000 N 
ATOM     11  H   UNL     1      48.163   7.957  16.038  0.00  0.00    +0.000 HD
BRANCH   9  12
ATOM     12  C   UNL     1      48.533   6.650  18.187  0.00  0.00    +0.000 A 
ATOM     13  C   UNL     1      48.187   7.967  18.471  0.00  0.00    +0.000 A 
ATOM     14  N   UNL     1      47.962   8.085  19.816  0.00  0.00    +0.000 N 
ATOM     15  C   UNL     1      48.126   6.868  20.413  0.00  0.00    +0.000 A 
ATOM     16  N   UNL     1      47.956   6.628  21.722  0.00  0.00    +0.000 NA
ATOM     17  C   UNL     1      48.176   5.336  22.025  0.00  0.00    +0.000 A 
ATOM     18  N   UNL     1      48.532   4.339  21.196  0.00  0.00    +0.000 NA
ATOM     19  C   UNL     1      48.685   4.655  19.907  0.00  0.00    +0.000 A 
ATOM     20  C   UNL     1      48.489   5.952  19.437  0.00  0.00    +0.000 A 
ATOM     21  H   UNL     1      47.700   8.926  20.311  0.00  0.00    +0.000 HD
BRANCH  19  22
ATOM     22  O   UNL     1      49.056   3.618  19.104  0.00  0.00    +0.000 OA
ATOM     23  H   UNL     1      49.832   4.010  18.660  0.00  0.00    +0.000 HD
ENDBRANCH  19  22
ENDBRANCH   9  12
ENDBRANCH   7  10
ENDBRANCH   1   7
BRANCH   4  24
ATOM     24  C   UNL     1      44.061   5.501  11.280  0.00  0.00    +0.000 C 
BRANCH  24  25
ATOM     25  N   UNL     1      44.369   5.078   9.910  0.00  0.00    +0.000 NA
ATOM     26  H   UNL     1      45.339   5.317   9.711  0.00  0.00    +0.000 HD
BRANCH  25  27
ATOM     27  CA  UNL     1      44.167   3.616   9.715  0.00  0.00    +0.000 C 
BRANCH  27  28
ATOM     28  C   UNL     1      45.203   3.067   8.719  0.00  0.00    +0.000 A 
ATOM     29  C   UNL     1      45.866   3.872   7.774  0.00  0.00    +0.000 A 
ATOM     30  C   UNL     1      46.807   3.336   6.891  0.00  0.00    +0.000 A 
ATOM     31  C   UNL     1      47.115   1.980   6.939  0.00  0.00    +0.000 A 
ATOM     32  C   UNL     1      46.491   1.164   7.880  0.00  0.00    +0.000 A 
ATOM     33  C   UNL     1      45.552   1.705   8.765  0.00  0.00    +0.000 A 
ENDBRANCH  27  28
BRANCH  27  34
ATOM     34  C   UNL     1      44.119   2.822  11.059  0.00  0.00    +0.000 C 
BRANCH  34  35
ATOM     35  O   UNL     1      42.802   2.364  11.381  0.00  0.00    +0.000 OA
ATOM     36  H   UNL     1      42.166   3.022  11.047  0.00  0.00    +0.000 HD
ENDBRANCH  34  35
ENDBRANCH  27  34
ENDBRANCH  25  27
ENDBRANCH  24  25
ENDBRANCH   4  24
TORSDOF 10
ENDMDL
MODEL 3
REMARK VINA RESULT:    -7.768      1.723      2.123
REMARK INTER + INTRA:         -13.143
REMARK INTER:                 -12.239
REMARK INTRA:                  -0.904
REMARK UNBOUND:                -1.288
REMARK  Name = 
REMARK  10 active torsions:
REMARK  status: ('A' for Active; 'I' for Inactive)
REMARK    1  A    between atoms: C_2  and  C_22
REMARK    2  A    between atoms: N_3  and  C_4
REMARK    3  A    between atoms: C_4  and  C_5
REMARK    4  A    between atoms: C_8  and  C_9
REMARK    5  A    between atoms: C_9  and  N_10
REMARK    6  A    between atoms: N_10  and  CA_11
REMARK    7  A    between atoms: CA_11  and  C_12
REMARK    8  A    between atoms: CA_11  and  C_14
REMARK    9  A    between atoms: C_12  and  O_13
REMARK   10  A    between atoms: C_29  and  O_30
REMARK                            x       y       z     vdW  Elec       q    Type
REMARK                         _______ _______ _______ _____ _____    ______ ____
ROOT
ATOM      1  C   UNL     1      47.114   6.986  13.646  0.00  0.00    +0.000 A 
ATOM      2  C   UNL     1      46.368   7.884  12.868  0.00  0.00    +0.000 A 
ATOM      3  C   UNL     1      45.287   7.437  12.097  0.00  0.00    +0.000 A 
ATOM      4  C   UNL     1      44.935   6.083  12.088  0.00  0.00    +0.000 A 
ATOM      5  C   UNL     1      45.654   5.199  12.914  0.00  0.00    +0.000 A 
ATOM      6  C   UNL     1      46.729   5.644  13.683  0.00  0.00    +0.000 A 
ENDROOT
BRANCH   1   7
ATOM      7  C   UNL     1      48.282   7.455  14.470  0.00  0.00    +0.000 C 
BRANCH   7  10
ATOM      8  O   UNL     1      50.735   6.696  15.562  0.00  0.00    +0.000 OA
ATOM      9  C   UNL     1      49.704   6.357  16.135  0.00  0.00    +0.000 C 
ATOM     10  N   UNL     1      48.457   6.631  15.637  0.00  0.00    +0.000 N 
ATOM     11  H   UNL     1      47.641   6.444  16.207  0.00  0.00    +0.000 HD
BRANCH   9  12
ATOM     12  C   UNL     1      49.730   5.605  17.388  0.00  0.00    +0.000 A 
ATOM     13  C   UNL     1      50.604   4.550  17.626  0.00  0.00    +0.000 A 
ATOM     14  N   UNL     1      50.379   4.066  18.887  0.00  0.00    +0.000 N 
ATOM     15  C   UNL     1      49.396   4.799  19.486  0.00  0.00    +0.000 A 
ATOM     16  N   UNL     1      48.949   4.603  20.736  0.00  0.00    +0.000 NA
ATOM     17  C   UNL     1      47.984   5.480  21.064  0.00  0.00    +0.000 A 
ATOM     18  N   UNL     1      47.459   6.458  20.305  0.00  0.00    +0.000 NA
ATOM     19  C   UNL     1      47.953   6.591  19.071  0.00  0.00    +0.000 A 
ATOM     20  C   UNL     1      48.961   5.760  18.586  0.00  0.00    +0.000 A 
ATOM     21  H   UNL     1      50.862   3.298  19.331  0.00  0.00    +0.000 HD
BRANCH  19  22
ATOM     22  O   UNL     1      47.387   7.588  18.332  0.00  0.00    +0.000 OA
ATOM     23  H   UNL     1      48.158   8.174  18.214  0.00  0.00    +0.000 HD
ENDBRANCH  19  22
ENDBRANCH   9  12
ENDBRANCH   7  10
ENDBRANCH   1   7
BRANCH   4  24
ATOM     24  C   UNL     1      43.764   5.533  11.308  0.00  0.00    +0.000 C 
BRANCH  24  25
ATOM     25  N   UNL     1      44.081   5.072   9.952  0.00  0.00    +0.000 NA
ATOM     26  H   UNL     1      45.019   5.389   9.716  0.00  0.00    +0.000 HD
BRANCH  25  27
ATOM     27  CA  UNL     1      44.012   3.590   9.833  0.00  0.00    +0.000 C 
BRANCH  27  28
ATOM     28  C   UNL     1      45.096   3.086   8.865  0.00  0.00    +0.000 A 
ATOM     29  C   UNL     1      45.521   1.746   8.812  0.00  0.00    +0.000 A 
ATOM     30  C   UNL     1      46.504   1.327   7.912  0.00  0.00    +0.000 A 
ATOM     31  C   UNL     1      47.080   2.240   7.034  0.00  0.00    +0.000 A 
ATOM     32  C   UNL     1      46.663   3.569   7.049  0.00  0.00    +0.000 A 
ATOM     33  C   UNL     1      45.676   3.984   7.949  0.00  0.00    +0.000 A 
ENDBRANCH  27  28
BRANCH  27  34
ATOM     34  C   UNL     1      44.031   2.865  11.216  0.00  0.00    +0.000 C 
BRANCH  34  35
ATOM     35  O   UNL     1      42.845   2.101  11.454  0.00  0.00    +0.000 OA
ATOM     36  H   UNL     1      42.357   2.037  10.614  0.00  0.00    +0.000 HD
ENDBRANCH  34  35
ENDBRANCH  27  34
ENDBRANCH  25  27
ENDBRANCH  24  25
ENDBRANCH   4  24
TORSDOF 10
ENDMDL
MODEL 4
REMARK VINA RESULT:    -7.306      2.869      7.979
REMARK INTER + INTRA:         -12.438
REMARK INTER:                 -10.316
REMARK INTRA:                  -2.121
REMARK UNBOUND:                -1.288
REMARK  Name = 
REMARK  10 active torsions:
REMARK  status: ('A' for Active; 'I' for Inactive)
REMARK    1  A    between atoms: C_2  and  C_22
REMARK    2  A    between atoms: N_3  and  C_4
REMARK    3  A    between atoms: C_4  and  C_5
REMARK    4  A    between atoms: C_8  and  C_9
REMARK    5  A    between atoms: C_9  and  N_10
REMARK    6  A    between atoms: N_10  and  CA_11
REMARK    7  A    between atoms: CA_11  and  C_12
REMARK    8  A    between atoms: CA_11  and  C_14
REMARK    9  A    between atoms: C_12  and  O_13
REMARK   10  A    between atoms: C_29  and  O_30
REMARK                            x       y       z     vdW  Elec       q    Type
REMARK                         _______ _______ _______ _____ _____    ______ ____
ROOT
ATOM      1  C   UNL     1      49.377   7.935  14.846  0.00  0.00    +0.000 A 
ATOM      2  C   UNL     1      48.464   8.719  15.568  0.00  0.00    +0.000 A 
ATOM      3  C   UNL     1      48.452   8.696  16.969  0.00  0.00    +0.000 A 
ATOM      4  C   UNL     1      49.349   7.886  17.673  0.00  0.00    +0.000 A 
ATOM      5  C   UNL     1      50.296   7.145  16.942  0.00  0.00    +0.000 A 
ATOM      6  C   UNL     1      50.310   7.168  15.547  0.00  0.00    +0.000 A 
ENDROOT
BRANCH   1   7
ATOM      7  C   UNL     1      49.392   7.945  13.341  0.00  0.00    +0.000 C 
BRANCH   7  10
ATOM      8  O   UNL     1      48.174   5.438  13.234  0.00  0.00    +0.000 OA
ATOM      9  C   UNL     1      47.542   6.417  12.850  0.00  0.00    +0.000 C 
ATOM     10  N   UNL     1      48.083   7.676  12.809  0.00  0.00    +0.000 N 
ATOM     11  H   UNL     1      47.485   8.469  12.606  0.00  0.00    +0.000 HD
BRANCH   9  12
ATOM     12  C   UNL     1      46.163   6.309  12.380  0.00  0.00    +0.000 A 
ATOM     13  C   UNL     1      45.465   7.371  11.814  0.00  0.00    +0.000 A 
ATOM     14  N   UNL     1      44.209   6.944  11.476  0.00  0.00    +0.000 N 
ATOM     15  C   UNL     1      44.081   5.620  11.784  0.00  0.00    +0.000 A 
ATOM     16  N   UNL     1      42.981   4.886  11.558  0.00  0.00    +0.000 NA
ATOM     17  C   UNL     1      43.144   3.610  11.953  0.00  0.00    +0.000 A 
ATOM     18  N   UNL     1      44.227   3.049  12.520  0.00  0.00    +0.000 NA
ATOM     19  C   UNL     1      45.282   3.844  12.715  0.00  0.00    +0.000 A 
ATOM     20  C   UNL     1      45.269   5.191  12.354  0.00  0.00    +0.000 A 
ATOM     21  H   UNL     1      43.480   7.500  11.052  0.00  0.00    +0.000 HD
BRANCH  19  22
ATOM     22  O   UNL     1      46.355   3.239  13.300  0.00  0.00    +0.000 OA
ATOM     23  H   UNL     1      46.439   2.450  12.733  0.00  0.00    +0.000 HD
ENDBRANCH  19  22
ENDBRANCH   9  12
ENDBRANCH   7  10
ENDBRANCH   1   7
BRANCH   4  24
ATOM     24  C   UNL     1      49.416   7.833  19.181  0.00  0.00    +0.000 C 
BRANCH  24  25
ATOM     25  N   UNL     1      49.822   6.540  19.742  0.00  0.00    +0.000 NA
ATOM     26  H   UNL     1      50.308   6.710  20.619  0.00  0.00    +0.000 HD
BRANCH  25  27
ATOM     27  CA  UNL     1      48.658   5.644  19.983  0.00  0.00    +0.000 C 
BRANCH  27  28
ATOM     28  C   UNL     1      48.424   4.740  18.760  0.00  0.00    +0.000 A 
ATOM     29  C   UNL     1      47.279   4.823  17.947  0.00  0.00    +0.000 A 
ATOM     30  C   UNL     1      47.108   3.990  16.839  0.00  0.00    +0.000 A 
ATOM     31  C   UNL     1      48.086   3.055  16.512  0.00  0.00    +0.000 A 
ATOM     32  C   UNL     1      49.240   2.966  17.286  0.00  0.00    +0.000 A 
ATOM     33  C   UNL     1      49.410   3.806  18.393  0.00  0.00    +0.000 A 
ENDBRANCH  27  28
BRANCH  27  34
ATOM     34  C   UNL     1      48.763   4.854  21.326  0.00  0.00    +0.000 C 
BRANCH  34  35
ATOM     35  O   UNL     1      47.483   4.515  21.868  0.00  0.00    +0.000 OA
ATOM     36  H   UNL     1      46.960   4.097  21.161  0.00  0.00    +0.000 HD
ENDBRANCH  34  35
ENDBRANCH  27  34
ENDBRANCH  25  27
ENDBRANCH  24  25
ENDBRANCH   4  24
TORSDOF 10
ENDMDL
MODEL 5
REMARK VINA RESULT:    -7.208      2.532      2.932
REMARK INTER + INTRA:         -12.289
REMARK INTER:                 -11.038
REMARK INTRA:                  -1.251
REMARK UNBOUND:                -1.288
REMARK  Name = 
REMARK  10 active torsions:
REMARK  status: ('A' for Active; 'I' for Inactive)
REMARK    1  A    between atoms: C_2  and  C_22
REMARK    2  A    between atoms: N_3  and  C_4
REMARK    3  A    between atoms: C_4  and  C_5
REMARK    4  A    between atoms: C_8  and  C_9
REMARK    5  A    between atoms: C_9  and  N_10
REMARK    6  A    between atoms: N_10  and  CA_11
REMARK    7  A    between atoms: CA_11  and  C_12
REMARK    8  A    between atoms: CA_11  and  C_14
REMARK    9  A    between atoms: C_12  and  O_13
REMARK   10  A    between atoms: C_29  and  O_30
REMARK                            x       y       z     vdW  Elec       q    Type
REMARK                         _______ _______ _______ _____ _____    ______ ____
ROOT
ATOM      1  C   UNL     1      47.073   8.376  12.790  0.00  0.00    +0.000 A 
ATOM      2  C   UNL     1      45.734   8.764  12.947  0.00  0.00    +0.000 A 
ATOM      3  C   UNL     1      44.692   7.938  12.502  0.00  0.00    +0.000 A 
ATOM      4  C   UNL     1      44.972   6.711  11.890  0.00  0.00    +0.000 A 
ATOM      5  C   UNL     1      46.316   6.307  11.787  0.00  0.00    +0.000 A 
ATOM      6  C   UNL     1      47.353   7.127  12.231  0.00  0.00    +0.000 A 
ENDROOT
BRANCH   1   7
ATOM      7  C   UNL     1      48.198   9.260  13.256  0.00  0.00    +0.000 C 
BRANCH   7  10
ATOM      8  O   UNL     1      48.970   7.694  15.432  0.00  0.00    +0.000 OA
ATOM      9  C   UNL     1      48.500   8.808  15.644  0.00  0.00    +0.000 C 
ATOM     10  N   UNL     1      48.037   9.617  14.640  0.00  0.00    +0.000 N 
ATOM     11  H   UNL     1      47.776  10.574  14.851  0.00  0.00    +0.000 HD
BRANCH   9  12
ATOM     12  C   UNL     1      48.372   9.347  16.996  0.00  0.00    +0.000 A 
ATOM     13  C   UNL     1      48.500  10.700  17.293  0.00  0.00    +0.000 A 
ATOM     14  N   UNL     1      48.322  10.875  18.639  0.00  0.00    +0.000 N 
ATOM     15  C   UNL     1      48.055   9.671  19.223  0.00  0.00    +0.000 A 
ATOM     16  N   UNL     1      47.807   9.493  20.530  0.00  0.00    +0.000 NA
ATOM     17  C   UNL     1      47.567   8.201  20.820  0.00  0.00    +0.000 A 
ATOM     18  N   UNL     1      47.562   7.150  19.982  0.00  0.00    +0.000 NA
ATOM     19  C   UNL     1      47.821   7.405  18.697  0.00  0.00    +0.000 A 
ATOM     20  C   UNL     1      48.085   8.695  18.239  0.00  0.00    +0.000 A 
ATOM     21  H   UNL     1      48.363  11.751  19.141  0.00  0.00    +0.000 HD
BRANCH  19  22
ATOM     22  O   UNL     1      47.816   6.311  17.883  0.00  0.00    +0.000 OA
ATOM     23  H   UNL     1      48.684   6.413  17.450  0.00  0.00    +0.000 HD
ENDBRANCH  19  22
ENDBRANCH   9  12
ENDBRANCH   7  10
ENDBRANCH   1   7
BRANCH   4  24
ATOM     24  C   UNL     1      43.903   5.756  11.415  0.00  0.00    +0.000 C 
BRANCH  24  25
ATOM     25  N   UNL     1      44.102   5.221  10.064  0.00  0.00    +0.000 NA
ATOM     26  H   UNL     1      45.033   5.484   9.748  0.00  0.00    +0.000 HD
BRANCH  25  27
ATOM     27  CA  UNL     1      43.963   3.739  10.021  0.00  0.00    +0.000 C 
BRANCH  27  28
ATOM     28  C   UNL     1      44.992   3.140   9.047  0.00  0.00    +0.000 A 
ATOM     29  C   UNL     1      45.280   1.764   8.979  0.00  0.00    +0.000 A 
ATOM     30  C   UNL     1      46.215   1.257   8.074  0.00  0.00    +0.000 A 
ATOM     31  C   UNL     1      46.881   2.117   7.205  0.00  0.00    +0.000 A 
ATOM     32  C   UNL     1      46.600   3.481   7.235  0.00  0.00    +0.000 A 
ATOM     33  C   UNL     1      45.659   3.984   8.141  0.00  0.00    +0.000 A 
ENDBRANCH  27  28
BRANCH  27  34
ATOM     34  C   UNL     1      43.995   3.082  11.437  0.00  0.00    +0.000 C 
BRANCH  34  35
ATOM     35  O   UNL     1      43.105   1.968  11.548  0.00  0.00    +0.000 OA
ATOM     36  H   UNL     1      42.544   2.109  12.332  0.00  0.00    +0.000 HD
ENDBRANCH  34  35
ENDBRANCH  27  34
ENDBRANCH  25  27
ENDBRANCH  24  25
ENDBRANCH   4  24
TORSDOF 10
ENDMDL
MODEL 6
REMARK VINA RESULT:    -7.115      3.088      3.529
REMARK INTER + INTRA:         -12.147
REMARK INTER:                 -11.125
REMARK INTRA:                  -1.023
REMARK UNBOUND:                -1.288
REMARK  Name = 
REMARK  10 active torsions:
REMARK  status: ('A' for Active; 'I' for Inactive)
REMARK    1  A    between atoms: C_2  and  C_22
REMARK    2  A    between atoms: N_3  and  C_4
REMARK    3  A    between atoms: C_4  and  C_5
REMARK    4  A    between atoms: C_8  and  C_9
REMARK    5  A    between atoms: C_9  and  N_10
REMARK    6  A    between atoms: N_10  and  CA_11
REMARK    7  A    between atoms: CA_11  and  C_12
REMARK    8  A    between atoms: CA_11  and  C_14
REMARK    9  A    between atoms: C_12  and  O_13
REMARK   10  A    between atoms: C_29  and  O_30
REMARK                            x       y       z     vdW  Elec       q    Type
REMARK                         _______ _______ _______ _____ _____    ______ ____
ROOT
ATOM      1  C   UNL     1      47.102   8.062  13.557  0.00  0.00    +0.000 A 
ATOM      2  C   UNL     1      47.257   6.688  13.319  0.00  0.00    +0.000 A 
ATOM      3  C   UNL     1      46.337   5.990  12.526  0.00  0.00    +0.000 A 
ATOM      4  C   UNL     1      45.243   6.654  11.959  0.00  0.00    +0.000 A 
ATOM      5  C   UNL     1      45.126   8.042  12.158  0.00  0.00    +0.000 A 
ATOM      6  C   UNL     1      46.043   8.738  12.946  0.00  0.00    +0.000 A 
ENDROOT
BRANCH   1   7
ATOM      7  C   UNL     1      48.080   8.819  14.415  0.00  0.00    +0.000 C 
BRANCH   7  10
ATOM      8  O   UNL     1      48.433  10.361  16.712  0.00  0.00    +0.000 OA
ATOM      9  C   UNL     1      48.205   9.162  16.836  0.00  0.00    +0.000 C 
ATOM     10  N   UNL     1      48.081   8.318  15.763  0.00  0.00    +0.000 N 
ATOM     11  H   UNL     1      47.767   7.366  15.912  0.00  0.00    +0.000 HD
BRANCH   9  12
ATOM     12  C   UNL     1      48.073   8.534  18.149  0.00  0.00    +0.000 A 
ATOM     13  C   UNL     1      48.516   7.245  18.425  0.00  0.00    +0.000 A 
ATOM     14  N   UNL     1      48.251   6.958  19.738  0.00  0.00    +0.000 N 
ATOM     15  C   UNL     1      47.670   8.042  20.331  0.00  0.00    +0.000 A 
ATOM     16  N   UNL     1      47.305   8.104  21.621  0.00  0.00    +0.000 NA
ATOM     17  C   UNL     1      46.768   9.298  21.930  0.00  0.00    +0.000 A 
ATOM     18  N   UNL     1      46.570  10.353  21.120  0.00  0.00    +0.000 NA
ATOM     19  C   UNL     1      46.956  10.215  19.850  0.00  0.00    +0.000 A 
ATOM     20  C   UNL     1      47.535   9.038  19.377  0.00  0.00    +0.000 A 
ATOM     21  H   UNL     1      48.457   6.094  20.217  0.00  0.00    +0.000 HD
BRANCH  19  22
ATOM     22  O   UNL     1      46.729  11.304  19.061  0.00  0.00    +0.000 OA
ATOM     23  H   UNL     1      47.046  12.014  19.650  0.00  0.00    +0.000 HD
ENDBRANCH  19  22
ENDBRANCH   9  12
ENDBRANCH   7  10
ENDBRANCH   1   7
BRANCH   4  24
ATOM     24  C   UNL     1      44.229   5.975  11.068  0.00  0.00    +0.000 C 
BRANCH  24  25
ATOM     25  N   UNL     1      44.779   5.360   9.855  0.00  0.00    +0.000 NA
ATOM     26  H   UNL     1      45.794   5.415   9.899  0.00  0.00    +0.000 HD
BRANCH  25  27
ATOM     27  CA  UNL     1      44.363   3.938   9.711  0.00  0.00    +0.000 C 
BRANCH  27  28
ATOM     28  C   UNL     1      45.306   3.207   8.739  0.00  0.00    +0.000 A 
ATOM     29  C   UNL     1      46.047   3.867   7.742  0.00  0.00    +0.000 A 
ATOM     30  C   UNL     1      46.900   3.168   6.884  0.00  0.00    +0.000 A 
ATOM     31  C   UNL     1      47.039   1.789   7.009  0.00  0.00    +0.000 A 
ATOM     32  C   UNL     1      46.334   1.113   8.003  0.00  0.00    +0.000 A 
ATOM     33  C   UNL     1      45.484   1.817   8.863  0.00  0.00    +0.000 A 
ENDBRANCH  27  28
BRANCH  27  34
ATOM     34  C   UNL     1      44.198   3.207  11.081  0.00  0.00    +0.000 C 
BRANCH  34  35
ATOM     35  O   UNL     1      42.833   2.907  11.385  0.00  0.00    +0.000 OA
ATOM     36  H   UNL     1      42.811   2.454  12.247  0.00  0.00    +0.000 HD
ENDBRANCH  34  35
ENDBRANCH  27  34
ENDBRANCH  25  27
ENDBRANCH  24  25
ENDBRANCH   4  24
TORSDOF 10
ENDMDL
MODEL 7
REMARK VINA RESULT:    -7.047      2.159      8.399
REMARK INTER + INTRA:         -12.043
REMARK INTER:                 -10.311
REMARK INTRA:                  -1.731
REMARK UNBOUND:                -1.288
REMARK  Name = 
REMARK  10 active torsions:
REMARK  status: ('A' for Active; 'I' for Inactive)
REMARK    1  A    between atoms: C_2  and  C_22
REMARK    2  A    between atoms: N_3  and  C_4
REMARK    3  A    between atoms: C_4  and  C_5
REMARK    4  A    between atoms: C_8  and  C_9
REMARK    5  A    between atoms: C_9  and  N_10
REMARK    6  A    between atoms: N_10  and  CA_11
REMARK    7  A    between atoms: CA_11  and  C_12
REMARK    8  A    between atoms: CA_11  and  C_14
REMARK    9  A    between atoms: C_12  and  O_13
REMARK   10  A    between atoms: C_29  and  O_30
REMARK                            x       y       z     vdW  Elec       q    Type
REMARK                         _______ _______ _______ _____ _____    ______ ____
ROOT
ATOM      1  C   UNL     1      46.999   7.742  13.259  0.00  0.00    +0.000 A 
ATOM      2  C   UNL     1      48.026   6.819  13.011  0.00  0.00    +0.000 A 
ATOM      3  C   UNL     1      49.249   6.908  13.689  0.00  0.00    +0.000 A 
ATOM      4  C   UNL     1      49.467   7.926  14.625  0.00  0.00    +0.000 A 
ATOM      5  C   UNL     1      48.413   8.814  14.906  0.00  0.00    +0.000 A 
ATOM      6  C   UNL     1      47.195   8.724  14.233  0.00  0.00    +0.000 A 
ENDROOT
BRANCH   1   7
ATOM      7  C   UNL     1      45.686   7.659  12.529  0.00  0.00    +0.000 C 
BRANCH   7  10
ATOM      8  O   UNL     1      43.774   5.765  13.264  0.00  0.00    +0.000 OA
ATOM      9  C   UNL     1      44.507   5.524  12.309  0.00  0.00    +0.000 C 
ATOM     10  N   UNL     1      45.513   6.368  11.919  0.00  0.00    +0.000 N 
ATOM     11  H   UNL     1      46.006   6.188  11.052  0.00  0.00    +0.000 HD
BRANCH   9  12
ATOM     12  C   UNL     1      44.377   4.296  11.528  0.00  0.00    +0.000 A 
ATOM     13  C   UNL     1      43.776   3.141  12.018  0.00  0.00    +0.000 A 
ATOM     14  N   UNL     1      43.809   2.179  11.044  0.00  0.00    +0.000 N 
ATOM     15  C   UNL     1      44.394   2.689   9.921  0.00  0.00    +0.000 A 
ATOM     16  N   UNL     1      44.563   2.015   8.772  0.00  0.00    +0.000 NA
ATOM     17  C   UNL     1      45.158   2.772   7.833  0.00  0.00    +0.000 A 
ATOM     18  N   UNL     1      45.577   4.046   7.937  0.00  0.00    +0.000 NA
ATOM     19  C   UNL     1      45.377   4.650   9.112  0.00  0.00    +0.000 A 
ATOM     20  C   UNL     1      44.768   3.998  10.183  0.00  0.00    +0.000 A 
ATOM     21  H   UNL     1      43.451   1.237  11.117  0.00  0.00    +0.000 HD
BRANCH  19  22
ATOM     22  O   UNL     1      45.825   5.936   9.178  0.00  0.00    +0.000 OA
ATOM     23  H   UNL     1      46.384   5.885   9.976  0.00  0.00    +0.000 HD
ENDBRANCH  19  22
ENDBRANCH   9  12
ENDBRANCH   7  10
ENDBRANCH   1   7
BRANCH   4  24
ATOM     24  C   UNL     1      50.746   8.067  15.417  0.00  0.00    +0.000 C 
BRANCH  24  25
ATOM     25  N   UNL     1      51.119   6.892  16.212  0.00  0.00    +0.000 NA
ATOM     26  H   UNL     1      52.056   7.040  16.582  0.00  0.00    +0.000 HD
BRANCH  25  27
ATOM     27  CA  UNL     1      50.172   6.652  17.335  0.00  0.00    +0.000 C 
BRANCH  27  28
ATOM     28  C   UNL     1      49.525   5.264  17.193  0.00  0.00    +0.000 A 
ATOM     29  C   UNL     1      50.167   4.071  17.572  0.00  0.00    +0.000 A 
ATOM     30  C   UNL     1      49.541   2.829  17.434  0.00  0.00    +0.000 A 
ATOM     31  C   UNL     1      48.250   2.752  16.920  0.00  0.00    +0.000 A 
ATOM     32  C   UNL     1      47.582   3.919  16.557  0.00  0.00    +0.000 A 
ATOM     33  C   UNL     1      48.210   5.161  16.700  0.00  0.00    +0.000 A 
ENDBRANCH  27  28
BRANCH  27  34
ATOM     34  C   UNL     1      50.813   6.896  18.738  0.00  0.00    +0.000 C 
BRANCH  34  35
ATOM     35  O   UNL     1      50.341   8.094  19.359  0.00  0.00    +0.000 OA
ATOM     36  H   UNL     1      51.098   8.523  19.797  0.00  0.00    +0.000 HD
ENDBRANCH  34  35
ENDBRANCH  27  34
ENDBRANCH  25  27
ENDBRANCH  24  25
ENDBRANCH   4  24
TORSDOF 10
ENDMDL
MODEL 8
REMARK VINA RESULT:    -6.910      2.451      8.379
REMARK INTER + INTRA:         -11.835
REMARK INTER:                  -9.990
REMARK INTRA:                  -1.844
REMARK UNBOUND:                -1.288
REMARK  Name = 
REMARK  10 active torsions:
REMARK  status: ('A' for Active; 'I' for Inactive)
REMARK    1  A    between atoms: C_2  and  C_22
REMARK    2  A    between atoms: N_3  and  C_4
REMARK    3  A    between atoms: C_4  and  C_5
REMARK    4  A    between atoms: C_8  and  C_9
REMARK    5  A    between atoms: C_9  and  N_10
REMARK    6  A    between atoms: N_10  and  CA_11
REMARK    7  A    between atoms: CA_11  and  C_12
REMARK    8  A    between atoms: CA_11  and  C_14
REMARK    9  A    between atoms: C_12  and  O_13
REMARK   10  A    between atoms: C_29  and  O_30
REMARK                            x       y       z     vdW  Elec       q    Type
REMARK                         _______ _______ _______ _____ _____    ______ ____
ROOT
ATOM      1  C   UNL     1      48.223   7.981  14.638  0.00  0.00    +0.000 A 
ATOM      2  C   UNL     1      49.264   7.042  14.580  0.00  0.00    +0.000 A 
ATOM      3  C   UNL     1      50.177   6.919  15.636  0.00  0.00    +0.000 A 
ATOM      4  C   UNL     1      50.067   7.736  16.766  0.00  0.00    +0.000 A 
ATOM      5  C   UNL     1      48.989   8.637  16.839  0.00  0.00    +0.000 A 
ATOM      6  C   UNL     1      48.078   8.758  15.789  0.00  0.00    +0.000 A 
ENDROOT
BRANCH   1   7
ATOM      7  C   UNL     1      47.243   8.126  13.505  0.00  0.00    +0.000 C 
BRANCH   7  10
ATOM      8  O   UNL     1      45.403   7.681  11.456  0.00  0.00    +0.000 OA
ATOM      9  C   UNL     1      45.684   6.753  12.209  0.00  0.00    +0.000 C 
ATOM     10  N   UNL     1      46.528   6.899  13.279  0.00  0.00    +0.000 N 
ATOM     11  H   UNL     1      46.828   6.078  13.792  0.00  0.00    +0.000 HD
BRANCH   9  12
ATOM     12  C   UNL     1      45.113   5.419  12.035  0.00  0.00    +0.000 A 
ATOM     13  C   UNL     1      44.542   4.693  13.075  0.00  0.00    +0.000 A 
ATOM     14  N   UNL     1      44.099   3.494  12.585  0.00  0.00    +0.000 N 
ATOM     15  C   UNL     1      44.345   3.432  11.243  0.00  0.00    +0.000 A 
ATOM     16  N   UNL     1      44.014   2.400  10.451  0.00  0.00    +0.000 NA
ATOM     17  C   UNL     1      44.370   2.619   9.173  0.00  0.00    +0.000 A 
ATOM     18  N   UNL     1      44.989   3.696   8.657  0.00  0.00    +0.000 NA
ATOM     19  C   UNL     1      45.289   4.681   9.507  0.00  0.00    +0.000 A 
ATOM     20  C   UNL     1      44.981   4.604  10.865  0.00  0.00    +0.000 A 
ATOM     21  H   UNL     1      43.646   2.760  13.111  0.00  0.00    +0.000 HD
BRANCH  19  22
ATOM     22  O   UNL     1      45.924   5.749   8.946  0.00  0.00    +0.000 OA
ATOM     23  H   UNL     1      45.311   5.950   8.214  0.00  0.00    +0.000 HD
ENDBRANCH  19  22
ENDBRANCH   9  12
ENDBRANCH   7  10
ENDBRANCH   1   7
BRANCH   4  24
ATOM     24  C   UNL     1      50.994   7.640  17.955  0.00  0.00    +0.000 C 
BRANCH  24  25
ATOM     25  N   UNL     1      51.138   6.296  18.526  0.00  0.00    +0.000 NA
ATOM     26  H   UNL     1      51.899   6.314  19.202  0.00  0.00    +0.000 HD
BRANCH  25  27
ATOM     27  CA  UNL     1      49.890   5.835  19.195  0.00  0.00    +0.000 C 
BRANCH  27  28
ATOM     28  C   UNL     1      49.172   4.796  18.315  0.00  0.00    +0.000 A 
ATOM     29  C   UNL     1      47.830   4.923  17.911  0.00  0.00    +0.000 A 
ATOM     30  C   UNL     1      47.217   3.961  17.105  0.00  0.00    +0.000 A 
ATOM     31  C   UNL     1      47.936   2.850  16.676  0.00  0.00    +0.000 A 
ATOM     32  C   UNL     1      49.272   2.710  17.042  0.00  0.00    +0.000 A 
ATOM     33  C   UNL     1      49.885   3.678  17.846  0.00  0.00    +0.000 A 
ENDBRANCH  27  28
BRANCH  27  34
ATOM     34  C   UNL     1      50.125   5.350  20.660  0.00  0.00    +0.000 C 
BRANCH  34  35
ATOM     35  O   UNL     1      49.240   4.292  21.039  0.00  0.00    +0.000 OA
ATOM     36  H   UNL     1      49.273   4.208  22.009  0.00  0.00    +0.000 HD
ENDBRANCH  34  35
ENDBRANCH  27  34
ENDBRANCH  25  27
ENDBRANCH  24  25
ENDBRANCH   4  24
TORSDOF 10
ENDMDL
MODEL 9
REMARK VINA RESULT:    -6.702      4.068      6.595
REMARK INTER + INTRA:         -11.517
REMARK INTER:                 -10.495
REMARK INTRA:                  -1.022
REMARK UNBOUND:                -1.288
REMARK  Name = 
REMARK  10 active torsions:
REMARK  status: ('A' for Active; 'I' for Inactive)
REMARK    1  A    between atoms: C_2  and  C_22
REMARK    2  A    between atoms: N_3  and  C_4
REMARK    3  A    between atoms: C_4  and  C_5
REMARK    4  A    between atoms: C_8  and  C_9
REMARK    5  A    between atoms: C_9  and  N_10
REMARK    6  A    between atoms: N_10  and  CA_11
REMARK    7  A    between atoms: CA_11  and  C_12
REMARK    8  A    between atoms: CA_11  and  C_14
REMARK    9  A    between atoms: C_12  and  O_13
REMARK   10  A    between atoms: C_29  and  O_30
REMARK                            x       y       z     vdW  Elec       q    Type
REMARK                         _______ _______ _______ _____ _____    ______ ____
ROOT
ATOM      1  C   UNL     1      46.044   6.689  12.579  0.00  0.00    +0.000 A 
ATOM      2  C   UNL     1      46.593   7.889  13.057  0.00  0.00    +0.000 A 
ATOM      3  C   UNL     1      46.057   9.125  12.671  0.00  0.00    +0.000 A 
ATOM      4  C   UNL     1      44.965   9.182  11.798  0.00  0.00    +0.000 A 
ATOM      5  C   UNL     1      44.388   7.973  11.368  0.00  0.00    +0.000 A 
ATOM      6  C   UNL     1      44.919   6.743  11.753  0.00  0.00    +0.000 A 
ENDROOT
BRANCH   1   7
ATOM      7  C   UNL     1      46.618   5.357  12.981  0.00  0.00    +0.000 C 
BRANCH   7  10
ATOM      8  O   UNL     1      47.364   3.089  14.424  0.00  0.00    +0.000 OA
ATOM      9  C   UNL     1      47.328   4.171  15.003  0.00  0.00    +0.000 C 
ATOM     10  N   UNL     1      46.913   5.324  14.389  0.00  0.00    +0.000 N 
ATOM     11  H   UNL     1      47.021   6.210  14.868  0.00  0.00    +0.000 HD
BRANCH   9  12
ATOM     12  C   UNL     1      47.702   4.306  16.409  0.00  0.00    +0.000 A 
ATOM     13  C   UNL     1      47.143   3.538  17.424  0.00  0.00    +0.000 A 
ATOM     14  N   UNL     1      47.708   3.903  18.616  0.00  0.00    +0.000 N 
ATOM     15  C   UNL     1      48.642   4.874  18.399  0.00  0.00    +0.000 A 
ATOM     16  N   UNL     1      49.398   5.437  19.354  0.00  0.00    +0.000 NA
ATOM     17  C   UNL     1      50.239   6.357  18.847  0.00  0.00    +0.000 A 
ATOM     18  N   UNL     1      50.373   6.741  17.565  0.00  0.00    +0.000 NA
ATOM     19  C   UNL     1      49.585   6.138  16.672  0.00  0.00    +0.000 A 
ATOM     20  C   UNL     1      48.664   5.159  17.042  0.00  0.00    +0.000 A 
ATOM     21  H   UNL     1      47.494   3.518  19.526  0.00  0.00    +0.000 HD
BRANCH  19  22
ATOM     22  O   UNL     1      49.746   6.562  15.386  0.00  0.00    +0.000 OA
ATOM     23  H   UNL     1      49.208   5.899  14.915  0.00  0.00    +0.000 HD
ENDBRANCH  19  22
ENDBRANCH   9  12
ENDBRANCH   7  10
ENDBRANCH   1   7
BRANCH   4  24
ATOM     24  C   UNL     1      44.315  10.475  11.363  0.00  0.00    +0.000 C 
BRANCH  24  25
ATOM     25  N   UNL     1      43.012  10.754  11.977  0.00  0.00    +0.000 NA
ATOM     26  H   UNL     1      42.982  11.739  12.232  0.00  0.00    +0.000 HD
BRANCH  25  27
ATOM     27  CA  UNL     1      41.882  10.443  11.059  0.00  0.00    +0.000 C 
BRANCH  27  28
ATOM     28  C   UNL     1      40.545  10.820  11.720  0.00  0.00    +0.000 A 
ATOM     29  C   UNL     1      40.432  11.789  12.734  0.00  0.00    +0.000 A 
ATOM     30  C   UNL     1      39.197  12.109  13.304  0.00  0.00    +0.000 A 
ATOM     31  C   UNL     1      38.041  11.471  12.865  0.00  0.00    +0.000 A 
ATOM     32  C   UNL     1      38.120  10.523  11.847  0.00  0.00    +0.000 A 
ATOM     33  C   UNL     1      39.358  10.209  11.276  0.00  0.00    +0.000 A 
ENDBRANCH  27  28
BRANCH  27  34
ATOM     34  C   UNL     1      42.064  11.058   9.636  0.00  0.00    +0.000 C 
BRANCH  34  35
ATOM     35  O   UNL     1      41.567  12.397   9.546  0.00  0.00    +0.000 OA
ATOM     36  H   UNL     1      40.910  12.425   8.827  0.00  0.00    +0.000 HD
ENDBRANCH  34  35
ENDBRANCH  27  34
ENDBRANCH  25  27
ENDBRANCH  24  25
ENDBRANCH   4  24
TORSDOF 10
ENDMDL
