MODEL 1
REMARK VINA RESULT:    -7.435      0.000      0.000
REMARK INTER + INTRA:         -11.090
REMARK INTER:                 -10.043
REMARK INTRA:                  -1.047
REMARK UNBOUND:                -1.047
REMARK  Name = 
REMARK  6 active torsions:
REMARK  status: ('A' for Active; 'I' for Inactive)
REMARK    1  A    between atoms: C_2  and  C_20
REMARK    2  A    between atoms: N_3  and  C_4
REMARK    3  A    between atoms: C_4  and  C_5
REMARK    4  A    between atoms: C_8  and  C_9
REMARK    5  A    between atoms: C_9  and  C_10
REMARK    6  A    between atoms: C_10  and  C_11
REMARK                            x       y       z     vdW  Elec       q    Type
REMARK                         _______ _______ _______ _____ _____    ______ ____
ROOT
ATOM      1  C   UNL     1      47.848   4.567  16.802  0.00  0.00    +0.000 C 
ENDROOT
BRANCH   1   2
ATOM      2  C   UNL     1      47.509   5.005  15.401  0.00  0.00    +0.000 A 
ATOM      3  C   UNL     1      46.594   4.273  14.634  0.00  0.00    +0.000 A 
ATOM      4  C   UNL     1      46.235   4.697  13.352  0.00  0.00    +0.000 A 
ATOM      5  C   UNL     1      46.785   5.865  12.808  0.00  0.00    +0.000 A 
ATOM      6  C   UNL     1      47.722   6.581  13.565  0.00  0.00    +0.000 A 
ATOM      7  C   UNL     1      48.088   6.152  14.843  0.00  0.00    +0.000 A 
BRANCH   5   8
ATOM      8  C   UNL     1      46.421   6.329  11.415  0.00  0.00    +0.000 C 
BRANCH   8   9
ATOM      9  C   UNL     1      45.061   5.808  10.932  0.00  0.00    +0.000 C 
BRANCH   9  10
ATOM     10  C   UNL     1      45.149   4.698   9.903  0.00  0.00    +0.000 A 
ATOM     11  N   UNL     1      45.850   4.956   8.764  0.00  0.00    +0.000 NA
ATOM     12  C   UNL     1      45.939   3.975   7.838  0.00  0.00    +0.000 A 
ATOM     13  C   UNL     1      45.359   2.727   7.983  0.00  0.00    +0.000 A 
ATOM     14  C   UNL     1      44.645   2.469   9.148  0.00  0.00    +0.000 A 
ATOM     15  C   UNL     1      44.535   3.460  10.123  0.00  0.00    +0.000 A 
ATOM     16 CL   UNL     1      43.643   3.102  11.555  0.00  0.00    +0.000 Cl
ENDBRANCH   9  10
ENDBRANCH   8   9
ENDBRANCH   5   8
ENDBRANCH   1   2
BRANCH   1  19
ATOM     17  O   UNL     1      49.504   5.271  18.972  0.00  0.00    +0.000 OA
ATOM     18  C   UNL     1      49.971   4.595  18.060  0.00  0.00    +0.000 C 
ATOM     19  N   UNL     1      49.247   4.248  16.950  0.00  0.00    +0.000 N 
ATOM     20  H   UNL     1      49.620   3.563  16.302  0.00  0.00    +0.000 HD
BRANCH  18  21
ATOM     21  C   UNL     1      51.371   4.152  18.082  0.00  0.00    +0.000 A 
ATOM     22  C   UNL     1      52.375   5.028  18.466  0.00  0.00    +0.000 A 
ATOM     23  S   UNL     1      53.928   4.323  18.472  0.00  0.00    +0.000 S 
ATOM     24  C   UNL     1      53.305   2.812  17.988  0.00  0.00    +0.000 A 
ATOM     25  N   UNL     1      54.115   1.730  17.850  0.00  0.00    +0.000 NA
ATOM     26  C   UNL     1      53.497   0.643  17.518  0.00  0.00    +0.000 A 
ATOM     27  N   UNL     1      52.150   0.547  17.291  0.00  0.00    +0.000 N 
ATOM     28  C   UNL     1      51.315   1.634  17.327  0.00  0.00    +0.000 A 
ATOM     29  O   UNL     1      50.147   1.543  16.945  0.00  0.00    +0.000 OA
ATOM     30  C   UNL     1      51.939   2.862  17.776  0.00  0.00    +0.000 A 
ATOM     31  H   UNL     1      51.736  -0.322  16.987  0.00  0.00    +0.000 HD
ENDBRANCH  18  21
ENDBRANCH   1  19
TORSDOF 6
ENDMDL
MODEL 2
REMARK VINA RESULT:    -7.338      3.453      4.719
REMARK INTER + INTRA:         -10.959
REMARK INTER:                 -10.132
REMARK INTRA:                  -0.827
REMARK UNBOUND:                -1.047
REMARK  Name = 
REMARK  6 active torsions:
REMARK  status: ('A' for Active; 'I' for Inactive)
REMARK    1  A    between atoms: C_2  and  C_20
REMARK    2  A    between atoms: N_3  and  C_4
REMARK    3  A    between atoms: C_4  and  C_5
REMARK    4  A    between atoms: C_8  and  C_9
REMARK    5  A    between atoms: C_9  and  C_10
REMARK    6  A    between atoms: C_10  and  C_11
REMARK                            x       y       z     vdW  Elec       q    Type
REMARK                         _______ _______ _______ _____ _____    ______ ____
ROOT
ATOM      1  C   UNL     1      46.733   6.621  13.256  0.00  0.00    +0.000 C 
ENDROOT
BRANCH   1   2
ATOM      2  C   UNL     1      46.180   5.719  12.184  0.00  0.00    +0.000 A 
ATOM      3  C   UNL     1      45.660   4.462  12.517  0.00  0.00    +0.000 A 
ATOM      4  C   UNL     1      45.100   3.637  11.538  0.00  0.00    +0.000 A 
ATOM      5  C   UNL     1      45.050   4.052  10.201  0.00  0.00    +0.000 A 
ATOM      6  C   UNL     1      45.596   5.298   9.863  0.00  0.00    +0.000 A 
ATOM      7  C   UNL     1      46.164   6.118  10.841  0.00  0.00    +0.000 A 
BRANCH   5   8
ATOM      8  C   UNL     1      44.464   3.165   9.125  0.00  0.00    +0.000 C 
BRANCH   8   9
ATOM      9  C   UNL     1      45.335   1.945   8.797  0.00  0.00    +0.000 C 
BRANCH   9  10
ATOM     10  C   UNL     1      46.140   2.081   7.519  0.00  0.00    +0.000 A 
ATOM     11  N   UNL     1      46.154   3.303   6.916  0.00  0.00    +0.000 NA
ATOM     12  C   UNL     1      46.868   3.440   5.776  0.00  0.00    +0.000 A 
ATOM     13  C   UNL     1      47.585   2.413   5.191  0.00  0.00    +0.000 A 
ATOM     14  C   UNL     1      47.568   1.168   5.811  0.00  0.00    +0.000 A 
ATOM     15  C   UNL     1      46.841   0.993   6.989  0.00  0.00    +0.000 A 
ATOM     16 CL   UNL     1      46.845  -0.565   7.729  0.00  0.00    +0.000 Cl
ENDBRANCH   9  10
ENDBRANCH   8   9
ENDBRANCH   5   8
ENDBRANCH   1   2
BRANCH   1  19
ATOM     17  O   UNL     1      49.177   6.499  14.655  0.00  0.00    +0.000 OA
ATOM     18  C   UNL     1      48.192   5.941  15.126  0.00  0.00    +0.000 C 
ATOM     19  N   UNL     1      46.979   5.915  14.489  0.00  0.00    +0.000 N 
ATOM     20  H   UNL     1      46.159   5.580  14.984  0.00  0.00    +0.000 HD
BRANCH  18  21
ATOM     21  C   UNL     1      48.267   5.212  16.400  0.00  0.00    +0.000 A 
ATOM     22  C   UNL     1      48.015   3.850  16.441  0.00  0.00    +0.000 A 
ATOM     23  S   UNL     1      48.195   3.172  17.996  0.00  0.00    +0.000 S 
ATOM     24  C   UNL     1      48.644   4.675  18.662  0.00  0.00    +0.000 A 
ATOM     25  N   UNL     1      48.988   4.789  19.971  0.00  0.00    +0.000 NA
ATOM     26  C   UNL     1      49.344   5.982  20.324  0.00  0.00    +0.000 A 
ATOM     27  N   UNL     1      49.368   7.070  19.494  0.00  0.00    +0.000 N 
ATOM     28  C   UNL     1      48.938   7.016  18.193  0.00  0.00    +0.000 A 
ATOM     29  O   UNL     1      48.806   8.046  17.530  0.00  0.00    +0.000 OA
ATOM     30  C   UNL     1      48.606   5.687  17.719  0.00  0.00    +0.000 A 
ATOM     31  H   UNL     1      49.611   7.984  19.843  0.00  0.00    +0.000 HD
ENDBRANCH  18  21
ENDBRANCH   1  19
TORSDOF 6
ENDMDL
MODEL 3
REMARK VINA RESULT:    -7.318      2.884      3.918
REMARK INTER + INTRA:         -10.932
REMARK INTER:                 -10.194
REMARK INTRA:                  -0.738
REMARK UNBOUND:                -1.047
REMARK  Name = 
REMARK  6 active torsions:
REMARK  status: ('A' for Active; 'I' for Inactive)
REMARK    1  A    between atoms: C_2  and  C_20
REMARK    2  A    between atoms: N_3  and  C_4
REMARK    3  A    between atoms: C_4  and  C_5
REMARK    4  A    between atoms: C_8  and  C_9
REMARK    5  A    between atoms: C_9  and  C_10
REMARK    6  A    between atoms: C_10  and  C_11
REMARK                            x       y       z     vdW  Elec       q    Type
REMARK                         _______ _______ _______ _____ _____    ______ ____
ROOT
ATOM      1  C   UNL     1      48.378   6.946  13.535  0.00  0.00    +0.000 C 
ENDROOT
BRANCH   1   2
ATOM      2  C   UNL     1      47.275   6.238  12.792  0.00  0.00    +0.000 A 
ATOM      3  C   UNL     1      46.758   6.781  11.609  0.00  0.00    +0.000 A 
ATOM      4  C   UNL     1      45.769   6.108  10.886  0.00  0.00    +0.000 A 
ATOM      5  C   UNL     1      45.275   4.876  11.332  0.00  0.00    +0.000 A 
ATOM      6  C   UNL     1      45.773   4.347  12.530  0.00  0.00    +0.000 A 
ATOM      7  C   UNL     1      46.754   5.024  13.258  0.00  0.00    +0.000 A 
BRANCH   5   8
ATOM      8  C   UNL     1      44.193   4.142  10.571  0.00  0.00    +0.000 C 
BRANCH   8   9
ATOM      9  C   UNL     1      44.232   4.393   9.057  0.00  0.00    +0.000 C 
BRANCH   9  10
ATOM     10  C   UNL     1      45.372   3.696   8.341  0.00  0.00    +0.000 A 
ATOM     11  N   UNL     1      46.261   4.480   7.669  0.00  0.00    +0.000 NA
ATOM     12  C   UNL     1      47.283   3.873   7.026  0.00  0.00    +0.000 A 
ATOM     13  C   UNL     1      47.477   2.504   7.014  0.00  0.00    +0.000 A 
ATOM     14  C   UNL     1      46.567   1.708   7.701  0.00  0.00    +0.000 A 
ATOM     15  C   UNL     1      45.501   2.304   8.375  0.00  0.00    +0.000 A 
ATOM     16 CL   UNL     1      44.394   1.284   9.217  0.00  0.00    +0.000 Cl
ENDBRANCH   9  10
ENDBRANCH   8   9
ENDBRANCH   5   8
ENDBRANCH   1   2
BRANCH   1  19
ATOM     17  O   UNL     1      50.398   6.738  15.490  0.00  0.00    +0.000 OA
ATOM     18  C   UNL     1      49.229   6.846  15.848  0.00  0.00    +0.000 C 
ATOM     19  N   UNL     1      48.185   6.908  14.963  0.00  0.00    +0.000 N 
ATOM     20  H   UNL     1      47.259   7.153  15.297  0.00  0.00    +0.000 HD
BRANCH  18  21
ATOM     21  C   UNL     1      48.870   6.865  17.273  0.00  0.00    +0.000 A 
ATOM     22  C   UNL     1      48.423   8.037  17.864  0.00  0.00    +0.000 A 
ATOM     23  S   UNL     1      48.011   7.854  19.509  0.00  0.00    +0.000 S 
ATOM     24  C   UNL     1      48.391   6.194  19.478  0.00  0.00    +0.000 A 
ATOM     25  N   UNL     1      48.213   5.411  20.575  0.00  0.00    +0.000 NA
ATOM     26  C   UNL     1      48.504   4.164  20.391  0.00  0.00    +0.000 A 
ATOM     27  N   UNL     1      48.976   3.636  19.220  0.00  0.00    +0.000 N 
ATOM     28  C   UNL     1      49.259   4.407  18.122  0.00  0.00    +0.000 A 
ATOM     29  O   UNL     1      49.846   3.928  17.150  0.00  0.00    +0.000 OA
ATOM     30  C   UNL     1      48.873   5.798  18.243  0.00  0.00    +0.000 A 
ATOM     31  H   UNL     1      49.230   2.661  19.155  0.00  0.00    +0.000 HD
ENDBRANCH  18  21
ENDBRANCH   1  19
TORSDOF 6
ENDMDL
MODEL 4
REMARK VINA RESULT:    -7.268      3.986      8.923
REMARK INTER + INTRA:         -10.865
REMARK INTER:                  -9.615
REMARK INTRA:                  -1.250
REMARK UNBOUND:                -1.047
REMARK  Name = 
REMARK  6 active torsions:
REMARK  status: ('A' for Active; 'I' for Inactive)
REMARK    1  A    between atoms: C_2  and  C_20
REMARK    2  A    between atoms: N_3  and  C_4
REMARK    3  A    between atoms: C_4  and  C_5
REMARK    4  A    between atoms: C_8  and  C_9
REMARK    5  A    between atoms: C_9  and  C_10
REMARK    6  A    between atoms: C_10  and  C_11
REMARK                            x       y       z     vdW  Elec       q    Type
REMARK                         _______ _______ _______ _____ _____    ______ ____
ROOT
ATOM      1  C   UNL     1      48.538   7.704  12.228  0.00  0.00    +0.000 C 
ENDROOT
BRANCH   1   2
ATOM      2  C   UNL     1      49.003   7.356  13.618  0.00  0.00    +0.000 A 
ATOM      3  C   UNL     1      50.229   7.837  14.093  0.00  0.00    +0.000 A 
ATOM      4  C   UNL     1      50.648   7.562  15.397  0.00  0.00    +0.000 A 
ATOM      5  C   UNL     1      49.849   6.797  16.255  0.00  0.00    +0.000 A 
ATOM      6  C   UNL     1      48.635   6.291  15.770  0.00  0.00    +0.000 A 
ATOM      7  C   UNL     1      48.221   6.559  14.463  0.00  0.00    +0.000 A 
BRANCH   5   8
ATOM      8  C   UNL     1      50.295   6.473  17.664  0.00  0.00    +0.000 C 
BRANCH   8   9
ATOM      9  C   UNL     1      49.650   5.202  18.234  0.00  0.00    +0.000 C 
BRANCH   9  10
ATOM     10  C   UNL     1      50.430   3.932  17.956  0.00  0.00    +0.000 A 
ATOM     11  N   UNL     1      51.733   3.899  18.352  0.00  0.00    +0.000 NA
ATOM     12  C   UNL     1      52.441   2.772  18.112  0.00  0.00    +0.000 A 
ATOM     13  C   UNL     1      51.916   1.654  17.490  0.00  0.00    +0.000 A 
ATOM     14  C   UNL     1      50.585   1.693  17.088  0.00  0.00    +0.000 A 
ATOM     15  C   UNL     1      49.828   2.840  17.321  0.00  0.00    +0.000 A 
ATOM     16 CL   UNL     1      48.181   2.851  16.810  0.00  0.00    +0.000 Cl
ENDBRANCH   9  10
ENDBRANCH   8   9
ENDBRANCH   5   8
ENDBRANCH   1   2
BRANCH   1  19
ATOM     17  O   UNL     1      45.757   7.835  11.781  0.00  0.00    +0.000 OA
ATOM     18  C   UNL     1      46.371   6.831  11.433  0.00  0.00    +0.000 C 
ATOM     19  N   UNL     1      47.713   6.669  11.654  0.00  0.00    +0.000 N 
ATOM     20  H   UNL     1      48.204   5.899  11.213  0.00  0.00    +0.000 HD
BRANCH  18  21
ATOM     21  C   UNL     1      45.681   5.702  10.794  0.00  0.00    +0.000 A 
ATOM     22  C   UNL     1      45.837   5.468   9.436  0.00  0.00    +0.000 A 
ATOM     23  S   UNL     1      44.998   4.089   8.884  0.00  0.00    +0.000 S 
ATOM     24  C   UNL     1      44.420   3.743  10.449  0.00  0.00    +0.000 A 
ATOM     25  N   UNL     1      43.662   2.642  10.691  0.00  0.00    +0.000 NA
ATOM     26  C   UNL     1      43.331   2.487  11.932  0.00  0.00    +0.000 A 
ATOM     27  N   UNL     1      43.672   3.343  12.945  0.00  0.00    +0.000 N 
ATOM     28  C   UNL     1      44.353   4.513  12.727  0.00  0.00    +0.000 A 
ATOM     29  O   UNL     1      44.486   5.342  13.629  0.00  0.00    +0.000 OA
ATOM     30  C   UNL     1      44.821   4.697  11.368  0.00  0.00    +0.000 A 
ATOM     31  H   UNL     1      43.341   3.191  13.886  0.00  0.00    +0.000 HD
ENDBRANCH  18  21
ENDBRANCH   1  19
TORSDOF 6
ENDMDL
MODEL 5
REMARK VINA RESULT:    -7.145      3.580      5.321
REMARK INTER + INTRA:         -10.699
REMARK INTER:                  -9.592
REMARK INTRA:                  -1.107
REMARK UNBOUND:                -1.047
REMARK  Name = 
REMARK  6 active torsions:
REMARK  status: ('A' for Active; 'I' for Inactive)
REMARK    1  A    between atoms: C_2  and  C_20
REMARK    2  A    between atoms: N_3  and  C_4
REMARK    3  A    between atoms: C_4  and  C_5
REMARK    4  A    between atoms: C_8  and  C_9
REMARK    5  A    between atoms: C_9  and  C_10
REMARK    6  A    between atoms: C_10  and  C_11
REMARK                            x       y       z     vdW  Elec       q    Type
REMARK                         _______ _______ _______ _____ _____    ______ ____
ROOT
ATOM      1  C   UNL     1      47.823   4.610  16.192  0.00  0.00    +0.000 C 
ENDROOT
BRANCH   1   2
ATOM      2  C   UNL     1      47.345   5.037  14.828  0.00  0.00    +0.000 A 
ATOM      3  C   UNL     1      46.388   4.276  14.146  0.00  0.00    +0.000 A 
ATOM      4  C   UNL     1      45.901   4.689  12.902  0.00  0.00    +0.000 A 
ATOM      5  C   UNL     1      46.364   5.872  12.313  0.00  0.00    +0.000 A 
ATOM      6  C   UNL     1      47.344   6.617  12.983  0.00  0.00    +0.000 A 
ATOM      7  C   UNL     1      47.837   6.200  14.222  0.00  0.00    +0.000 A 
BRANCH   5   8
ATOM      8  C   UNL     1      45.862   6.324  10.959  0.00  0.00    +0.000 C 
BRANCH   8   9
ATOM      9  C   UNL     1      44.712   5.465  10.416  0.00  0.00    +0.000 C 
BRANCH   9  10
ATOM     10  C   UNL     1      45.153   4.359   9.477  0.00  0.00    +0.000 A 
ATOM     11  N   UNL     1      45.941   4.710   8.422  0.00  0.00    +0.000 NA
ATOM     12  C   UNL     1      46.342   3.734   7.577  0.00  0.00    +0.000 A 
ATOM     13  C   UNL     1      45.999   2.403   7.724  0.00  0.00    +0.000 A 
ATOM     14  C   UNL     1      45.195   2.049   8.802  0.00  0.00    +0.000 A 
ATOM     15  C   UNL     1      44.764   3.032   9.692  0.00  0.00    +0.000 A 
ATOM     16 CL   UNL     1      43.769   2.555  11.018  0.00  0.00    +0.000 Cl
ENDBRANCH   9  10
ENDBRANCH   8   9
ENDBRANCH   5   8
ENDBRANCH   1   2
BRANCH   1  19
ATOM     17  O   UNL     1      49.725   6.170  17.570  0.00  0.00    +0.000 OA
ATOM     18  C   UNL     1      48.532   6.346  17.795  0.00  0.00    +0.000 C 
ATOM     19  N   UNL     1      47.547   5.602  17.202  0.00  0.00    +0.000 N 
ATOM     20  H   UNL     1      46.578   5.885  17.297  0.00  0.00    +0.000 HD
BRANCH  18  21
ATOM     21  C   UNL     1      48.083   7.352  18.768  0.00  0.00    +0.000 A 
ATOM     22  C   UNL     1      47.902   7.005  20.098  0.00  0.00    +0.000 A 
ATOM     23  S   UNL     1      47.423   8.312  21.083  0.00  0.00    +0.000 S 
ATOM     24  C   UNL     1      47.469   9.394  19.767  0.00  0.00    +0.000 A 
ATOM     25  N   UNL     1      47.207  10.717  19.935  0.00  0.00    +0.000 NA
ATOM     26  C   UNL     1      47.319  11.422  18.856  0.00  0.00    +0.000 A 
ATOM     27  N   UNL     1      47.649  10.921  17.625  0.00  0.00    +0.000 N 
ATOM     28  C   UNL     1      47.827   9.581  17.396  0.00  0.00    +0.000 A 
ATOM     29  O   UNL     1      47.947   9.149  16.248  0.00  0.00    +0.000 OA
ATOM     30  C   UNL     1      47.795   8.753  18.585  0.00  0.00    +0.000 A 
ATOM     31  H   UNL     1      47.674  11.518  16.812  0.00  0.00    +0.000 HD
ENDBRANCH  18  21
ENDBRANCH   1  19
TORSDOF 6
ENDMDL
MODEL 6
REMARK VINA RESULT:    -6.996      4.120      8.370
REMARK INTER + INTRA:         -10.497
REMARK INTER:                  -8.799
REMARK INTRA:                  -1.699
REMARK UNBOUND:                -1.047
REMARK  Name = 
REMARK  6 active torsions:
REMARK  status: ('A' for Active; 'I' for Inactive)
REMARK    1  A    between atoms: C_2  and  C_20
REMARK    2  A    between atoms: N_3  and  C_4
REMARK    3  A    between atoms: C_4  and  C_5
REMARK    4  A    between atoms: C_8  and  C_9
REMARK    5  A    between atoms: C_9  and  C_10
REMARK    6  A    between atoms: C_10  and  C_11
REMARK                            x       y       z     vdW  Elec       q    Type
REMARK                         _______ _______ _______ _____ _____    ______ ____
ROOT
ATOM      1  C   UNL     1      48.106   8.981  13.992  0.00  0.00    +0.000 C 
ENDROOT
BRANCH   1   2
ATOM      2  C   UNL     1      48.764   8.325  15.177  0.00  0.00    +0.000 A 
ATOM      3  C   UNL     1      49.747   7.346  14.987  0.00  0.00    +0.000 A 
ATOM      4  C   UNL     1      50.399   6.766  16.079  0.00  0.00    +0.000 A 
ATOM      5  C   UNL     1      50.080   7.153  17.386  0.00  0.00    +0.000 A 
ATOM      6  C   UNL     1      49.076   8.112  17.577  0.00  0.00    +0.000 A 
ATOM      7  C   UNL     1      48.418   8.684  16.486  0.00  0.00    +0.000 A 
BRANCH   5   8
ATOM      8  C   UNL     1      50.763   6.522  18.580  0.00  0.00    +0.000 C 
BRANCH   8   9
ATOM      9  C   UNL     1      49.887   5.500  19.316  0.00  0.00    +0.000 C 
BRANCH   9  10
ATOM     10  C   UNL     1      49.277   4.442  18.417  0.00  0.00    +0.000 A 
ATOM     11  N   UNL     1      50.117   3.507  17.892  0.00  0.00    +0.000 NA
ATOM     12  C   UNL     1      49.587   2.557  17.089  0.00  0.00    +0.000 A 
ATOM     13  C   UNL     1      48.243   2.481  16.774  0.00  0.00    +0.000 A 
ATOM     14  C   UNL     1      47.390   3.437  17.313  0.00  0.00    +0.000 A 
ATOM     15  C   UNL     1      47.905   4.431  18.145  0.00  0.00    +0.000 A 
ATOM     16 CL   UNL     1      46.815   5.599  18.796  0.00  0.00    +0.000 Cl
ENDBRANCH   9  10
ENDBRANCH   8   9
ENDBRANCH   5   8
ENDBRANCH   1   2
BRANCH   1  19
ATOM     17  O   UNL     1      47.980   7.149  11.852  0.00  0.00    +0.000 OA
ATOM     18  C   UNL     1      46.972   7.355  12.522  0.00  0.00    +0.000 C 
ATOM     19  N   UNL     1      46.937   8.261  13.549  0.00  0.00    +0.000 N 
ATOM     20  H   UNL     1      46.136   8.284  14.171  0.00  0.00    +0.000 HD
BRANCH  18  21
ATOM     21  C   UNL     1      45.709   6.666  12.226  0.00  0.00    +0.000 A 
ATOM     22  C   UNL     1      44.646   7.364  11.672  0.00  0.00    +0.000 A 
ATOM     23  S   UNL     1      43.283   6.389  11.357  0.00  0.00    +0.000 S 
ATOM     24  C   UNL     1      44.079   4.993  11.925  0.00  0.00    +0.000 A 
ATOM     25  N   UNL     1      43.476   3.776  11.887  0.00  0.00    +0.000 NA
ATOM     26  C   UNL     1      44.216   2.804  12.313  0.00  0.00    +0.000 A 
ATOM     27  N   UNL     1      45.491   2.942  12.791  0.00  0.00    +0.000 N 
ATOM     28  C   UNL     1      46.098   4.164  12.934  0.00  0.00    +0.000 A 
ATOM     29  O   UNL     1      47.172   4.267  13.530  0.00  0.00    +0.000 OA
ATOM     30  C   UNL     1      45.348   5.280  12.396  0.00  0.00    +0.000 A 
ATOM     31  H   UNL     1      45.999   2.149  13.154  0.00  0.00    +0.000 HD
ENDBRANCH  18  21
ENDBRANCH   1  19
TORSDOF 6
ENDMDL
MODEL 7
REMARK VINA RESULT:    -6.930      4.933      9.871
REMARK INTER + INTRA:         -10.407
REMARK INTER:                  -9.333
REMARK INTRA:                  -1.074
REMARK UNBOUND:                -1.047
REMARK  Name = 
REMARK  6 active torsions:
REMARK  status: ('A' for Active; 'I' for Inactive)
REMARK    1  A    between atoms: C_2  and  C_20
REMARK    2  A    between atoms: N_3  and  C_4
REMARK    3  A    between atoms: C_4  and  C_5
REMARK    4  A    between atoms: C_8  and  C_9
REMARK    5  A    between atoms: C_9  and  C_10
REMARK    6  A    between atoms: C_10  and  C_11
REMARK                            x       y       z     vdW  Elec       q    Type
REMARK                         _______ _______ _______ _____ _____    ______ ____
ROOT
ATOM      1  C   UNL     1      47.722   3.709  16.342  0.00  0.00    +0.000 C 
ENDROOT
BRANCH   1   2
ATOM      2  C   UNL     1      47.875   4.291  17.723  0.00  0.00    +0.000 A 
ATOM      3  C   UNL     1      48.973   3.942  18.519  0.00  0.00    +0.000 A 
ATOM      4  C   UNL     1      49.150   4.514  19.782  0.00  0.00    +0.000 A 
ATOM      5  C   UNL     1      48.231   5.447  20.277  0.00  0.00    +0.000 A 
ATOM      6  C   UNL     1      47.117   5.775  19.492  0.00  0.00    +0.000 A 
ATOM      7  C   UNL     1      46.935   5.196  18.233  0.00  0.00    +0.000 A 
BRANCH   5   8
ATOM      8  C   UNL     1      48.399   6.062  21.649  0.00  0.00    +0.000 C 
BRANCH   8   9
ATOM      9  C   UNL     1      48.989   7.479  21.617  0.00  0.00    +0.000 C 
BRANCH   9  10
ATOM     10  C   UNL     1      47.987   8.562  21.265  0.00  0.00    +0.000 A 
ATOM     11  N   UNL     1      47.085   8.914  22.223  0.00  0.00    +0.000 NA
ATOM     12  C   UNL     1      46.186   9.879  21.924  0.00  0.00    +0.000 A 
ATOM     13  C   UNL     1      46.133  10.527  20.703  0.00  0.00    +0.000 A 
ATOM     14  C   UNL     1      47.057  10.164  19.729  0.00  0.00    +0.000 A 
ATOM     15  C   UNL     1      47.998   9.172  20.006  0.00  0.00    +0.000 A 
ATOM     16 CL   UNL     1      49.128   8.749  18.773  0.00  0.00    +0.000 Cl
ENDBRANCH   9  10
ENDBRANCH   8   9
ENDBRANCH   5   8
ENDBRANCH   1   2
BRANCH   1  19
ATOM     17  O   UNL     1      46.954   3.174  13.683  0.00  0.00    +0.000 OA
ATOM     18  C   UNL     1      46.749   4.290  14.151  0.00  0.00    +0.000 C 
ATOM     19  N   UNL     1      47.131   4.644  15.418  0.00  0.00    +0.000 N 
ATOM     20  H   UNL     1      46.803   5.518  15.815  0.00  0.00    +0.000 HD
BRANCH  18  21
ATOM     21  C   UNL     1      46.114   5.345  13.349  0.00  0.00    +0.000 A 
ATOM     22  C   UNL     1      46.821   6.491  13.019  0.00  0.00    +0.000 A 
ATOM     23  S   UNL     1      45.936   7.580  12.048  0.00  0.00    +0.000 S 
ATOM     24  C   UNL     1      44.586   6.540  12.014  0.00  0.00    +0.000 A 
ATOM     25  N   UNL     1      43.474   6.855  11.299  0.00  0.00    +0.000 NA
ATOM     26  C   UNL     1      42.548   5.952  11.333  0.00  0.00    +0.000 A 
ATOM     27  N   UNL     1      42.625   4.778  12.032  0.00  0.00    +0.000 N 
ATOM     28  C   UNL     1      43.688   4.467  12.840  0.00  0.00    +0.000 A 
ATOM     29  O   UNL     1      43.645   3.490  13.589  0.00  0.00    +0.000 OA
ATOM     30  C   UNL     1      44.792   5.403  12.776  0.00  0.00    +0.000 A 
ATOM     31  H   UNL     1      41.847   4.136  12.056  0.00  0.00    +0.000 HD
ENDBRANCH  18  21
ENDBRANCH   1  19
TORSDOF 6
ENDMDL
MODEL 8
REMARK VINA RESULT:    -6.927      3.058      4.225
REMARK INTER + INTRA:         -10.404
REMARK INTER:                  -9.258
REMARK INTRA:                  -1.146
REMARK UNBOUND:                -1.047
REMARK  Name = 
REMARK  6 active torsions:
REMARK  status: ('A' for Active; 'I' for Inactive)
REMARK    1  A    between atoms: C_2  and  C_20
REMARK    2  A    between atoms: N_3  and  C_4
REMARK    3  A    between atoms: C_4  and  C_5
REMARK    4  A    between atoms: C_8  and  C_9
REMARK    5  A    between atoms: C_9  and  C_10
REMARK    6  A    between atoms: C_10  and  C_11
REMARK                            x       y       z     vdW  Elec       q    Type
REMARK                         _______ _______ _______ _____ _____    ______ ____
ROOT
ATOM      1  C   UNL     1      47.349   4.295  15.702  0.00  0.00    +0.000 C 
ENDROOT
BRANCH   1   2
ATOM      2  C   UNL     1      46.899   4.739  14.335  0.00  0.00    +0.000 A 
ATOM      3  C   UNL     1      45.901   4.030  13.655  0.00  0.00    +0.000 A 
ATOM      4  C   UNL     1      45.441   4.461  12.408  0.00  0.00    +0.000 A 
ATOM      5  C   UNL     1      45.971   5.612  11.813  0.00  0.00    +0.000 A 
ATOM      6  C   UNL     1      46.990   6.305  12.480  0.00  0.00    +0.000 A 
ATOM      7  C   UNL     1      47.456   5.869  13.723  0.00  0.00    +0.000 A 
BRANCH   5   8
ATOM      8  C   UNL     1      45.498   6.083  10.455  0.00  0.00    +0.000 C 
BRANCH   8   9
ATOM      9  C   UNL     1      44.583   5.077   9.743  0.00  0.00    +0.000 C 
BRANCH   9  10
ATOM     10  C   UNL     1      45.320   4.051   8.906  0.00  0.00    +0.000 A 
ATOM     11  N   UNL     1      46.158   4.518   7.938  0.00  0.00    +0.000 NA
ATOM     12  C   UNL     1      46.823   3.614   7.184  0.00  0.00    +0.000 A 
ATOM     13  C   UNL     1      46.701   2.246   7.341  0.00  0.00    +0.000 A 
ATOM     14  C   UNL     1      45.845   1.774   8.330  0.00  0.00    +0.000 A 
ATOM     15  C   UNL     1      45.144   2.680   9.126  0.00  0.00    +0.000 A 
ATOM     16 CL   UNL     1      44.093   2.058  10.343  0.00  0.00    +0.000 Cl
ENDBRANCH   9  10
ENDBRANCH   8   9
ENDBRANCH   5   8
ENDBRANCH   1   2
BRANCH   1  19
ATOM     17  O   UNL     1      49.860   4.319  16.985  0.00  0.00    +0.000 OA
ATOM     18  C   UNL     1      49.156   5.324  17.031  0.00  0.00    +0.000 C 
ATOM     19  N   UNL     1      47.906   5.379  16.472  0.00  0.00    +0.000 N 
ATOM     20  H   UNL     1      47.429   6.271  16.398  0.00  0.00    +0.000 HD
BRANCH  18  21
ATOM     21  C   UNL     1      49.599   6.531  17.742  0.00  0.00    +0.000 A 
ATOM     22  C   UNL     1      50.746   7.197  17.339  0.00  0.00    +0.000 A 
ATOM     23  S   UNL     1      51.075   8.599  18.254  0.00  0.00    +0.000 S 
ATOM     24  C   UNL     1      49.677   8.377  19.202  0.00  0.00    +0.000 A 
ATOM     25  N   UNL     1      49.330   9.272  20.164  0.00  0.00    +0.000 NA
ATOM     26  C   UNL     1      48.224   8.994  20.774  0.00  0.00    +0.000 A 
ATOM     27  N   UNL     1      47.447   7.896  20.524  0.00  0.00    +0.000 N 
ATOM     28  C   UNL     1      47.810   6.921  19.630  0.00  0.00    +0.000 A 
ATOM     29  O   UNL     1      47.180   5.865  19.560  0.00  0.00    +0.000 OA
ATOM     30  C   UNL     1      48.999   7.221  18.857  0.00  0.00    +0.000 A 
ATOM     31  H   UNL     1      46.618   7.711  21.068  0.00  0.00    +0.000 HD
ENDBRANCH  18  21
ENDBRANCH   1  19
TORSDOF 6
ENDMDL
MODEL 9
REMARK VINA RESULT:    -6.902      4.174     10.137
REMARK INTER + INTRA:         -10.369
REMARK INTER:                  -9.183
REMARK INTRA:                  -1.186
REMARK UNBOUND:                -1.047
REMARK  Name = 
REMARK  6 active torsions:
REMARK  status: ('A' for Active; 'I' for Inactive)
REMARK    1  A    between atoms: C_2  and  C_20
REMARK    2  A    between atoms: N_3  and  C_4
REMARK    3  A    between atoms: C_4  and  C_5
REMARK    4  A    between atoms: C_8  and  C_9
REMARK    5  A    between atoms: C_9  and  C_10
REMARK    6  A    between atoms: C_10  and  C_11
REMARK                            x       y       z     vdW  Elec       q    Type
REMARK                         _______ _______ _______ _____ _____    ______ ____
ROOT
ATOM      1  C   UNL     1      47.300   3.428  16.832  0.00  0.00    +0.000 C 
ENDROOT
BRANCH   1   2
ATOM      2  C   UNL     1      48.767   3.511  17.163  0.00  0.00    +0.000 A 
ATOM      3  C   UNL     1      49.562   2.358  17.142  0.00  0.00    +0.000 A 
ATOM      4  C   UNL     1      50.934   2.430  17.399  0.00  0.00    +0.000 A 
ATOM      5  C   UNL     1      51.541   3.659  17.685  0.00  0.00    +0.000 A 
ATOM      6  C   UNL     1      50.740   4.809  17.735  0.00  0.00    +0.000 A 
ATOM      7  C   UNL     1      49.367   4.734  17.486  0.00  0.00    +0.000 A 
BRANCH   5   8
ATOM      8  C   UNL     1      53.021   3.754  17.984  0.00  0.00    +0.000 C 
BRANCH   8   9
ATOM      9  C   UNL     1      53.354   3.614  19.476  0.00  0.00    +0.000 C 
BRANCH   9  10
ATOM     10  C   UNL     1      53.648   4.929  20.172  0.00  0.00    +0.000 A 
ATOM     11  N   UNL     1      54.867   5.496  19.948  0.00  0.00    +0.000 NA
ATOM     12  C   UNL     1      55.143   6.669  20.561  0.00  0.00    +0.000 A 
ATOM     13  C   UNL     1      54.260   7.323  21.401  0.00  0.00    +0.000 A 
ATOM     14  C   UNL     1      53.018   6.740  21.626  0.00  0.00    +0.000 A 
ATOM     15  C   UNL     1      52.701   5.530  21.008  0.00  0.00    +0.000 A 
ATOM     16 CL   UNL     1      51.150   4.838  21.310  0.00  0.00    +0.000 Cl
ENDBRANCH   9  10
ENDBRANCH   8   9
ENDBRANCH   5   8
ENDBRANCH   1   2
BRANCH   1  19
ATOM     17  O   UNL     1      47.248   3.088  14.034  0.00  0.00    +0.000 OA
ATOM     18  C   UNL     1      46.870   4.153  14.513  0.00  0.00    +0.000 C 
ATOM     19  N   UNL     1      46.904   4.414  15.857  0.00  0.00    +0.000 N 
ATOM     20  H   UNL     1      46.439   5.240  16.219  0.00  0.00    +0.000 HD
BRANCH  18  21
ATOM     21  C   UNL     1      46.394   5.246  13.654  0.00  0.00    +0.000 A 
ATOM     22  C   UNL     1      47.210   6.338  13.399  0.00  0.00    +0.000 A 
ATOM     23  S   UNL     1      46.506   7.481  12.347  0.00  0.00    +0.000 S 
ATOM     24  C   UNL     1      45.096   6.539  12.175  0.00  0.00    +0.000 A 
ATOM     25  N   UNL     1      44.087   6.928  11.353  0.00  0.00    +0.000 NA
ATOM     26  C   UNL     1      43.100   6.094  11.292  0.00  0.00    +0.000 A 
ATOM     27  N   UNL     1      43.023   4.920  11.992  0.00  0.00    +0.000 N 
ATOM     28  C   UNL     1      43.976   4.539  12.902  0.00  0.00    +0.000 A 
ATOM     29  O   UNL     1      43.789   3.570  13.641  0.00  0.00    +0.000 OA
ATOM     30  C   UNL     1      45.144   5.395  12.951  0.00  0.00    +0.000 A 
ATOM     31  H   UNL     1      42.203   4.335  11.937  0.00  0.00    +0.000 HD
ENDBRANCH  18  21
ENDBRANCH   1  19
TORSDOF 6
ENDMDL
