MODEL 1
REMARK VINA RESULT:    -8.374      0.000      0.000
REMARK INTER + INTRA:         -12.642
REMARK INTER:                 -11.800
REMARK INTRA:                  -0.842
REMARK UNBOUND:                -0.842
REMARK  Name = 
REMARK  8 active torsions:
REMARK  status: ('A' for Active; 'I' for Inactive)
REMARK    1  A    between atoms: C_1  and  N_2
REMARK    2  A    between atoms: N_2  and  C_3
REMARK    3  A    between atoms: N_2  and  C_10
REMARK    4  A    between atoms: C_3  and  C_4
REMARK    5  A    between atoms: C_10  and  C_11
REMARK    6  A    between atoms: C_14  and  C_15
REMARK    7  A    between atoms: C_15  and  N_16
REMARK    8  A    between atoms: C_17  and  C_19
REMARK                            x       y       z     vdW  Elec       q    Type
REMARK                         _______ _______ _______ _____ _____    ______ ____
ROOT
ATOM      1  C   UNL     1      45.601   5.388  11.810  0.00  0.00    +0.000 A 
ATOM      2  C   UNL     1      45.996   4.744  12.990  0.00  0.00    +0.000 A 
ATOM      3  C   UNL     1      47.059   5.240  13.756  0.00  0.00    +0.000 A 
ATOM      4  C   UNL     1      47.752   6.392  13.360  0.00  0.00    +0.000 A 
ATOM      5  C   UNL     1      47.397   7.003  12.152  0.00  0.00    +0.000 A 
ATOM      6  C   UNL     1      46.332   6.511  11.390  0.00  0.00    +0.000 A 
ENDROOT
BRANCH   1   7
ATOM      7  C   UNL     1      44.446   4.864  10.972  0.00  0.00    +0.000 C 
BRANCH   7   9
ATOM      8  C   UNL     1      43.392   2.723  11.411  0.00  0.00    +0.000 C 
ATOM      9  N   UNL     1      44.465   3.407  10.677  0.00  0.00    +0.000 NA
BRANCH   9  10
ATOM     10  C   UNL     1      44.299   3.234   9.213  0.00  0.00    +0.000 C 
BRANCH  10  11
ATOM     11  C   UNL     1      45.513   2.741   8.444  0.00  0.00    +0.000 A 
ATOM     12  C   UNL     1      45.834   1.372   8.434  0.00  0.00    +0.000 A 
ATOM     13  C   UNL     1      46.895   0.891   7.663  0.00  0.00    +0.000 A 
ATOM     14  C   UNL     1      47.651   1.771   6.889  0.00  0.00    +0.000 A 
ATOM     15  C   UNL     1      47.347   3.132   6.896  0.00  0.00    +0.000 A 
ATOM     16  C   UNL     1      46.286   3.615   7.669  0.00  0.00    +0.000 A 
ENDBRANCH  10  11
ENDBRANCH   9  10
ENDBRANCH   7   9
ENDBRANCH   1   7
BRANCH   4  17
ATOM     17  C   UNL     1      48.859   6.963  14.209  0.00  0.00    +0.000 C 
BRANCH  17  18
ATOM     18  N   UNL     1      48.469   7.108  15.590  0.00  0.00    +0.000 N 
ATOM     19  C   UNL     1      49.197   6.511  16.590  0.00  0.00    +0.000 C 
ATOM     20  O   UNL     1      50.214   5.860  16.356  0.00  0.00    +0.000 OA
ATOM     21  H   UNL     1      47.528   7.442  15.777  0.00  0.00    +0.000 HD
BRANCH  19  22
ATOM     22  C   UNL     1      48.734   6.730  17.966  0.00  0.00    +0.000 A 
ATOM     23  C   UNL     1      48.391   8.010  18.381  0.00  0.00    +0.000 A 
ATOM     24  S   UNL     1      47.827   8.079  19.992  0.00  0.00    +0.000 S 
ATOM     25  C   UNL     1      48.076   6.411  20.201  0.00  0.00    +0.000 A 
ATOM     26  N   UNL     1      47.822   5.792  21.381  0.00  0.00    +0.000 NA
ATOM     27  N   UNL     1      48.053   4.562  21.496  0.00  0.00    +0.000 NA
ATOM     28  N   UNL     1      48.544   3.873  20.423  0.00  0.00    +0.000 N 
ATOM     29  C   UNL     1      48.810   4.395  19.177  0.00  0.00    +0.000 A 
ATOM     30  O   UNL     1      49.222   3.699  18.255  0.00  0.00    +0.000 OA
ATOM     31  C   UNL     1      48.557   5.810  19.060  0.00  0.00    +0.000 A 
ATOM     32  H   UNL     1      48.707   2.887  20.569  0.00  0.00    +0.000 HD
ENDBRANCH  19  22
ENDBRANCH  17  18
ENDBRANCH   4  17
TORSDOF 7
ENDMDL
MODEL 2
REMARK VINA RESULT:    -8.012      1.651      1.968
REMARK INTER + INTRA:         -12.132
REMARK INTER:                 -10.879
REMARK INTRA:                  -1.254
REMARK UNBOUND:                -0.842
REMARK  Name = 
REMARK  8 active torsions:
REMARK  status: ('A' for Active; 'I' for Inactive)
REMARK    1  A    between atoms: C_1  and  N_2
REMARK    2  A    between atoms: N_2  and  C_3
REMARK    3  A    between atoms: N_2  and  C_10
REMARK    4  A    between atoms: C_3  and  C_4
REMARK    5  A    between atoms: C_10  and  C_11
REMARK    6  A    between atoms: C_14  and  C_15
REMARK    7  A    between atoms: C_15  and  N_16
REMARK    8  A    between atoms: C_17  and  C_19
REMARK                            x       y       z     vdW  Elec       q    Type
REMARK                         _______ _______ _______ _____ _____    ______ ____
ROOT
ATOM      1  C   UNL     1      45.085   6.029  11.283  0.00  0.00    +0.000 A 
ATOM      2  C   UNL     1      46.391   5.643  11.614  0.00  0.00    +0.000 A 
ATOM      3  C   UNL     1      47.196   6.459  12.420  0.00  0.00    +0.000 A 
ATOM      4  C   UNL     1      46.715   7.678  12.915  0.00  0.00    +0.000 A 
ATOM      5  C   UNL     1      45.431   8.092  12.538  0.00  0.00    +0.000 A 
ATOM      6  C   UNL     1      44.626   7.276  11.737  0.00  0.00    +0.000 A 
ENDROOT
BRANCH   1   7
ATOM      7  C   UNL     1      44.199   5.152  10.413  0.00  0.00    +0.000 C 
BRANCH   7   9
ATOM      8  C   UNL     1      43.568   3.053  11.452  0.00  0.00    +0.000 C 
ATOM      9  N   UNL     1      44.464   3.691  10.479  0.00  0.00    +0.000 NA
BRANCH   9  10
ATOM     10  C   UNL     1      44.259   3.127   9.122  0.00  0.00    +0.000 C 
BRANCH  10  11
ATOM     11  C   UNL     1      45.509   2.712   8.364  0.00  0.00    +0.000 A 
ATOM     12  C   UNL     1      45.918   1.367   8.361  0.00  0.00    +0.000 A 
ATOM     13  C   UNL     1      47.014   0.953   7.598  0.00  0.00    +0.000 A 
ATOM     14  C   UNL     1      47.717   1.878   6.826  0.00  0.00    +0.000 A 
ATOM     15  C   UNL     1      47.325   3.216   6.828  0.00  0.00    +0.000 A 
ATOM     16  C   UNL     1      46.229   3.632   7.591  0.00  0.00    +0.000 A 
ENDBRANCH  10  11
ENDBRANCH   9  10
ENDBRANCH   7   9
ENDBRANCH   1   7
BRANCH   4  17
ATOM     17  C   UNL     1      47.556   8.532  13.829  0.00  0.00    +0.000 C 
BRANCH  17  18
ATOM     18  N   UNL     1      47.921   7.840  15.041  0.00  0.00    +0.000 N 
ATOM     19  C   UNL     1      49.203   7.386  15.229  0.00  0.00    +0.000 C 
ATOM     20  O   UNL     1      50.088   7.572  14.397  0.00  0.00    +0.000 OA
ATOM     21  H   UNL     1      47.166   7.487  15.623  0.00  0.00    +0.000 HD
BRANCH  19  22
ATOM     22  C   UNL     1      49.485   6.709  16.501  0.00  0.00    +0.000 A 
ATOM     23  C   UNL     1      50.372   7.282  17.404  0.00  0.00    +0.000 A 
ATOM     24  S   UNL     1      50.547   6.392  18.850  0.00  0.00    +0.000 S 
ATOM     25  C   UNL     1      49.486   5.186  18.294  0.00  0.00    +0.000 A 
ATOM     26  N   UNL     1      49.200   4.088  19.036  0.00  0.00    +0.000 NA
ATOM     27  N   UNL     1      48.434   3.208  18.567  0.00  0.00    +0.000 NA
ATOM     28  N   UNL     1      47.897   3.387  17.323  0.00  0.00    +0.000 N 
ATOM     29  C   UNL     1      48.098   4.473  16.502  0.00  0.00    +0.000 A 
ATOM     30  O   UNL     1      47.552   4.571  15.408  0.00  0.00    +0.000 OA
ATOM     31  C   UNL     1      48.991   5.469  17.041  0.00  0.00    +0.000 A 
ATOM     32  H   UNL     1      47.285   2.651  16.997  0.00  0.00    +0.000 HD
ENDBRANCH  19  22
ENDBRANCH  17  18
ENDBRANCH   4  17
TORSDOF 7
ENDMDL
MODEL 3
REMARK VINA RESULT:    -7.946      1.383      2.230
REMARK INTER + INTRA:         -12.040
REMARK INTER:                 -11.048
REMARK INTRA:                  -0.992
REMARK UNBOUND:                -0.842
REMARK  Name = 
REMARK  8 active torsions:
REMARK  status: ('A' for Active; 'I' for Inactive)
REMARK    1  A    between atoms: C_1  and  N_2
REMARK    2  A    between atoms: N_2  and  C_3
REMARK    3  A    between atoms: N_2  and  C_10
REMARK    4  A    between atoms: C_3  and  C_4
REMARK    5  A    between atoms: C_10  and  C_11
REMARK    6  A    between atoms: C_14  and  C_15
REMARK    7  A    between atoms: C_15  and  N_16
REMARK    8  A    between atoms: C_17  and  C_19
REMARK                            x       y       z     vdW  Elec       q    Type
REMARK                         _______ _______ _______ _____ _____    ______ ____
ROOT
ATOM      1  C   UNL     1      45.677   5.466  11.833  0.00  0.00    +0.000 A 
ATOM      2  C   UNL     1      45.930   4.871  13.076  0.00  0.00    +0.000 A 
ATOM      3  C   UNL     1      46.970   5.334  13.893  0.00  0.00    +0.000 A 
ATOM      4  C   UNL     1      47.780   6.403  13.487  0.00  0.00    +0.000 A 
ATOM      5  C   UNL     1      47.565   6.961  12.222  0.00  0.00    +0.000 A 
ATOM      6  C   UNL     1      46.524   6.503  11.408  0.00  0.00    +0.000 A 
ENDROOT
BRANCH   1   7
ATOM      7  C   UNL     1      44.549   4.979  10.938  0.00  0.00    +0.000 C 
BRANCH   7   9
ATOM      8  C   UNL     1      43.544   2.815  11.372  0.00  0.00    +0.000 C 
ATOM      9  N   UNL     1      44.566   3.531  10.600  0.00  0.00    +0.000 NA
BRANCH   9  10
ATOM     10  C   UNL     1      44.320   3.398   9.143  0.00  0.00    +0.000 C 
BRANCH  10  11
ATOM     11  C   UNL     1      45.440   2.789   8.317  0.00  0.00    +0.000 A 
ATOM     12  C   UNL     1      46.233   3.606   7.492  0.00  0.00    +0.000 A 
ATOM     13  C   UNL     1      47.322   3.076   6.794  0.00  0.00    +0.000 A 
ATOM     14  C   UNL     1      47.635   1.722   6.910  0.00  0.00    +0.000 A 
ATOM     15  C   UNL     1      46.851   0.900   7.720  0.00  0.00    +0.000 A 
ATOM     16  C   UNL     1      45.760   1.429   8.419  0.00  0.00    +0.000 A 
ENDBRANCH  10  11
ENDBRANCH   9  10
ENDBRANCH   7   9
ENDBRANCH   1   7
BRANCH   4  17
ATOM     17  C   UNL     1      48.862   6.941  14.387  0.00  0.00    +0.000 C 
BRANCH  17  18
ATOM     18  N   UNL     1      48.500   6.870  15.782  0.00  0.00    +0.000 N 
ATOM     19  C   UNL     1      49.311   6.228  16.684  0.00  0.00    +0.000 C 
ATOM     20  O   UNL     1      50.380   5.718  16.352  0.00  0.00    +0.000 OA
ATOM     21  H   UNL     1      47.537   7.081  16.026  0.00  0.00    +0.000 HD
BRANCH  19  22
ATOM     22  C   UNL     1      48.869   6.223  18.084  0.00  0.00    +0.000 A 
ATOM     23  C   UNL     1      48.999   5.066  18.843  0.00  0.00    +0.000 A 
ATOM     24  S   UNL     1      48.484   5.247  20.461  0.00  0.00    +0.000 S 
ATOM     25  C   UNL     1      48.022   6.859  20.184  0.00  0.00    +0.000 A 
ATOM     26  N   UNL     1      47.464   7.620  21.158  0.00  0.00    +0.000 NA
ATOM     27  N   UNL     1      47.109   8.797  20.895  0.00  0.00    +0.000 NA
ATOM     28  N   UNL     1      47.307   9.287  19.635  0.00  0.00    +0.000 N 
ATOM     29  C   UNL     1      47.888   8.612  18.585  0.00  0.00    +0.000 A 
ATOM     30  O   UNL     1      48.058   9.137  17.489  0.00  0.00    +0.000 OA
ATOM     31  C   UNL     1      48.276   7.258  18.891  0.00  0.00    +0.000 A 
ATOM     32  H   UNL     1      47.008  10.240  19.480  0.00  0.00    +0.000 HD
ENDBRANCH  19  22
ENDBRANCH  17  18
ENDBRANCH   4  17
TORSDOF 7
ENDMDL
MODEL 4
REMARK VINA RESULT:    -7.496      3.629      8.684
REMARK INTER + INTRA:         -11.405
REMARK INTER:                  -9.184
REMARK INTRA:                  -2.221
REMARK UNBOUND:                -0.842
REMARK  Name = 
REMARK  8 active torsions:
REMARK  status: ('A' for Active; 'I' for Inactive)
REMARK    1  A    between atoms: C_1  and  N_2
REMARK    2  A    between atoms: N_2  and  C_3
REMARK    3  A    between atoms: N_2  and  C_10
REMARK    4  A    between atoms: C_3  and  C_4
REMARK    5  A    between atoms: C_10  and  C_11
REMARK    6  A    between atoms: C_14  and  C_15
REMARK    7  A    between atoms: C_15  and  N_16
REMARK    8  A    between atoms: C_17  and  C_19
REMARK                            x       y       z     vdW  Elec       q    Type
REMARK                         _______ _______ _______ _____ _____    ______ ____
ROOT
ATOM      1  C   UNL     1      49.838   7.207  18.440  0.00  0.00    +0.000 A 
ATOM      2  C   UNL     1      48.829   8.167  18.279  0.00  0.00    +0.000 A 
ATOM      3  C   UNL     1      48.401   8.548  17.000  0.00  0.00    +0.000 A 
ATOM      4  C   UNL     1      48.970   7.978  15.853  0.00  0.00    +0.000 A 
ATOM      5  C   UNL     1      50.016   7.061  16.011  0.00  0.00    +0.000 A 
ATOM      6  C   UNL     1      50.441   6.677  17.288  0.00  0.00    +0.000 A 
ENDROOT
BRANCH   1   7
ATOM      7  C   UNL     1      50.309   6.780  19.820  0.00  0.00    +0.000 C 
BRANCH   7   9
ATOM      8  C   UNL     1      50.990   5.039  21.365  0.00  0.00    +0.000 C 
ATOM      9  N   UNL     1      50.371   5.315  20.062  0.00  0.00    +0.000 NA
BRANCH   9  10
ATOM     10  C   UNL     1      48.987   4.783  20.010  0.00  0.00    +0.000 C 
BRANCH  10  11
ATOM     11  C   UNL     1      48.555   4.139  18.704  0.00  0.00    +0.000 A 
ATOM     12  C   UNL     1      47.427   4.620  18.018  0.00  0.00    +0.000 A 
ATOM     13  C   UNL     1      47.068   4.096  16.773  0.00  0.00    +0.000 A 
ATOM     14  C   UNL     1      47.832   3.084  16.194  0.00  0.00    +0.000 A 
ATOM     15  C   UNL     1      48.950   2.593  16.868  0.00  0.00    +0.000 A 
ATOM     16  C   UNL     1      49.310   3.116  18.115  0.00  0.00    +0.000 A 
ENDBRANCH  10  11
ENDBRANCH   9  10
ENDBRANCH   7   9
ENDBRANCH   1   7
BRANCH   4  17
ATOM     17  C   UNL     1      48.473   8.342  14.478  0.00  0.00    +0.000 C 
BRANCH  17  18
ATOM     18  N   UNL     1      47.395   7.489  14.042  0.00  0.00    +0.000 N 
ATOM     19  C   UNL     1      47.640   6.410  13.228  0.00  0.00    +0.000 C 
ATOM     20  O   UNL     1      48.776   6.114  12.863  0.00  0.00    +0.000 OA
ATOM     21  H   UNL     1      46.448   7.843  14.144  0.00  0.00    +0.000 HD
BRANCH  19  22
ATOM     22  C   UNL     1      46.483   5.589  12.851  0.00  0.00    +0.000 A 
ATOM     23  C   UNL     1      46.511   4.218  13.071  0.00  0.00    +0.000 A 
ATOM     24  S   UNL     1      45.068   3.423  12.622  0.00  0.00    +0.000 S 
ATOM     25  C   UNL     1      44.381   4.876  12.070  0.00  0.00    +0.000 A 
ATOM     26  N   UNL     1      43.143   4.919  11.521  0.00  0.00    +0.000 NA
ATOM     27  N   UNL     1      42.692   6.013  11.097  0.00  0.00    +0.000 NA
ATOM     28  N   UNL     1      43.457   7.139  11.214  0.00  0.00    +0.000 N 
ATOM     29  C   UNL     1      44.711   7.212  11.779  0.00  0.00    +0.000 A 
ATOM     30  O   UNL     1      45.321   8.272  11.872  0.00  0.00    +0.000 OA
ATOM     31  C   UNL     1      45.226   5.949  12.246  0.00  0.00    +0.000 A 
ATOM     32  H   UNL     1      43.045   7.992  10.862  0.00  0.00    +0.000 HD
ENDBRANCH  19  22
ENDBRANCH  17  18
ENDBRANCH   4  17
TORSDOF 7
ENDMDL
MODEL 5
REMARK VINA RESULT:    -7.420      3.586      8.953
REMARK INTER + INTRA:         -11.299
REMARK INTER:                  -9.597
REMARK INTRA:                  -1.702
REMARK UNBOUND:                -0.842
REMARK  Name = 
REMARK  8 active torsions:
REMARK  status: ('A' for Active; 'I' for Inactive)
REMARK    1  A    between atoms: C_1  and  N_2
REMARK    2  A    between atoms: N_2  and  C_3
REMARK    3  A    between atoms: N_2  and  C_10
REMARK    4  A    between atoms: C_3  and  C_4
REMARK    5  A    between atoms: C_10  and  C_11
REMARK    6  A    between atoms: C_14  and  C_15
REMARK    7  A    between atoms: C_15  and  N_16
REMARK    8  A    between atoms: C_17  and  C_19
REMARK                            x       y       z     vdW  Elec       q    Type
REMARK                         _______ _______ _______ _____ _____    ______ ____
ROOT
ATOM      1  C   UNL     1      49.337   8.193  16.132  0.00  0.00    +0.000 A 
ATOM      2  C   UNL     1      48.249   8.959  15.694  0.00  0.00    +0.000 A 
ATOM      3  C   UNL     1      47.790   8.862  14.374  0.00  0.00    +0.000 A 
ATOM      4  C   UNL     1      48.407   7.996  13.461  0.00  0.00    +0.000 A 
ATOM      5  C   UNL     1      49.530   7.273  13.881  0.00  0.00    +0.000 A 
ATOM      6  C   UNL     1      49.985   7.366  15.201  0.00  0.00    +0.000 A 
ENDROOT
BRANCH   1   7
ATOM      7  C   UNL     1      49.842   8.283  17.563  0.00  0.00    +0.000 C 
BRANCH   7   9
ATOM      8  C   UNL     1      51.212   7.292  19.302  0.00  0.00    +0.000 C 
ATOM      9  N   UNL     1      50.328   7.013  18.163  0.00  0.00    +0.000 NA
BRANCH   9  10
ATOM     10  C   UNL     1      49.144   6.228  18.592  0.00  0.00    +0.000 C 
BRANCH  10  11
ATOM     11  C   UNL     1      48.957   4.869  17.938  0.00  0.00    +0.000 A 
ATOM     12  C   UNL     1      47.811   4.608  17.167  0.00  0.00    +0.000 A 
ATOM     13  C   UNL     1      47.665   3.395  16.488  0.00  0.00    +0.000 A 
ATOM     14  C   UNL     1      48.664   2.425  16.569  0.00  0.00    +0.000 A 
ATOM     15  C   UNL     1      49.802   2.669  17.337  0.00  0.00    +0.000 A 
ATOM     16  C   UNL     1      49.949   3.883  18.017  0.00  0.00    +0.000 A 
ENDBRANCH  10  11
ENDBRANCH   9  10
ENDBRANCH   7   9
ENDBRANCH   1   7
BRANCH   4  17
ATOM     17  C   UNL     1      47.882   7.846  12.056  0.00  0.00    +0.000 C 
BRANCH  17  18
ATOM     18  N   UNL     1      47.133   6.626  11.880  0.00  0.00    +0.000 N 
ATOM     19  C   UNL     1      45.763   6.626  11.973  0.00  0.00    +0.000 C 
ATOM     20  O   UNL     1      45.124   7.655  12.180  0.00  0.00    +0.000 OA
ATOM     21  H   UNL     1      47.646   5.751  11.934  0.00  0.00    +0.000 HD
BRANCH  19  22
ATOM     22  C   UNL     1      45.086   5.341  11.761  0.00  0.00    +0.000 A 
ATOM     23  C   UNL     1      44.417   4.732  12.817  0.00  0.00    +0.000 A 
ATOM     24  S   UNL     1      43.644   3.272  12.386  0.00  0.00    +0.000 S 
ATOM     25  C   UNL     1      44.223   3.379  10.792  0.00  0.00    +0.000 A 
ATOM     26  N   UNL     1      43.957   2.422   9.868  0.00  0.00    +0.000 NA
ATOM     27  N   UNL     1      44.436   2.530   8.711  0.00  0.00    +0.000 NA
ATOM     28  N   UNL     1      45.204   3.618   8.407  0.00  0.00    +0.000 N 
ATOM     29  C   UNL     1      45.511   4.657   9.256  0.00  0.00    +0.000 A 
ATOM     30  O   UNL     1      46.184   5.616   8.894  0.00  0.00    +0.000 OA
ATOM     31  C   UNL     1      44.972   4.516  10.586  0.00  0.00    +0.000 A 
ATOM     32  H   UNL     1      45.559   3.657   7.461  0.00  0.00    +0.000 HD
ENDBRANCH  19  22
ENDBRANCH  17  18
ENDBRANCH   4  17
TORSDOF 7
ENDMDL
MODEL 6
REMARK VINA RESULT:    -7.401      4.090     10.008
REMARK INTER + INTRA:         -11.271
REMARK INTER:                  -9.519
REMARK INTRA:                  -1.752
REMARK UNBOUND:                -0.842
REMARK  Name = 
REMARK  8 active torsions:
REMARK  status: ('A' for Active; 'I' for Inactive)
REMARK    1  A    between atoms: C_1  and  N_2
REMARK    2  A    between atoms: N_2  and  C_3
REMARK    3  A    between atoms: N_2  and  C_10
REMARK    4  A    between atoms: C_3  and  C_4
REMARK    5  A    between atoms: C_10  and  C_11
REMARK    6  A    between atoms: C_14  and  C_15
REMARK    7  A    between atoms: C_15  and  N_16
REMARK    8  A    between atoms: C_17  and  C_19
REMARK                            x       y       z     vdW  Elec       q    Type
REMARK                         _______ _______ _______ _____ _____    ______ ____
ROOT
ATOM      1  C   UNL     1      51.331   4.389  17.763  0.00  0.00    +0.000 A 
ATOM      2  C   UNL     1      50.444   5.401  17.369  0.00  0.00    +0.000 A 
ATOM      3  C   UNL     1      49.132   5.092  16.986  0.00  0.00    +0.000 A 
ATOM      4  C   UNL     1      48.675   3.768  16.988  0.00  0.00    +0.000 A 
ATOM      5  C   UNL     1      49.576   2.751  17.326  0.00  0.00    +0.000 A 
ATOM      6  C   UNL     1      50.885   3.058  17.713  0.00  0.00    +0.000 A 
ENDROOT
BRANCH   1   7
ATOM      7  C   UNL     1      52.755   4.709  18.186  0.00  0.00    +0.000 C 
BRANCH   7   9
ATOM      8  C   UNL     1      54.562   3.910  19.593  0.00  0.00    +0.000 C 
ATOM      9  N   UNL     1      53.140   4.274  19.554  0.00  0.00    +0.000 NA
BRANCH   9  10
ATOM     10  C   UNL     1      52.854   5.393  20.487  0.00  0.00    +0.000 C 
BRANCH  10  11
ATOM     11  C   UNL     1      51.390   5.695  20.756  0.00  0.00    +0.000 A 
ATOM     12  C   UNL     1      50.876   6.979  20.501  0.00  0.00    +0.000 A 
ATOM     13  C   UNL     1      49.514   7.249  20.661  0.00  0.00    +0.000 A 
ATOM     14  C   UNL     1      48.645   6.241  21.076  0.00  0.00    +0.000 A 
ATOM     15  C   UNL     1      49.144   4.965  21.339  0.00  0.00    +0.000 A 
ATOM     16  C   UNL     1      50.508   4.693  21.180  0.00  0.00    +0.000 A 
ENDBRANCH  10  11
ENDBRANCH   9  10
ENDBRANCH   7   9
ENDBRANCH   1   7
BRANCH   4  17
ATOM     17  C   UNL     1      47.248   3.437  16.632  0.00  0.00    +0.000 C 
BRANCH  17  18
ATOM     18  N   UNL     1      46.678   4.394  15.716  0.00  0.00    +0.000 N 
ATOM     19  C   UNL     1      46.701   4.169  14.362  0.00  0.00    +0.000 C 
ATOM     20  O   UNL     1      47.179   3.143  13.881  0.00  0.00    +0.000 OA
ATOM     21  H   UNL     1      46.490   5.327  16.072  0.00  0.00    +0.000 HD
BRANCH  19  22
ATOM     22  C   UNL     1      46.080   5.190  13.510  0.00  0.00    +0.000 A 
ATOM     23  C   UNL     1      46.729   6.401  13.303  0.00  0.00    +0.000 A 
ATOM     24  S   UNL     1      45.893   7.453  12.248  0.00  0.00    +0.000 S 
ATOM     25  C   UNL     1      44.615   6.346  12.078  0.00  0.00    +0.000 A 
ATOM     26  N   UNL     1      43.525   6.623  11.321  0.00  0.00    +0.000 NA
ATOM     27  N   UNL     1      42.590   5.785  11.253  0.00  0.00    +0.000 NA
ATOM     28  N   UNL     1      42.701   4.607  11.936  0.00  0.00    +0.000 N 
ATOM     29  C   UNL     1      43.772   4.215  12.708  0.00  0.00    +0.000 A 
ATOM     30  O   UNL     1      43.806   3.123  13.266  0.00  0.00    +0.000 OA
ATOM     31  C   UNL     1      44.831   5.189  12.793  0.00  0.00    +0.000 A 
ATOM     32  H   UNL     1      41.924   3.968  11.843  0.00  0.00    +0.000 HD
ENDBRANCH  19  22
ENDBRANCH  17  18
ENDBRANCH   4  17
TORSDOF 7
ENDMDL
MODEL 7
REMARK VINA RESULT:    -7.214      2.791      3.566
REMARK INTER + INTRA:         -11.008
REMARK INTER:                 -10.592
REMARK INTRA:                  -0.416
REMARK UNBOUND:                -0.842
REMARK  Name = 
REMARK  8 active torsions:
REMARK  status: ('A' for Active; 'I' for Inactive)
REMARK    1  A    between atoms: C_1  and  N_2
REMARK    2  A    between atoms: N_2  and  C_3
REMARK    3  A    between atoms: N_2  and  C_10
REMARK    4  A    between atoms: C_3  and  C_4
REMARK    5  A    between atoms: C_10  and  C_11
REMARK    6  A    between atoms: C_14  and  C_15
REMARK    7  A    between atoms: C_15  and  N_16
REMARK    8  A    between atoms: C_17  and  C_19
REMARK                            x       y       z     vdW  Elec       q    Type
REMARK                         _______ _______ _______ _____ _____    ______ ____
ROOT
ATOM      1  C   UNL     1      46.705   5.270  12.928  0.00  0.00    +0.000 A 
ATOM      2  C   UNL     1      46.763   4.723  14.217  0.00  0.00    +0.000 A 
ATOM      3  C   UNL     1      47.585   5.293  15.199  0.00  0.00    +0.000 A 
ATOM      4  C   UNL     1      48.366   6.421  14.916  0.00  0.00    +0.000 A 
ATOM      5  C   UNL     1      48.353   6.933  13.613  0.00  0.00    +0.000 A 
ATOM      6  C   UNL     1      47.528   6.368  12.634  0.00  0.00    +0.000 A 
ENDROOT
BRANCH   1   7
ATOM      7  C   UNL     1      45.814   4.666  11.854  0.00  0.00    +0.000 C 
BRANCH   7   9
ATOM      8  C   UNL     1      44.108   6.389  11.780  0.00  0.00    +0.000 C 
ATOM      9  N   UNL     1      44.361   4.956  11.975  0.00  0.00    +0.000 NA
BRANCH   9  10
ATOM     10  C   UNL     1      43.647   4.148  10.956  0.00  0.00    +0.000 C 
BRANCH  10  11
ATOM     11  C   UNL     1      44.485   3.609   9.808  0.00  0.00    +0.000 A 
ATOM     12  C   UNL     1      45.105   4.494   8.910  0.00  0.00    +0.000 A 
ATOM     13  C   UNL     1      45.948   4.018   7.902  0.00  0.00    +0.000 A 
ATOM     14  C   UNL     1      46.185   2.649   7.778  0.00  0.00    +0.000 A 
ATOM     15  C   UNL     1      45.569   1.760   8.659  0.00  0.00    +0.000 A 
ATOM     16  C   UNL     1      44.724   2.236   9.668  0.00  0.00    +0.000 A 
ENDBRANCH  10  11
ENDBRANCH   9  10
ENDBRANCH   7   9
ENDBRANCH   1   7
BRANCH   4  17
ATOM     17  C   UNL     1      49.207   7.071  15.984  0.00  0.00    +0.000 C 
BRANCH  17  18
ATOM     18  N   UNL     1      50.260   6.204  16.454  0.00  0.00    +0.000 N 
ATOM     19  C   UNL     1      50.166   5.587  17.677  0.00  0.00    +0.000 C 
ATOM     20  O   UNL     1      49.182   5.723  18.401  0.00  0.00    +0.000 OA
ATOM     21  H   UNL     1      51.158   6.261  15.982  0.00  0.00    +0.000 HD
BRANCH  19  22
ATOM     22  C   UNL     1      51.278   4.710  18.063  0.00  0.00    +0.000 A 
ATOM     23  C   UNL     1      52.392   5.247  18.695  0.00  0.00    +0.000 A 
ATOM     24  S   UNL     1      53.567   4.082  19.118  0.00  0.00    +0.000 S 
ATOM     25  C   UNL     1      52.649   2.833  18.422  0.00  0.00    +0.000 A 
ATOM     26  N   UNL     1      53.086   1.549  18.404  0.00  0.00    +0.000 NA
ATOM     27  N   UNL     1      52.386   0.666  17.848  0.00  0.00    +0.000 NA
ATOM     28  N   UNL     1      51.192   1.019  17.285  0.00  0.00    +0.000 N 
ATOM     29  C   UNL     1      50.643   2.281  17.273  0.00  0.00    +0.000 A 
ATOM     30  O   UNL     1      49.547   2.509  16.772  0.00  0.00    +0.000 OA
ATOM     31  C   UNL     1      51.461   3.291  17.898  0.00  0.00    +0.000 A 
ATOM     32  H   UNL     1      50.668   0.269  16.856  0.00  0.00    +0.000 HD
ENDBRANCH  19  22
ENDBRANCH  17  18
ENDBRANCH   4  17
TORSDOF 7
ENDMDL
MODEL 8
REMARK VINA RESULT:    -7.080      2.767      3.402
REMARK INTER + INTRA:         -10.819
REMARK INTER:                  -9.607
REMARK INTRA:                  -1.213
REMARK UNBOUND:                -0.842
REMARK  Name = 
REMARK  8 active torsions:
REMARK  status: ('A' for Active; 'I' for Inactive)
REMARK    1  A    between atoms: C_1  and  N_2
REMARK    2  A    between atoms: N_2  and  C_3
REMARK    3  A    between atoms: N_2  and  C_10
REMARK    4  A    between atoms: C_3  and  C_4
REMARK    5  A    between atoms: C_10  and  C_11
REMARK    6  A    between atoms: C_14  and  C_15
REMARK    7  A    between atoms: C_15  and  N_16
REMARK    8  A    between atoms: C_17  and  C_19
REMARK                            x       y       z     vdW  Elec       q    Type
REMARK                         _______ _______ _______ _____ _____    ______ ____
ROOT
ATOM      1  C   UNL     1      45.560   6.717  12.029  0.00  0.00    +0.000 A 
ATOM      2  C   UNL     1      46.653   5.884  12.300  0.00  0.00    +0.000 A 
ATOM      3  C   UNL     1      47.817   6.398  12.887  0.00  0.00    +0.000 A 
ATOM      4  C   UNL     1      47.914   7.757  13.218  0.00  0.00    +0.000 A 
ATOM      5  C   UNL     1      46.845   8.601  12.896  0.00  0.00    +0.000 A 
ATOM      6  C   UNL     1      45.681   8.087  12.314  0.00  0.00    +0.000 A 
ENDROOT
BRANCH   1   7
ATOM      7  C   UNL     1      44.289   6.173  11.397  0.00  0.00    +0.000 C 
BRANCH   7   9
ATOM      8  C   UNL     1      43.202   4.204  12.305  0.00  0.00    +0.000 C 
ATOM      9  N   UNL     1      44.181   4.692  11.326  0.00  0.00    +0.000 NA
BRANCH   9  10
ATOM     10  C   UNL     1      43.776   4.329   9.945  0.00  0.00    +0.000 C 
BRANCH  10  11
ATOM     11  C   UNL     1      44.808   3.597   9.105  0.00  0.00    +0.000 A 
ATOM     12  C   UNL     1      44.967   2.206   9.234  0.00  0.00    +0.000 A 
ATOM     13  C   UNL     1      45.850   1.506   8.407  0.00  0.00    +0.000 A 
ATOM     14  C   UNL     1      46.587   2.186   7.438  0.00  0.00    +0.000 A 
ATOM     15  C   UNL     1      46.444   3.567   7.305  0.00  0.00    +0.000 A 
ATOM     16  C   UNL     1      45.561   4.269   8.132  0.00  0.00    +0.000 A 
ENDBRANCH  10  11
ENDBRANCH   9  10
ENDBRANCH   7   9
ENDBRANCH   1   7
BRANCH   4  17
ATOM     17  C   UNL     1      49.141   8.303  13.902  0.00  0.00    +0.000 C 
BRANCH  17  18
ATOM     18  N   UNL     1      49.829   7.299  14.676  0.00  0.00    +0.000 N 
ATOM     19  C   UNL     1      49.641   7.209  16.033  0.00  0.00    +0.000 C 
ATOM     20  O   UNL     1      48.867   7.952  16.633  0.00  0.00    +0.000 OA
ATOM     21  H   UNL     1      50.624   6.838  14.242  0.00  0.00    +0.000 HD
BRANCH  19  22
ATOM     22  C   UNL     1      50.369   6.144  16.733  0.00  0.00    +0.000 A 
ATOM     23  C   UNL     1      49.667   5.200  17.472  0.00  0.00    +0.000 A 
ATOM     24  S   UNL     1      50.662   4.006  18.179  0.00  0.00    +0.000 S 
ATOM     25  C   UNL     1      52.065   4.743  17.566  0.00  0.00    +0.000 A 
ATOM     26  N   UNL     1      53.302   4.248  17.820  0.00  0.00    +0.000 NA
ATOM     27  N   UNL     1      54.311   4.848  17.371  0.00  0.00    +0.000 NA
ATOM     28  N   UNL     1      54.137   5.979  16.625  0.00  0.00    +0.000 N 
ATOM     29  C   UNL     1      52.931   6.548  16.285  0.00  0.00    +0.000 A 
ATOM     30  O   UNL     1      52.860   7.552  15.583  0.00  0.00    +0.000 OA
ATOM     31  C   UNL     1      51.779   5.863  16.818  0.00  0.00    +0.000 A 
ATOM     32  H   UNL     1      54.982   6.418  16.286  0.00  0.00    +0.000 HD
ENDBRANCH  19  22
ENDBRANCH  17  18
ENDBRANCH   4  17
TORSDOF 7
ENDMDL
MODEL 9
REMARK VINA RESULT:    -6.984      3.836      8.695
REMARK INTER + INTRA:         -10.685
REMARK INTER:                  -9.294
REMARK INTRA:                  -1.391
REMARK UNBOUND:                -0.842
REMARK  Name = 
REMARK  8 active torsions:
REMARK  status: ('A' for Active; 'I' for Inactive)
REMARK    1  A    between atoms: C_1  and  N_2
REMARK    2  A    between atoms: N_2  and  C_3
REMARK    3  A    between atoms: N_2  and  C_10
REMARK    4  A    between atoms: C_3  and  C_4
REMARK    5  A    between atoms: C_10  and  C_11
REMARK    6  A    between atoms: C_14  and  C_15
REMARK    7  A    between atoms: C_15  and  N_16
REMARK    8  A    between atoms: C_17  and  C_19
REMARK                            x       y       z     vdW  Elec       q    Type
REMARK                         _______ _______ _______ _____ _____    ______ ____
ROOT
ATOM      1  C   UNL     1      49.588   7.541  16.173  0.00  0.00    +0.000 A 
ATOM      2  C   UNL     1      50.065   8.612  15.405  0.00  0.00    +0.000 A 
ATOM      3  C   UNL     1      49.645   8.786  14.080  0.00  0.00    +0.000 A 
ATOM      4  C   UNL     1      48.737   7.896  13.491  0.00  0.00    +0.000 A 
ATOM      5  C   UNL     1      48.304   6.793  14.237  0.00  0.00    +0.000 A 
ATOM      6  C   UNL     1      48.720   6.621  15.562  0.00  0.00    +0.000 A 
ENDROOT
BRANCH   1   7
ATOM      7  C   UNL     1      50.032   7.342  17.612  0.00  0.00    +0.000 C 
BRANCH   7   9
ATOM      8  C   UNL     1      52.294   7.032  18.430  0.00  0.00    +0.000 C 
ATOM      9  N   UNL     1      51.133   6.367  17.825  0.00  0.00    +0.000 NA
BRANCH   9  10
ATOM     10  C   UNL     1      50.624   5.286  18.706  0.00  0.00    +0.000 C 
BRANCH  10  11
ATOM     11  C   UNL     1      50.127   4.026  18.017  0.00  0.00    +0.000 A 
ATOM     12  C   UNL     1      48.767   3.890  17.691  0.00  0.00    +0.000 A 
ATOM     13  C   UNL     1      48.309   2.777  16.980  0.00  0.00    +0.000 A 
ATOM     14  C   UNL     1      49.204   1.784  16.584  0.00  0.00    +0.000 A 
ATOM     15  C   UNL     1      50.555   1.904  16.909  0.00  0.00    +0.000 A 
ATOM     16  C   UNL     1      51.015   3.018  17.621  0.00  0.00    +0.000 A 
ENDBRANCH  10  11
ENDBRANCH   9  10
ENDBRANCH   7   9
ENDBRANCH   1   7
BRANCH   4  17
ATOM     17  C   UNL     1      48.238   8.111  12.086  0.00  0.00    +0.000 C 
BRANCH  17  18
ATOM     18  N   UNL     1      47.554   6.954  11.565  0.00  0.00    +0.000 N 
ATOM     19  C   UNL     1      46.195   6.972  11.368  0.00  0.00    +0.000 C 
ATOM     20  O   UNL     1      45.517   7.972  11.599  0.00  0.00    +0.000 OA
ATOM     21  H   UNL     1      48.052   6.069  11.584  0.00  0.00    +0.000 HD
BRANCH  19  22
ATOM     22  C   UNL     1      45.590   5.754  10.817  0.00  0.00    +0.000 A 
ATOM     23  C   UNL     1      45.738   5.462   9.467  0.00  0.00    +0.000 A 
ATOM     24  S   UNL     1      45.016   3.986   9.003  0.00  0.00    +0.000 S 
ATOM     25  C   UNL     1      44.436   3.718  10.577  0.00  0.00    +0.000 A 
ATOM     26  N   UNL     1      43.692   2.628  10.890  0.00  0.00    +0.000 NA
ATOM     27  N   UNL     1      43.259   2.492  12.062  0.00  0.00    +0.000 NA
ATOM     28  N   UNL     1      43.560   3.440  12.999  0.00  0.00    +0.000 N 
ATOM     29  C   UNL     1      44.327   4.565  12.796  0.00  0.00    +0.000 A 
ATOM     30  O   UNL     1      44.576   5.355  13.701  0.00  0.00    +0.000 OA
ATOM     31  C   UNL     1      44.805   4.722  11.444  0.00  0.00    +0.000 A 
ATOM     32  H   UNL     1      43.190   3.279  13.925  0.00  0.00    +0.000 HD
ENDBRANCH  19  22
ENDBRANCH  17  18
ENDBRANCH   4  17
TORSDOF 7
ENDMDL
