MODEL 1
REMARK VINA RESULT:    -8.587      0.000      0.000
REMARK INTER + INTRA:         -13.489
REMARK INTER:                 -12.352
REMARK INTRA:                  -1.137
REMARK UNBOUND:                -1.137
REMARK  Name = 
REMARK  8 active torsions:
REMARK  status: ('A' for Active; 'I' for Inactive)
REMARK    1  A    between atoms: N_1  and  C_2
REMARK    2  A    between atoms: C_2  and  N_3
REMARK    3  A    between atoms: C_2  and  C_11
REMARK    4  A    between atoms: N_3  and  C_4
REMARK    5  A    between atoms: C_4  and  C_5
REMARK    6  A    between atoms: C_14  and  C_15
REMARK    7  A    between atoms: C_15  and  N_16
REMARK    8  A    between atoms: C_17  and  C_19
REMARK                            x       y       z     vdW  Elec       q    Type
REMARK                         _______ _______ _______ _____ _____    ______ ____
ROOT
ATOM      1  C   UNL     1      44.742   5.575  11.905  0.00  0.00    +0.000 A 
ATOM      2  C   UNL     1      45.081   4.920  13.104  0.00  0.00    +0.000 A 
ATOM      3  C   UNL     1      46.279   5.197  13.769  0.00  0.00    +0.000 A 
ATOM      4  C   UNL     1      47.159   6.160  13.266  0.00  0.00    +0.000 A 
ATOM      5  C   UNL     1      46.857   6.778  12.046  0.00  0.00    +0.000 A 
ATOM      6  C   UNL     1      45.666   6.488  11.374  0.00  0.00    +0.000 A 
ENDROOT
BRANCH   1   7
ATOM      7  C   UNL     1      43.417   5.255  11.234  0.00  0.00    +0.000 C 
BRANCH   7   8
ATOM      8  N   UNL     1      42.599   6.425  11.004  0.00  0.00    +0.000 NA
ATOM      9  H   UNL     1      42.704   7.011  11.829  0.00  0.00    +0.000 HD
ATOM     10  H   UNL     1      41.626   6.136  11.024  0.00  0.00    +0.000 HD
ENDBRANCH   7   8
BRANCH   7  11
ATOM     11  N   UNL     1      43.534   4.676   9.915  0.00  0.00    +0.000 NA
ATOM     12  H   UNL     1      44.197   5.220   9.371  0.00  0.00    +0.000 HD
BRANCH  11  13
ATOM     13  C   UNL     1      44.014   3.294   9.962  0.00  0.00    +0.000 C 
BRANCH  13  14
ATOM     14  C   UNL     1      45.082   3.037   8.924  0.00  0.00    +0.000 A 
ATOM     15  C   UNL     1      45.631   4.099   8.192  0.00  0.00    +0.000 A 
ATOM     16  C   UNL     1      46.653   3.870   7.268  0.00  0.00    +0.000 A 
ATOM     17  C   UNL     1      47.134   2.579   7.068  0.00  0.00    +0.000 A 
ATOM     18  C   UNL     1      46.591   1.513   7.784  0.00  0.00    +0.000 A 
ATOM     19  C   UNL     1      45.569   1.741   8.708  0.00  0.00    +0.000 A 
ENDBRANCH  13  14
ENDBRANCH  11  13
ENDBRANCH   7  11
ENDBRANCH   1   7
BRANCH   4  20
ATOM     20  C   UNL     1      48.418   6.516  14.007  0.00  0.00    +0.000 C 
BRANCH  20  21
ATOM     21  N   UNL     1      48.152   6.764  15.398  0.00  0.00    +0.000 N 
ATOM     22  C   UNL     1      49.107   6.519  16.350  0.00  0.00    +0.000 C 
ATOM     23  O   UNL     1      50.235   6.132  16.055  0.00  0.00    +0.000 OA
ATOM     24  H   UNL     1      47.181   6.866  15.673  0.00  0.00    +0.000 HD
BRANCH  22  25
ATOM     25  C   UNL     1      48.732   6.799  17.740  0.00  0.00    +0.000 A 
ATOM     26  C   UNL     1      48.438   8.102  18.116  0.00  0.00    +0.000 A 
ATOM     27  S   UNL     1      47.973   8.254  19.752  0.00  0.00    +0.000 S 
ATOM     28  C   UNL     1      48.199   6.589  20.025  0.00  0.00    +0.000 A 
ATOM     29  N   UNL     1      47.989   6.051  21.256  0.00  0.00    +0.000 NA
ATOM     30  C   UNL     1      48.226   4.785  21.332  0.00  0.00    +0.000 A 
ATOM     31  N   UNL     1      48.646   4.004  20.285  0.00  0.00    +0.000 N 
ATOM     32  C   UNL     1      48.839   4.499  19.017  0.00  0.00    +0.000 A 
ATOM     33  O   UNL     1      49.170   3.762  18.093  0.00  0.00    +0.000 OA
ATOM     34  C   UNL     1      48.602   5.923  18.881  0.00  0.00    +0.000 A 
ATOM     35  H   UNL     1      48.807   3.016  20.410  0.00  0.00    +0.000 HD
ENDBRANCH  22  25
ENDBRANCH  20  21
ENDBRANCH   4  20
TORSDOF 8
ENDMDL
MODEL 2
REMARK VINA RESULT:    -8.550      1.019      1.372
REMARK INTER + INTRA:         -13.435
REMARK INTER:                 -12.261
REMARK INTRA:                  -1.174
REMARK UNBOUND:                -1.137
REMARK  Name = 
REMARK  8 active torsions:
REMARK  status: ('A' for Active; 'I' for Inactive)
REMARK    1  A    between atoms: N_1  and  C_2
REMARK    2  A    between atoms: C_2  and  N_3
REMARK    3  A    between atoms: C_2  and  C_11
REMARK    4  A    between atoms: N_3  and  C_4
REMARK    5  A    between atoms: C_4  and  C_5
REMARK    6  A    between atoms: C_14  and  C_15
REMARK    7  A    between atoms: C_15  and  N_16
REMARK    8  A    between atoms: C_17  and  C_19
REMARK                            x       y       z     vdW  Elec       q    Type
REMARK                         _______ _______ _______ _____ _____    ______ ____
ROOT
ATOM      1  C   UNL     1      44.972   4.534  11.667  0.00  0.00    +0.000 A 
ATOM      2  C   UNL     1      45.547   4.230  12.915  0.00  0.00    +0.000 A 
ATOM      3  C   UNL     1      46.584   5.005  13.444  0.00  0.00    +0.000 A 
ATOM      4  C   UNL     1      47.053   6.124  12.750  0.00  0.00    +0.000 A 
ATOM      5  C   UNL     1      46.525   6.403  11.483  0.00  0.00    +0.000 A 
ATOM      6  C   UNL     1      45.499   5.617  10.948  0.00  0.00    +0.000 A 
ENDROOT
BRANCH   1   7
ATOM      7  C   UNL     1      43.831   3.674  11.147  0.00  0.00    +0.000 C 
BRANCH   7   8
ATOM      8  N   UNL     1      42.531   4.277  11.338  0.00  0.00    +0.000 NA
ATOM      9  H   UNL     1      42.204   4.543  10.412  0.00  0.00    +0.000 HD
ATOM     10  H   UNL     1      42.663   5.160  11.820  0.00  0.00    +0.000 HD
ENDBRANCH   7   8
BRANCH   7  11
ATOM     11  N   UNL     1      43.867   3.422   9.724  0.00  0.00    +0.000 NA
ATOM     12  H   UNL     1      44.397   4.160   9.270  0.00  0.00    +0.000 HD
BRANCH  11  13
ATOM     13  C   UNL     1      44.509   2.145   9.409  0.00  0.00    +0.000 C 
BRANCH  13  14
ATOM     14  C   UNL     1      45.595   2.306   8.370  0.00  0.00    +0.000 A 
ATOM     15  C   UNL     1      46.427   1.227   8.040  0.00  0.00    +0.000 A 
ATOM     16  C   UNL     1      47.398   1.359   7.045  0.00  0.00    +0.000 A 
ATOM     17  C   UNL     1      47.546   2.569   6.372  0.00  0.00    +0.000 A 
ATOM     18  C   UNL     1      46.730   3.652   6.697  0.00  0.00    +0.000 A 
ATOM     19  C   UNL     1      45.758   3.521   7.692  0.00  0.00    +0.000 A 
ENDBRANCH  13  14
ENDBRANCH  11  13
ENDBRANCH   7  11
ENDBRANCH   1   7
BRANCH   4  20
ATOM     20  C   UNL     1      48.120   7.005  13.339  0.00  0.00    +0.000 C 
BRANCH  20  21
ATOM     21  N   UNL     1      48.022   7.056  14.772  0.00  0.00    +0.000 N 
ATOM     22  C   UNL     1      49.135   6.912  15.559  0.00  0.00    +0.000 C 
ATOM     23  O   UNL     1      50.260   6.789  15.078  0.00  0.00    +0.000 OA
ATOM     24  H   UNL     1      47.100   6.935  15.178  0.00  0.00    +0.000 HD
BRANCH  22  25
ATOM     25  C   UNL     1      48.925   6.974  17.009  0.00  0.00    +0.000 A 
ATOM     26  C   UNL     1      48.682   8.200  17.610  0.00  0.00    +0.000 A 
ATOM     27  S   UNL     1      48.410   8.095  19.292  0.00  0.00    +0.000 S 
ATOM     28  C   UNL     1      48.660   6.412  19.281  0.00  0.00    +0.000 A 
ATOM     29  N   UNL     1      48.592   5.691  20.431  0.00  0.00    +0.000 NA
ATOM     30  C   UNL     1      48.832   4.431  20.286  0.00  0.00    +0.000 A 
ATOM     31  N   UNL     1      49.125   3.824  19.092  0.00  0.00    +0.000 N 
ATOM     32  C   UNL     1      49.172   4.508  17.900  0.00  0.00    +0.000 A 
ATOM     33  O   UNL     1      49.391   3.925  16.843  0.00  0.00    +0.000 OA
ATOM     34  C   UNL     1      48.925   5.933  18.010  0.00  0.00    +0.000 A 
ATOM     35  H   UNL     1      49.297   2.831  19.045  0.00  0.00    +0.000 HD
ENDBRANCH  22  25
ENDBRANCH  20  21
ENDBRANCH   4  20
TORSDOF 8
ENDMDL
MODEL 3
REMARK VINA RESULT:    -8.083      1.642      1.848
REMARK INTER + INTRA:         -12.765
REMARK INTER:                 -11.475
REMARK INTRA:                  -1.290
REMARK UNBOUND:                -1.137
REMARK  Name = 
REMARK  8 active torsions:
REMARK  status: ('A' for Active; 'I' for Inactive)
REMARK    1  A    between atoms: N_1  and  C_2
REMARK    2  A    between atoms: C_2  and  N_3
REMARK    3  A    between atoms: C_2  and  C_11
REMARK    4  A    between atoms: N_3  and  C_4
REMARK    5  A    between atoms: C_4  and  C_5
REMARK    6  A    between atoms: C_14  and  C_15
REMARK    7  A    between atoms: C_15  and  N_16
REMARK    8  A    between atoms: C_17  and  C_19
REMARK                            x       y       z     vdW  Elec       q    Type
REMARK                         _______ _______ _______ _____ _____    ______ ____
ROOT
ATOM      1  C   UNL     1      44.854   6.349  11.695  0.00  0.00    +0.000 A 
ATOM      2  C   UNL     1      45.908   5.484  12.042  0.00  0.00    +0.000 A 
ATOM      3  C   UNL     1      47.138   5.979  12.486  0.00  0.00    +0.000 A 
ATOM      4  C   UNL     1      47.335   7.357  12.621  0.00  0.00    +0.000 A 
ATOM      5  C   UNL     1      46.312   8.227  12.228  0.00  0.00    +0.000 A 
ATOM      6  C   UNL     1      45.088   7.730  11.769  0.00  0.00    +0.000 A 
ENDROOT
BRANCH   1   7
ATOM      7  C   UNL     1      43.529   5.758  11.241  0.00  0.00    +0.000 C 
BRANCH   7   8
ATOM      8  N   UNL     1      42.494   6.752  11.066  0.00  0.00    +0.000 NA
ATOM      9  H   UNL     1      42.033   6.529  10.186  0.00  0.00    +0.000 HD
ATOM     10  H   UNL     1      42.943   7.645  10.894  0.00  0.00    +0.000 HD
ENDBRANCH   7   8
BRANCH   7  11
ATOM     11  N   UNL     1      43.571   5.101   9.954  0.00  0.00    +0.000 NA
ATOM     12  H   UNL     1      44.289   5.538   9.383  0.00  0.00    +0.000 HD
BRANCH  11  13
ATOM     13  C   UNL     1      43.892   3.679  10.073  0.00  0.00    +0.000 C 
BRANCH  13  14
ATOM     14  C   UNL     1      44.922   3.249   9.055  0.00  0.00    +0.000 A 
ATOM     15  C   UNL     1      45.561   4.201   8.247  0.00  0.00    +0.000 A 
ATOM     16  C   UNL     1      46.550   3.812   7.340  0.00  0.00    +0.000 A 
ATOM     17  C   UNL     1      46.908   2.471   7.232  0.00  0.00    +0.000 A 
ATOM     18  C   UNL     1      46.273   1.514   8.024  0.00  0.00    +0.000 A 
ATOM     19  C   UNL     1      45.285   1.901   8.931  0.00  0.00    +0.000 A 
ENDBRANCH  13  14
ENDBRANCH  11  13
ENDBRANCH   7  11
ENDBRANCH   1   7
BRANCH   4  20
ATOM     20  C   UNL     1      48.629   7.901  13.162  0.00  0.00    +0.000 C 
BRANCH  20  21
ATOM     21  N   UNL     1      49.014   7.225  14.371  0.00  0.00    +0.000 N 
ATOM     22  C   UNL     1      48.746   7.774  15.598  0.00  0.00    +0.000 C 
ATOM     23  O   UNL     1      48.123   8.826  15.718  0.00  0.00    +0.000 OA
ATOM     24  H   UNL     1      49.707   6.488  14.290  0.00  0.00    +0.000 HD
BRANCH  22  25
ATOM     25  C   UNL     1      49.187   7.007  16.768  0.00  0.00    +0.000 A 
ATOM     26  C   UNL     1      50.095   7.575  17.651  0.00  0.00    +0.000 A 
ATOM     27  S   UNL     1      50.467   6.576  18.984  0.00  0.00    +0.000 S 
ATOM     28  C   UNL     1      49.467   5.330  18.398  0.00  0.00    +0.000 A 
ATOM     29  N   UNL     1      49.352   4.155  19.072  0.00  0.00    +0.000 NA
ATOM     30  C   UNL     1      48.586   3.286  18.502  0.00  0.00    +0.000 A 
ATOM     31  N   UNL     1      47.917   3.489  17.322  0.00  0.00    +0.000 N 
ATOM     32  C   UNL     1      47.978   4.672  16.625  0.00  0.00    +0.000 A 
ATOM     33  O   UNL     1      47.329   4.836  15.596  0.00  0.00    +0.000 OA
ATOM     34  C   UNL     1      48.841   5.679  17.214  0.00  0.00    +0.000 A 
ATOM     35  H   UNL     1      47.327   2.770  16.932  0.00  0.00    +0.000 HD
ENDBRANCH  22  25
ENDBRANCH  20  21
ENDBRANCH   4  20
TORSDOF 8
ENDMDL
MODEL 4
REMARK VINA RESULT:    -7.957      1.522      2.375
REMARK INTER + INTRA:         -12.582
REMARK INTER:                 -11.476
REMARK INTRA:                  -1.107
REMARK UNBOUND:                -1.137
REMARK  Name = 
REMARK  8 active torsions:
REMARK  status: ('A' for Active; 'I' for Inactive)
REMARK    1  A    between atoms: N_1  and  C_2
REMARK    2  A    between atoms: C_2  and  N_3
REMARK    3  A    between atoms: C_2  and  C_11
REMARK    4  A    between atoms: N_3  and  C_4
REMARK    5  A    between atoms: C_4  and  C_5
REMARK    6  A    between atoms: C_14  and  C_15
REMARK    7  A    between atoms: C_15  and  N_16
REMARK    8  A    between atoms: C_17  and  C_19
REMARK                            x       y       z     vdW  Elec       q    Type
REMARK                         _______ _______ _______ _____ _____    ______ ____
ROOT
ATOM      1  C   UNL     1      45.357   4.624  12.013  0.00  0.00    +0.000 A 
ATOM      2  C   UNL     1      45.922   4.155  13.214  0.00  0.00    +0.000 A 
ATOM      3  C   UNL     1      46.892   4.894  13.898  0.00  0.00    +0.000 A 
ATOM      4  C   UNL     1      47.301   6.140  13.411  0.00  0.00    +0.000 A 
ATOM      5  C   UNL     1      46.785   6.591  12.190  0.00  0.00    +0.000 A 
ATOM      6  C   UNL     1      45.827   5.841  11.499  0.00  0.00    +0.000 A 
ENDROOT
BRANCH   1   7
ATOM      7  C   UNL     1      44.290   3.792  11.322  0.00  0.00    +0.000 C 
BRANCH   7   8
ATOM      8  N   UNL     1      43.601   4.509  10.272  0.00  0.00    +0.000 NA
ATOM      9  H   UNL     1      42.614   4.285  10.377  0.00  0.00    +0.000 HD
ATOM     10  H   UNL     1      43.860   4.091   9.385  0.00  0.00    +0.000 HD
ENDBRANCH   7   8
BRANCH   7  11
ATOM     11  N   UNL     1      44.787   2.618  10.640  0.00  0.00    +0.000 NA
ATOM     12  H   UNL     1      44.417   1.788  11.095  0.00  0.00    +0.000 HD
BRANCH  11  13
ATOM     13  C   UNL     1      44.379   2.583   9.236  0.00  0.00    +0.000 C 
BRANCH  13  14
ATOM     14  C   UNL     1      45.569   2.511   8.308  0.00  0.00    +0.000 A 
ATOM     15  C   UNL     1      46.254   1.302   8.123  0.00  0.00    +0.000 A 
ATOM     16  C   UNL     1      47.322   1.221   7.227  0.00  0.00    +0.000 A 
ATOM     17  C   UNL     1      47.716   2.348   6.510  0.00  0.00    +0.000 A 
ATOM     18  C   UNL     1      47.049   3.559   6.692  0.00  0.00    +0.000 A 
ATOM     19  C   UNL     1      45.980   3.641   7.587  0.00  0.00    +0.000 A 
ENDBRANCH  13  14
ENDBRANCH  11  13
ENDBRANCH   7  11
ENDBRANCH   1   7
BRANCH   4  20
ATOM     20  C   UNL     1      48.292   6.976  14.172  0.00  0.00    +0.000 C 
BRANCH  20  21
ATOM     21  N   UNL     1      48.088   6.867  15.591  0.00  0.00    +0.000 N 
ATOM     22  C   UNL     1      49.082   6.399  16.410  0.00  0.00    +0.000 C 
ATOM     23  O   UNL     1      50.196   6.109  15.980  0.00  0.00    +0.000 OA
ATOM     24  H   UNL     1      47.129   6.887  15.924  0.00  0.00    +0.000 HD
BRANCH  22  25
ATOM     25  C   UNL     1      48.769   6.320  17.840  0.00  0.00    +0.000 A 
ATOM     26  C   UNL     1      48.995   5.133  18.522  0.00  0.00    +0.000 A 
ATOM     27  S   UNL     1      48.626   5.219  20.187  0.00  0.00    +0.000 S 
ATOM     28  C   UNL     1      48.102   6.832  20.041  0.00  0.00    +0.000 A 
ATOM     29  N   UNL     1      47.625   7.509  21.119  0.00  0.00    +0.000 NA
ATOM     30  C   UNL     1      47.234   8.712  20.863  0.00  0.00    +0.000 A 
ATOM     31  N   UNL     1      47.284   9.303  19.627  0.00  0.00    +0.000 N 
ATOM     32  C   UNL     1      47.787   8.668  18.517  0.00  0.00    +0.000 A 
ATOM     33  O   UNL     1      47.860   9.244  17.435  0.00  0.00    +0.000 OA
ATOM     34  C   UNL     1      48.227   7.305  18.746  0.00  0.00    +0.000 A 
ATOM     35  H   UNL     1      46.967  10.252  19.494  0.00  0.00    +0.000 HD
ENDBRANCH  22  25
ENDBRANCH  20  21
ENDBRANCH   4  20
TORSDOF 8
ENDMDL
MODEL 5
REMARK VINA RESULT:    -7.729      1.656      2.359
REMARK INTER + INTRA:         -12.254
REMARK INTER:                 -11.047
REMARK INTRA:                  -1.207
REMARK UNBOUND:                -1.137
REMARK  Name = 
REMARK  8 active torsions:
REMARK  status: ('A' for Active; 'I' for Inactive)
REMARK    1  A    between atoms: N_1  and  C_2
REMARK    2  A    between atoms: C_2  and  N_3
REMARK    3  A    between atoms: C_2  and  C_11
REMARK    4  A    between atoms: N_3  and  C_4
REMARK    5  A    between atoms: C_4  and  C_5
REMARK    6  A    between atoms: C_14  and  C_15
REMARK    7  A    between atoms: C_15  and  N_16
REMARK    8  A    between atoms: C_17  and  C_19
REMARK                            x       y       z     vdW  Elec       q    Type
REMARK                         _______ _______ _______ _____ _____    ______ ____
ROOT
ATOM      1  C   UNL     1      45.763   4.425  12.310  0.00  0.00    +0.000 A 
ATOM      2  C   UNL     1      45.754   5.656  11.627  0.00  0.00    +0.000 A 
ATOM      3  C   UNL     1      46.460   6.761  12.112  0.00  0.00    +0.000 A 
ATOM      4  C   UNL     1      47.218   6.654  13.282  0.00  0.00    +0.000 A 
ATOM      5  C   UNL     1      47.191   5.450  13.998  0.00  0.00    +0.000 A 
ATOM      6  C   UNL     1      46.470   4.352  13.519  0.00  0.00    +0.000 A 
ENDROOT
BRANCH   1   7
ATOM      7  C   UNL     1      44.998   3.249  11.727  0.00  0.00    +0.000 C 
BRANCH   7   8
ATOM      8  N   UNL     1      43.952   2.761  12.599  0.00  0.00    +0.000 NA
ATOM      9  H   UNL     1      44.293   1.884  12.986  0.00  0.00    +0.000 HD
ATOM     10  H   UNL     1      43.163   2.492  12.022  0.00  0.00    +0.000 HD
ENDBRANCH   7   8
BRANCH   7  11
ATOM     11  N   UNL     1      44.289   3.538  10.500  0.00  0.00    +0.000 NA
ATOM     12  H   UNL     1      44.732   4.328  10.040  0.00  0.00    +0.000 HD
BRANCH  11  13
ATOM     13  C   UNL     1      44.310   2.406   9.573  0.00  0.00    +0.000 C 
BRANCH  13  14
ATOM     14  C   UNL     1      45.438   2.521   8.575  0.00  0.00    +0.000 A 
ATOM     15  C   UNL     1      46.192   1.392   8.223  0.00  0.00    +0.000 A 
ATOM     16  C   UNL     1      47.201   1.485   7.262  0.00  0.00    +0.000 A 
ATOM     17  C   UNL     1      47.467   2.706   6.647  0.00  0.00    +0.000 A 
ATOM     18  C   UNL     1      46.730   3.837   6.994  0.00  0.00    +0.000 A 
ATOM     19  C   UNL     1      45.720   3.745   7.954  0.00  0.00    +0.000 A 
ENDBRANCH  13  14
ENDBRANCH  11  13
ENDBRANCH   7  11
ENDBRANCH   1   7
BRANCH   4  20
ATOM     20  C   UNL     1      48.037   7.813  13.779  0.00  0.00    +0.000 C 
BRANCH  20  21
ATOM     21  N   UNL     1      47.778   8.079  15.168  0.00  0.00    +0.000 N 
ATOM     22  C   UNL     1      48.454   9.068  15.833  0.00  0.00    +0.000 C 
ATOM     23  O   UNL     1      49.261   9.800  15.264  0.00  0.00    +0.000 OA
ATOM     24  H   UNL     1      47.293   7.359  15.695  0.00  0.00    +0.000 HD
BRANCH  22  25
ATOM     25  C   UNL     1      48.119   9.252  17.249  0.00  0.00    +0.000 A 
ATOM     26  C   UNL     1      47.871  10.530  17.729  0.00  0.00    +0.000 A 
ATOM     27  S   UNL     1      47.448  10.569  19.383  0.00  0.00    +0.000 S 
ATOM     28  C   UNL     1      47.633   8.883  19.524  0.00  0.00    +0.000 A 
ATOM     29  N   UNL     1      47.438   8.259  20.716  0.00  0.00    +0.000 NA
ATOM     30  C   UNL     1      47.640   6.985  20.690  0.00  0.00    +0.000 A 
ATOM     31  N   UNL     1      48.014   6.275  19.578  0.00  0.00    +0.000 N 
ATOM     32  C   UNL     1      48.191   6.860  18.346  0.00  0.00    +0.000 A 
ATOM     33  O   UNL     1      48.480   6.187  17.361  0.00  0.00    +0.000 OA
ATOM     34  C   UNL     1      47.991   8.296  18.323  0.00  0.00    +0.000 A 
ATOM     35  H   UNL     1      48.150   5.277  19.623  0.00  0.00    +0.000 HD
ENDBRANCH  22  25
ENDBRANCH  20  21
ENDBRANCH   4  20
TORSDOF 8
ENDMDL
MODEL 6
REMARK VINA RESULT:    -7.483      2.631      3.364
REMARK INTER + INTRA:         -11.901
REMARK INTER:                 -10.642
REMARK INTRA:                  -1.258
REMARK UNBOUND:                -1.137
REMARK  Name = 
REMARK  8 active torsions:
REMARK  status: ('A' for Active; 'I' for Inactive)
REMARK    1  A    between atoms: N_1  and  C_2
REMARK    2  A    between atoms: C_2  and  N_3
REMARK    3  A    between atoms: C_2  and  C_11
REMARK    4  A    between atoms: N_3  and  C_4
REMARK    5  A    between atoms: C_4  and  C_5
REMARK    6  A    between atoms: C_14  and  C_15
REMARK    7  A    between atoms: C_15  and  N_16
REMARK    8  A    between atoms: C_17  and  C_19
REMARK                            x       y       z     vdW  Elec       q    Type
REMARK                         _______ _______ _______ _____ _____    ______ ____
ROOT
ATOM      1  C   UNL     1      44.842   6.692  11.604  0.00  0.00    +0.000 A 
ATOM      2  C   UNL     1      46.122   6.113  11.686  0.00  0.00    +0.000 A 
ATOM      3  C   UNL     1      47.259   6.896  11.907  0.00  0.00    +0.000 A 
ATOM      4  C   UNL     1      47.141   8.278  12.081  0.00  0.00    +0.000 A 
ATOM      5  C   UNL     1      45.879   8.870  11.948  0.00  0.00    +0.000 A 
ATOM      6  C   UNL     1      44.745   8.087  11.711  0.00  0.00    +0.000 A 
ENDROOT
BRANCH   1   7
ATOM      7  C   UNL     1      43.635   5.794  11.386  0.00  0.00    +0.000 C 
BRANCH   7   8
ATOM      8  N   UNL     1      42.379   6.508  11.430  0.00  0.00    +0.000 NA
ATOM      9  H   UNL     1      41.830   6.165  10.645  0.00  0.00    +0.000 HD
ATOM     10  H   UNL     1      42.563   7.479  11.203  0.00  0.00    +0.000 HD
ENDBRANCH   7   8
BRANCH   7  11
ATOM     11  N   UNL     1      43.593   5.142  10.096  0.00  0.00    +0.000 NA
ATOM     12  H   UNL     1      44.279   5.575   9.484  0.00  0.00    +0.000 HD
BRANCH  11  13
ATOM     13  C   UNL     1      43.909   3.717  10.190  0.00  0.00    +0.000 C 
BRANCH  13  14
ATOM     14  C   UNL     1      44.907   3.293   9.138  0.00  0.00    +0.000 A 
ATOM     15  C   UNL     1      45.547   4.252   8.340  0.00  0.00    +0.000 A 
ATOM     16  C   UNL     1      46.508   3.867   7.402  0.00  0.00    +0.000 A 
ATOM     17  C   UNL     1      46.836   2.522   7.253  0.00  0.00    +0.000 A 
ATOM     18  C   UNL     1      46.200   1.558   8.035  0.00  0.00    +0.000 A 
ATOM     19  C   UNL     1      45.240   1.942   8.973  0.00  0.00    +0.000 A 
ENDBRANCH  13  14
ENDBRANCH  11  13
ENDBRANCH   7  11
ENDBRANCH   1   7
BRANCH   4  20
ATOM     20  C   UNL     1      48.347   9.122  12.387  0.00  0.00    +0.000 C 
BRANCH  20  21
ATOM     21  N   UNL     1      49.306   8.396  13.175  0.00  0.00    +0.000 N 
ATOM     22  C   UNL     1      50.317   9.050  13.831  0.00  0.00    +0.000 C 
ATOM     23  O   UNL     1      50.413  10.275  13.819  0.00  0.00    +0.000 OA
ATOM     24  H   UNL     1      49.373   7.396  13.018  0.00  0.00    +0.000 HD
BRANCH  22  25
ATOM     25  C   UNL     1      51.244   8.216  14.602  0.00  0.00    +0.000 A 
ATOM     26  C   UNL     1      52.611   8.377  14.425  0.00  0.00    +0.000 A 
ATOM     27  S   UNL     1      53.553   7.368  15.430  0.00  0.00    +0.000 S 
ATOM     28  C   UNL     1      52.164   6.646  16.097  0.00  0.00    +0.000 A 
ATOM     29  N   UNL     1      52.271   5.659  17.026  0.00  0.00    +0.000 NA
ATOM     30  C   UNL     1      51.143   5.179  17.425  0.00  0.00    +0.000 A 
ATOM     31  N   UNL     1      49.914   5.600  16.986  0.00  0.00    +0.000 N 
ATOM     32  C   UNL     1      49.758   6.615  16.072  0.00  0.00    +0.000 A 
ATOM     33  O   UNL     1      48.642   6.999  15.735  0.00  0.00    +0.000 OA
ATOM     34  C   UNL     1      50.999   7.181  15.577  0.00  0.00    +0.000 A 
ATOM     35  H   UNL     1      49.067   5.186  17.343  0.00  0.00    +0.000 HD
ENDBRANCH  22  25
ENDBRANCH  20  21
ENDBRANCH   4  20
TORSDOF 8
ENDMDL
MODEL 7
REMARK VINA RESULT:    -7.201      3.293      8.928
REMARK INTER + INTRA:         -11.495
REMARK INTER:                  -9.566
REMARK INTRA:                  -1.929
REMARK UNBOUND:                -1.137
REMARK  Name = 
REMARK  8 active torsions:
REMARK  status: ('A' for Active; 'I' for Inactive)
REMARK    1  A    between atoms: N_1  and  C_2
REMARK    2  A    between atoms: C_2  and  N_3
REMARK    3  A    between atoms: C_2  and  C_11
REMARK    4  A    between atoms: N_3  and  C_4
REMARK    5  A    between atoms: C_4  and  C_5
REMARK    6  A    between atoms: C_14  and  C_15
REMARK    7  A    between atoms: C_15  and  N_16
REMARK    8  A    between atoms: C_17  and  C_19
REMARK                            x       y       z     vdW  Elec       q    Type
REMARK                         _______ _______ _______ _____ _____    ______ ____
ROOT
ATOM      1  C   UNL     1      48.931   7.903  16.262  0.00  0.00    +0.000 A 
ATOM      2  C   UNL     1      48.207   8.978  15.715  0.00  0.00    +0.000 A 
ATOM      3  C   UNL     1      47.802   8.974  14.377  0.00  0.00    +0.000 A 
ATOM      4  C   UNL     1      48.087   7.878  13.557  0.00  0.00    +0.000 A 
ATOM      5  C   UNL     1      48.853   6.827  14.077  0.00  0.00    +0.000 A 
ATOM      6  C   UNL     1      49.271   6.840  15.411  0.00  0.00    +0.000 A 
ENDROOT
BRANCH   1   7
ATOM      7  C   UNL     1      49.328   7.946  17.729  0.00  0.00    +0.000 C 
BRANCH   7   8
ATOM      8  N   UNL     1      49.662   9.275  18.189  0.00  0.00    +0.000 NA
ATOM      9  H   UNL     1      48.915   9.553  18.821  0.00  0.00    +0.000 HD
ATOM     10  H   UNL     1      49.575   9.910  17.403  0.00  0.00    +0.000 HD
ENDBRANCH   7   8
BRANCH   7  11
ATOM     11  N   UNL     1      48.288   7.536  18.647  0.00  0.00    +0.000 NA
ATOM     12  H   UNL     1      47.439   7.346  18.122  0.00  0.00    +0.000 HD
BRANCH  11  13
ATOM     13  C   UNL     1      48.648   6.322  19.379  0.00  0.00    +0.000 C 
BRANCH  13  14
ATOM     14  C   UNL     1      48.509   5.087  18.520  0.00  0.00    +0.000 A 
ATOM     15  C   UNL     1      47.289   4.792  17.894  0.00  0.00    +0.000 A 
ATOM     16  C   UNL     1      47.172   3.679  17.058  0.00  0.00    +0.000 A 
ATOM     17  C   UNL     1      48.271   2.852  16.842  0.00  0.00    +0.000 A 
ATOM     18  C   UNL     1      49.487   3.130  17.465  0.00  0.00    +0.000 A 
ATOM     19  C   UNL     1      49.605   4.243  18.301  0.00  0.00    +0.000 A 
ENDBRANCH  13  14
ENDBRANCH  11  13
ENDBRANCH   7  11
ENDBRANCH   1   7
BRANCH   4  20
ATOM     20  C   UNL     1      47.599   7.831  12.136  0.00  0.00    +0.000 C 
BRANCH  20  21
ATOM     21  N   UNL     1      46.923   6.592  11.857  0.00  0.00    +0.000 N 
ATOM     22  C   UNL     1      45.564   6.485  11.998  0.00  0.00    +0.000 C 
ATOM     23  O   UNL     1      44.866   7.447  12.312  0.00  0.00    +0.000 OA
ATOM     24  H   UNL     1      47.492   5.753  11.816  0.00  0.00    +0.000 HD
BRANCH  22  25
ATOM     25  C   UNL     1      44.975   5.177  11.695  0.00  0.00    +0.000 A 
ATOM     26  C   UNL     1      44.286   4.495  12.687  0.00  0.00    +0.000 A 
ATOM     27  S   UNL     1      43.620   3.013  12.162  0.00  0.00    +0.000 S 
ATOM     28  C   UNL     1      44.276   3.210  10.603  0.00  0.00    +0.000 A 
ATOM     29  N   UNL     1      44.094   2.262   9.646  0.00  0.00    +0.000 NA
ATOM     30  C   UNL     1      44.669   2.523   8.521  0.00  0.00    +0.000 A 
ATOM     31  N   UNL     1      45.404   3.651   8.262  0.00  0.00    +0.000 N 
ATOM     32  C   UNL     1      45.587   4.650   9.189  0.00  0.00    +0.000 A 
ATOM     33  O   UNL     1      46.213   5.668   8.908  0.00  0.00    +0.000 OA
ATOM     34  C   UNL     1      44.974   4.399  10.479  0.00  0.00    +0.000 A 
ATOM     35  H   UNL     1      45.824   3.798   7.357  0.00  0.00    +0.000 HD
ENDBRANCH  22  25
ENDBRANCH  20  21
ENDBRANCH   4  20
TORSDOF 8
ENDMDL
MODEL 8
REMARK VINA RESULT:    -7.038      3.272      8.607
REMARK INTER + INTRA:         -11.261
REMARK INTER:                  -8.952
REMARK INTRA:                  -2.310
REMARK UNBOUND:                -1.137
REMARK  Name = 
REMARK  8 active torsions:
REMARK  status: ('A' for Active; 'I' for Inactive)
REMARK    1  A    between atoms: N_1  and  C_2
REMARK    2  A    between atoms: C_2  and  N_3
REMARK    3  A    between atoms: C_2  and  C_11
REMARK    4  A    between atoms: N_3  and  C_4
REMARK    5  A    between atoms: C_4  and  C_5
REMARK    6  A    between atoms: C_14  and  C_15
REMARK    7  A    between atoms: C_15  and  N_16
REMARK    8  A    between atoms: C_17  and  C_19
REMARK                            x       y       z     vdW  Elec       q    Type
REMARK                         _______ _______ _______ _____ _____    ______ ____
ROOT
ATOM      1  C   UNL     1      49.689   7.258  18.561  0.00  0.00    +0.000 A 
ATOM      2  C   UNL     1      48.628   8.160  18.360  0.00  0.00    +0.000 A 
ATOM      3  C   UNL     1      48.244   8.555  17.075  0.00  0.00    +0.000 A 
ATOM      4  C   UNL     1      48.895   8.032  15.953  0.00  0.00    +0.000 A 
ATOM      5  C   UNL     1      49.986   7.175  16.143  0.00  0.00    +0.000 A 
ATOM      6  C   UNL     1      50.379   6.795  17.430  0.00  0.00    +0.000 A 
ENDROOT
BRANCH   1   7
ATOM      7  C   UNL     1      50.052   6.843  19.977  0.00  0.00    +0.000 C 
BRANCH   7   8
ATOM      8  N   UNL     1      49.040   7.193  20.949  0.00  0.00    +0.000 NA
ATOM      9  H   UNL     1      49.386   8.020  21.432  0.00  0.00    +0.000 HD
ATOM     10  H   UNL     1      49.028   6.472  21.662  0.00  0.00    +0.000 HD
ENDBRANCH   7   8
BRANCH   7  11
ATOM     11  N   UNL     1      50.206   5.418  20.168  0.00  0.00    +0.000 NA
ATOM     12  H   UNL     1      50.678   5.251  21.052  0.00  0.00    +0.000 HD
BRANCH  11  13
ATOM     13  C   UNL     1      48.917   4.726  20.206  0.00  0.00    +0.000 C 
BRANCH  13  14
ATOM     14  C   UNL     1      48.544   4.160  18.856  0.00  0.00    +0.000 A 
ATOM     15  C   UNL     1      47.419   4.639  18.171  0.00  0.00    +0.000 A 
ATOM     16  C   UNL     1      47.102   4.153  16.901  0.00  0.00    +0.000 A 
ATOM     17  C   UNL     1      47.905   3.184  16.305  0.00  0.00    +0.000 A 
ATOM     18  C   UNL     1      49.022   2.693  16.980  0.00  0.00    +0.000 A 
ATOM     19  C   UNL     1      49.340   3.179  18.250  0.00  0.00    +0.000 A 
ENDBRANCH  13  14
ENDBRANCH  11  13
ENDBRANCH   7  11
ENDBRANCH   1   7
BRANCH   4  20
ATOM     20  C   UNL     1      48.447   8.395  14.564  0.00  0.00    +0.000 C 
BRANCH  20  21
ATOM     21  N   UNL     1      47.405   7.517  14.105  0.00  0.00    +0.000 N 
ATOM     22  C   UNL     1      47.693   6.438  13.310  0.00  0.00    +0.000 C 
ATOM     23  O   UNL     1      48.847   6.146  13.003  0.00  0.00    +0.000 OA
ATOM     24  H   UNL     1      46.451   7.861  14.161  0.00  0.00    +0.000 HD
BRANCH  22  25
ATOM     25  C   UNL     1      46.556   5.611  12.892  0.00  0.00    +0.000 A 
ATOM     26  C   UNL     1      46.623   4.234  13.048  0.00  0.00    +0.000 A 
ATOM     27  S   UNL     1      45.204   3.421  12.561  0.00  0.00    +0.000 S 
ATOM     28  C   UNL     1      44.471   4.879  12.077  0.00  0.00    +0.000 A 
ATOM     29  N   UNL     1      43.225   4.885  11.534  0.00  0.00    +0.000 NA
ATOM     30  C   UNL     1      42.802   6.052  11.183  0.00  0.00    +0.000 A 
ATOM     31  N   UNL     1      43.510   7.217  11.332  0.00  0.00    +0.000 N 
ATOM     32  C   UNL     1      44.759   7.262  11.904  0.00  0.00    +0.000 A 
ATOM     33  O   UNL     1      45.344   8.328  12.065  0.00  0.00    +0.000 OA
ATOM     34  C   UNL     1      45.289   5.972  12.303  0.00  0.00    +0.000 A 
ATOM     35  H   UNL     1      43.118   8.100  11.042  0.00  0.00    +0.000 HD
ENDBRANCH  22  25
ENDBRANCH  20  21
ENDBRANCH   4  20
TORSDOF 8
ENDMDL
MODEL 9
REMARK VINA RESULT:    -6.905      3.432      9.369
REMARK INTER + INTRA:         -11.070
REMARK INTER:                  -9.215
REMARK INTRA:                  -1.855
REMARK UNBOUND:                -1.137
REMARK  Name = 
REMARK  8 active torsions:
REMARK  status: ('A' for Active; 'I' for Inactive)
REMARK    1  A    between atoms: N_1  and  C_2
REMARK    2  A    between atoms: C_2  and  N_3
REMARK    3  A    between atoms: C_2  and  C_11
REMARK    4  A    between atoms: N_3  and  C_4
REMARK    5  A    between atoms: C_4  and  C_5
REMARK    6  A    between atoms: C_14  and  C_15
REMARK    7  A    between atoms: C_15  and  N_16
REMARK    8  A    between atoms: C_17  and  C_19
REMARK                            x       y       z     vdW  Elec       q    Type
REMARK                         _______ _______ _______ _____ _____    ______ ____
ROOT
ATOM      1  C   UNL     1      48.529   5.561  20.193  0.00  0.00    +0.000 A 
ATOM      2  C   UNL     1      49.397   4.601  19.642  0.00  0.00    +0.000 A 
ATOM      3  C   UNL     1      49.103   3.965  18.432  0.00  0.00    +0.000 A 
ATOM      4  C   UNL     1      47.942   4.297  17.726  0.00  0.00    +0.000 A 
ATOM      5  C   UNL     1      47.046   5.212  18.291  0.00  0.00    +0.000 A 
ATOM      6  C   UNL     1      47.334   5.834  19.510  0.00  0.00    +0.000 A 
ENDROOT
BRANCH   1   7
ATOM      7  C   UNL     1      48.908   6.240  21.499  0.00  0.00    +0.000 C 
BRANCH   7   8
ATOM      8  N   UNL     1      50.304   6.079  21.840  0.00  0.00    +0.000 NA
ATOM      9  H   UNL     1      50.663   5.350  21.228  0.00  0.00    +0.000 HD
ATOM     10  H   UNL     1      50.355   5.675  22.769  0.00  0.00    +0.000 HD
ENDBRANCH   7   8
BRANCH   7  11
ATOM     11  N   UNL     1      48.735   7.675  21.505  0.00  0.00    +0.000 NA
ATOM     12  H   UNL     1      48.761   8.009  22.465  0.00  0.00    +0.000 HD
BRANCH  11  13
ATOM     13  C   UNL     1      49.793   8.359  20.761  0.00  0.00    +0.000 C 
BRANCH  13  14
ATOM     14  C   UNL     1      49.417   8.563  19.312  0.00  0.00    +0.000 A 
ATOM     15  C   UNL     1      50.193   7.997  18.291  0.00  0.00    +0.000 A 
ATOM     16  C   UNL     1      49.819   8.141  16.953  0.00  0.00    +0.000 A 
ATOM     17  C   UNL     1      48.668   8.853  16.624  0.00  0.00    +0.000 A 
ATOM     18  C   UNL     1      47.893   9.428  17.631  0.00  0.00    +0.000 A 
ATOM     19  C   UNL     1      48.265   9.284  18.969  0.00  0.00    +0.000 A 
ENDBRANCH  13  14
ENDBRANCH  11  13
ENDBRANCH   7  11
ENDBRANCH   1   7
BRANCH   4  20
ATOM     20  C   UNL     1      47.647   3.671  16.390  0.00  0.00    +0.000 C 
BRANCH  20  21
ATOM     21  N   UNL     1      46.986   4.599  15.514  0.00  0.00    +0.000 N 
ATOM     22  C   UNL     1      46.803   4.306  14.188  0.00  0.00    +0.000 C 
ATOM     23  O   UNL     1      47.142   3.226  13.708  0.00  0.00    +0.000 OA
ATOM     24  H   UNL     1      46.903   5.560  15.833  0.00  0.00    +0.000 HD
BRANCH  22  25
ATOM     25  C   UNL     1      46.123   5.323  13.379  0.00  0.00    +0.000 A 
ATOM     26  C   UNL     1      46.757   6.532  13.133  0.00  0.00    +0.000 A 
ATOM     27  S   UNL     1      45.857   7.587  12.138  0.00  0.00    +0.000 S 
ATOM     28  C   UNL     1      44.565   6.482  12.045  0.00  0.00    +0.000 A 
ATOM     29  N   UNL     1      43.439   6.784  11.346  0.00  0.00    +0.000 NA
ATOM     30  C   UNL     1      42.528   5.872  11.383  0.00  0.00    +0.000 A 
ATOM     31  N   UNL     1      42.643   4.679  12.049  0.00  0.00    +0.000 N 
ATOM     32  C   UNL     1      43.775   4.318  12.741  0.00  0.00    +0.000 A 
ATOM     33  O   UNL     1      43.861   3.222  13.287  0.00  0.00    +0.000 OA
ATOM     34  C   UNL     1      44.826   5.317  12.745  0.00  0.00    +0.000 A 
ATOM     35  H   UNL     1      41.894   4.003  12.033  0.00  0.00    +0.000 HD
ENDBRANCH  22  25
ENDBRANCH  20  21
ENDBRANCH   4  20
TORSDOF 8
ENDMDL
