MODEL 1
REMARK VINA RESULT:    -7.484      0.000      0.000
REMARK INTER + INTRA:         -10.469
REMARK INTER:                  -9.890
REMARK INTRA:                  -0.579
REMARK UNBOUND:                -0.579
REMARK  Name = 
REMARK  6 active torsions:
REMARK  status: ('A' for Active; 'I' for Inactive)
REMARK    1  A    between atoms: C_2  and  C_4
REMARK    2  A    between atoms: C_7  and  O_8
REMARK    3  A    between atoms: C_9  and  N_10
REMARK    4  A    between atoms: N_10  and  C_11
REMARK    5  A    between atoms: C_11  and  C_12
REMARK    6  A    between atoms: C_17  and  N_18
REMARK                            x       y       z     vdW  Elec       q    Type
REMARK                         _______ _______ _______ _____ _____    ______ ____
ROOT
ATOM      1  N   UNL     1      44.123   4.996   9.547  0.00  0.00    +0.000 N 
ATOM      2  H   UNL     1      44.473   5.835   9.094  0.00  0.00    +0.000 HD
ENDROOT
BRANCH   1   7
ATOM      3  C   UNL     1      46.309   2.821   7.499  0.00  0.00    +0.000 A 
ATOM      4  C   UNL     1      46.037   1.548   8.001  0.00  0.00    +0.000 A 
ATOM      5  C   UNL     1      45.144   1.399   9.057  0.00  0.00    +0.000 A 
ATOM      6  C   UNL     1      44.516   2.523   9.610  0.00  0.00    +0.000 A 
ATOM      7  C   UNL     1      44.785   3.827   9.146  0.00  0.00    +0.000 A 
ATOM      8  C   UNL     1      45.695   3.945   8.079  0.00  0.00    +0.000 A 
BRANCH   3  10
ATOM      9  N   UNL     1      48.507   2.527   6.499  0.00  0.00    +0.000 N 
ATOM     10  C   UNL     1      47.239   3.026   6.362  0.00  0.00    +0.000 C 
ATOM     11  O   UNL     1      46.889   3.583   5.330  0.00  0.00    +0.000 OA
ATOM     12  H   UNL     1      49.090   2.562   5.676  0.00  0.00    +0.000 HD
ATOM     13  H   UNL     1      48.742   1.843   7.207  0.00  0.00    +0.000 HD
ENDBRANCH   3  10
BRANCH   6  14
ATOM     14  O   UNL     1      43.639   2.315  10.643  0.00  0.00    +0.000 OA
ATOM     15  H   UNL     1      43.006   1.624  10.392  0.00  0.00    +0.000 HD
ENDBRANCH   6  14
ENDBRANCH   1   7
BRANCH   1  16
ATOM     16  C   UNL     1      43.733   5.194  10.932  0.00  0.00    +0.000 C 
BRANCH  16  17
ATOM     17  C   UNL     1      44.951   5.422  11.802  0.00  0.00    +0.000 A 
ATOM     18  C   UNL     1      45.240   4.557  12.854  0.00  0.00    +0.000 A 
ATOM     19  C   UNL     1      46.307   4.837  13.700  0.00  0.00    +0.000 A 
ATOM     20  C   UNL     1      47.106   5.977  13.503  0.00  0.00    +0.000 A 
ATOM     21 CL   UNL     1      48.261   6.273  14.766  0.00  0.00    +0.000 Cl
ATOM     22  C   UNL     1      46.894   6.852  12.408  0.00  0.00    +0.000 A 
ATOM     23  C   UNL     1      45.797   6.526  11.576  0.00  0.00    +0.000 A 
BRANCH  22  24
ATOM     24  N   UNL     1      47.672   7.954  12.089  0.00  0.00    +0.000 N 
ATOM     25  C   UNL     1      49.009   7.834  11.479  0.00  0.00    +0.000 C 
ATOM     26  C   UNL     1      49.997   8.737  12.233  0.00  0.00    +0.000 C 
ATOM     27  O   UNL     1      49.557  10.106  12.221  0.00  0.00    +0.000 OA
ATOM     28  C   UNL     1      48.275  10.217  12.858  0.00  0.00    +0.000 C 
ATOM     29  C   UNL     1      47.203   9.347  12.178  0.00  0.00    +0.000 C 
ENDBRANCH  22  24
ENDBRANCH  16  17
ENDBRANCH   1  16
TORSDOF 6
ENDMDL
MODEL 2
REMARK VINA RESULT:    -7.005      4.257      8.030
REMARK INTER + INTRA:          -9.837
REMARK INTER:                  -9.081
REMARK INTRA:                  -0.756
REMARK UNBOUND:                -0.579
REMARK  Name = 
REMARK  6 active torsions:
REMARK  status: ('A' for Active; 'I' for Inactive)
REMARK    1  A    between atoms: C_2  and  C_4
REMARK    2  A    between atoms: C_7  and  O_8
REMARK    3  A    between atoms: C_9  and  N_10
REMARK    4  A    between atoms: N_10  and  C_11
REMARK    5  A    between atoms: C_11  and  C_12
REMARK    6  A    between atoms: C_17  and  N_18
REMARK                            x       y       z     vdW  Elec       q    Type
REMARK                         _______ _______ _______ _____ _____    ______ ____
ROOT
ATOM      1  N   UNL     1      48.480   7.020  16.111  0.00  0.00    +0.000 N 
ATOM      2  H   UNL     1      47.643   7.592  16.187  0.00  0.00    +0.000 HD
ENDROOT
BRANCH   1   7
ATOM      3  C   UNL     1      49.166   3.674  17.534  0.00  0.00    +0.000 A 
ATOM      4  C   UNL     1      48.587   3.751  18.801  0.00  0.00    +0.000 A 
ATOM      5  C   UNL     1      47.988   4.936  19.215  0.00  0.00    +0.000 A 
ATOM      6  C   UNL     1      47.962   6.046  18.359  0.00  0.00    +0.000 A 
ATOM      7  C   UNL     1      48.558   6.013  17.081  0.00  0.00    +0.000 A 
ATOM      8  C   UNL     1      49.159   4.800  16.693  0.00  0.00    +0.000 A 
BRANCH   3  10
ATOM      9  N   UNL     1      50.831   1.919  17.787  0.00  0.00    +0.000 N 
ATOM     10  C   UNL     1      49.799   2.425  17.044  0.00  0.00    +0.000 C 
ATOM     11  O   UNL     1      49.401   1.846  16.041  0.00  0.00    +0.000 OA
ATOM     12  H   UNL     1      51.171   1.007  17.515  0.00  0.00    +0.000 HD
ATOM     13  H   UNL     1      51.003   2.213  18.740  0.00  0.00    +0.000 HD
ENDBRANCH   3  10
BRANCH   6  14
ATOM     14  O   UNL     1      47.350   7.185  18.816  0.00  0.00    +0.000 OA
ATOM     15  H   UNL     1      47.821   7.961  18.472  0.00  0.00    +0.000 HD
ENDBRANCH   6  14
ENDBRANCH   1   7
BRANCH   1  16
ATOM     16  C   UNL     1      48.898   6.773  14.743  0.00  0.00    +0.000 C 
BRANCH  16  17
ATOM     17  C   UNL     1      47.755   7.023  13.782  0.00  0.00    +0.000 A 
ATOM     18  C   UNL     1      47.337   8.322  13.503  0.00  0.00    +0.000 A 
ATOM     19  C   UNL     1      46.225   8.527  12.693  0.00  0.00    +0.000 A 
ATOM     20  C   UNL     1      45.521   7.441  12.144  0.00  0.00    +0.000 A 
ATOM     21 CL   UNL     1      44.050   7.876  11.329  0.00  0.00    +0.000 Cl
ATOM     22  C   UNL     1      45.945   6.104  12.344  0.00  0.00    +0.000 A 
ATOM     23  C   UNL     1      47.080   5.945  13.174  0.00  0.00    +0.000 A 
BRANCH  22  24
ATOM     24  N   UNL     1      45.363   4.976  11.784  0.00  0.00    +0.000 N 
ATOM     25  C   UNL     1      45.252   4.779  10.327  0.00  0.00    +0.000 C 
ATOM     26  C   UNL     1      43.821   4.338   9.980  0.00  0.00    +0.000 C 
ATOM     27  O   UNL     1      43.468   3.134  10.682  0.00  0.00    +0.000 OA
ATOM     28  C   UNL     1      43.536   3.352  12.100  0.00  0.00    +0.000 C 
ATOM     29  C   UNL     1      44.935   3.800  12.559  0.00  0.00    +0.000 C 
ENDBRANCH  22  24
ENDBRANCH  16  17
ENDBRANCH   1  16
TORSDOF 6
ENDMDL
MODEL 3
REMARK VINA RESULT:    -6.903      4.310      7.952
REMARK INTER + INTRA:          -9.701
REMARK INTER:                  -8.914
REMARK INTRA:                  -0.787
REMARK UNBOUND:                -0.579
REMARK  Name = 
REMARK  6 active torsions:
REMARK  status: ('A' for Active; 'I' for Inactive)
REMARK    1  A    between atoms: C_2  and  C_4
REMARK    2  A    between atoms: C_7  and  O_8
REMARK    3  A    between atoms: C_9  and  N_10
REMARK    4  A    between atoms: N_10  and  C_11
REMARK    5  A    between atoms: C_11  and  C_12
REMARK    6  A    between atoms: C_17  and  N_18
REMARK                            x       y       z     vdW  Elec       q    Type
REMARK                         _______ _______ _______ _____ _____    ______ ____
ROOT
ATOM      1  N   UNL     1      48.323   6.498  16.135  0.00  0.00    +0.000 N 
ATOM      2  H   UNL     1      47.367   6.798  16.305  0.00  0.00    +0.000 HD
ENDROOT
BRANCH   1   7
ATOM      3  C   UNL     1      50.357   3.771  17.593  0.00  0.00    +0.000 A 
ATOM      4  C   UNL     1      49.499   2.673  17.523  0.00  0.00    +0.000 A 
ATOM      5  C   UNL     1      48.213   2.834  17.019  0.00  0.00    +0.000 A 
ATOM      6  C   UNL     1      47.783   4.094  16.578  0.00  0.00    +0.000 A 
ATOM      7  C   UNL     1      48.614   5.231  16.657  0.00  0.00    +0.000 A 
ATOM      8  C   UNL     1      49.908   5.036  17.174  0.00  0.00    +0.000 A 
BRANCH   3  10
ATOM      9  N   UNL     1      52.138   2.401  18.523  0.00  0.00    +0.000 N 
ATOM     10  C   UNL     1      51.743   3.643  18.106  0.00  0.00    +0.000 C 
ATOM     11  O   UNL     1      52.518   4.591  18.125  0.00  0.00    +0.000 OA
ATOM     12  H   UNL     1      53.117   2.299  18.753  0.00  0.00    +0.000 HD
ATOM     13  H   UNL     1      51.629   1.562  18.275  0.00  0.00    +0.000 HD
ENDBRANCH   3  10
BRANCH   6  14
ATOM     14  O   UNL     1      46.508   4.191  16.083  0.00  0.00    +0.000 OA
ATOM     15  H   UNL     1      46.448   4.970  15.507  0.00  0.00    +0.000 HD
ENDBRANCH   6  14
ENDBRANCH   1   7
BRANCH   1  16
ATOM     16  C   UNL     1      48.846   6.911  14.845  0.00  0.00    +0.000 C 
BRANCH  16  17
ATOM     17  C   UNL     1      47.719   7.136  13.859  0.00  0.00    +0.000 A 
ATOM     18  C   UNL     1      47.274   8.425  13.577  0.00  0.00    +0.000 A 
ATOM     19  C   UNL     1      46.176   8.606  12.743  0.00  0.00    +0.000 A 
ATOM     20  C   UNL     1      45.513   7.505  12.173  0.00  0.00    +0.000 A 
ATOM     21 CL   UNL     1      44.050   7.906  11.326  0.00  0.00    +0.000 Cl
ATOM     22  C   UNL     1      45.967   6.178  12.376  0.00  0.00    +0.000 A 
ATOM     23  C   UNL     1      47.087   6.045  13.231  0.00  0.00    +0.000 A 
BRANCH  22  24
ATOM     24  N   UNL     1      45.428   5.039  11.799  0.00  0.00    +0.000 N 
ATOM     25  C   UNL     1      45.272   4.885  10.340  0.00  0.00    +0.000 C 
ATOM     26  C   UNL     1      43.856   4.375  10.030  0.00  0.00    +0.000 C 
ATOM     27  O   UNL     1      43.597   3.130  10.701  0.00  0.00    +0.000 OA
ATOM     28  C   UNL     1      43.707   3.304  12.122  0.00  0.00    +0.000 C 
ATOM     29  C   UNL     1      45.095   3.814  12.547  0.00  0.00    +0.000 C 
ENDBRANCH  22  24
ENDBRANCH  16  17
ENDBRANCH   1  16
TORSDOF 6
ENDMDL
MODEL 4
REMARK VINA RESULT:    -6.884      2.379      3.362
REMARK INTER + INTRA:          -9.676
REMARK INTER:                  -9.557
REMARK INTRA:                  -0.119
REMARK UNBOUND:                -0.579
REMARK  Name = 
REMARK  6 active torsions:
REMARK  status: ('A' for Active; 'I' for Inactive)
REMARK    1  A    between atoms: C_2  and  C_4
REMARK    2  A    between atoms: C_7  and  O_8
REMARK    3  A    between atoms: C_9  and  N_10
REMARK    4  A    between atoms: N_10  and  C_11
REMARK    5  A    between atoms: C_11  and  C_12
REMARK    6  A    between atoms: C_17  and  N_18
REMARK                            x       y       z     vdW  Elec       q    Type
REMARK                         _______ _______ _______ _____ _____    ______ ____
ROOT
ATOM      1  N   UNL     1      44.675   5.211  10.115  0.00  0.00    +0.000 N 
ATOM      2  H   UNL     1      45.097   6.024   9.675  0.00  0.00    +0.000 HD
ENDROOT
BRANCH   1   7
ATOM      3  C   UNL     1      46.270   2.931   7.675  0.00  0.00    +0.000 A 
ATOM      4  C   UNL     1      45.736   1.688   8.017  0.00  0.00    +0.000 A 
ATOM      5  C   UNL     1      44.860   1.586   9.093  0.00  0.00    +0.000 A 
ATOM      6  C   UNL     1      44.512   2.729   9.826  0.00  0.00    +0.000 A 
ATOM      7  C   UNL     1      45.051   3.997   9.525  0.00  0.00    +0.000 A 
ATOM      8  C   UNL     1      45.936   4.067   8.433  0.00  0.00    +0.000 A 
BRANCH   3  10
ATOM      9  N   UNL     1      48.455   2.583   6.666  0.00  0.00    +0.000 N 
ATOM     10  C   UNL     1      47.192   3.090   6.524  0.00  0.00    +0.000 C 
ATOM     11  O   UNL     1      46.839   3.618   5.477  0.00  0.00    +0.000 OA
ATOM     12  H   UNL     1      49.032   2.586   5.836  0.00  0.00    +0.000 HD
ATOM     13  H   UNL     1      48.691   1.919   7.393  0.00  0.00    +0.000 HD
ENDBRANCH   3  10
BRANCH   6  14
ATOM     14  O   UNL     1      43.638   2.570  10.870  0.00  0.00    +0.000 OA
ATOM     15  H   UNL     1      42.827   2.147  10.547  0.00  0.00    +0.000 HD
ENDBRANCH   6  14
ENDBRANCH   1   7
BRANCH   1  16
ATOM     16  C   UNL     1      44.538   5.329  11.556  0.00  0.00    +0.000 C 
BRANCH  16  17
ATOM     17  C   UNL     1      45.797   5.907  12.166  0.00  0.00    +0.000 A 
ATOM     18  C   UNL     1      46.507   6.907  11.506  0.00  0.00    +0.000 A 
ATOM     19  C   UNL     1      47.712   7.358  12.036  0.00  0.00    +0.000 A 
ATOM     20  C   UNL     1      48.218   6.824  13.234  0.00  0.00    +0.000 A 
ATOM     21 CL   UNL     1      49.821   7.358  13.638  0.00  0.00    +0.000 Cl
ATOM     22  C   UNL     1      47.501   5.853  13.977  0.00  0.00    +0.000 A 
ATOM     23  C   UNL     1      46.282   5.427  13.399  0.00  0.00    +0.000 A 
BRANCH  22  24
ATOM     24  N   UNL     1      47.881   5.326  15.202  0.00  0.00    +0.000 N 
ATOM     25  C   UNL     1      47.611   3.927  15.582  0.00  0.00    +0.000 C 
ATOM     26  C   UNL     1      47.011   3.890  16.996  0.00  0.00    +0.000 C 
ATOM     27  O   UNL     1      47.892   4.511  17.947  0.00  0.00    +0.000 OA
ATOM     28  C   UNL     1      48.110   5.885  17.592  0.00  0.00    +0.000 C 
ATOM     29  C   UNL     1      48.714   6.039  16.184  0.00  0.00    +0.000 C 
ENDBRANCH  22  24
ENDBRANCH  16  17
ENDBRANCH   1  16
TORSDOF 6
ENDMDL
MODEL 5
REMARK VINA RESULT:    -6.799      4.142      5.836
REMARK INTER + INTRA:          -9.564
REMARK INTER:                  -8.803
REMARK INTRA:                  -0.761
REMARK UNBOUND:                -0.579
REMARK  Name = 
REMARK  6 active torsions:
REMARK  status: ('A' for Active; 'I' for Inactive)
REMARK    1  A    between atoms: C_2  and  C_4
REMARK    2  A    between atoms: C_7  and  O_8
REMARK    3  A    between atoms: C_9  and  N_10
REMARK    4  A    between atoms: N_10  and  C_11
REMARK    5  A    between atoms: C_11  and  C_12
REMARK    6  A    between atoms: C_17  and  N_18
REMARK                            x       y       z     vdW  Elec       q    Type
REMARK                         _______ _______ _______ _____ _____    ______ ____
ROOT
ATOM      1  N   UNL     1      46.065   4.517  14.613  0.00  0.00    +0.000 N 
ATOM      2  H   UNL     1      45.771   5.064  15.417  0.00  0.00    +0.000 HD
ENDROOT
BRANCH   1   7
ATOM      3  C   UNL     1      44.888   4.837  11.118  0.00  0.00    +0.000 A 
ATOM      4  C   UNL     1      45.360   6.096  10.746  0.00  0.00    +0.000 A 
ATOM      5  C   UNL     1      46.050   6.875  11.670  0.00  0.00    +0.000 A 
ATOM      6  C   UNL     1      46.275   6.393  12.967  0.00  0.00    +0.000 A 
ATOM      7  C   UNL     1      45.791   5.136  13.386  0.00  0.00    +0.000 A 
ATOM      8  C   UNL     1      45.094   4.374  12.430  0.00  0.00    +0.000 A 
BRANCH   3  10
ATOM      9  N   UNL     1      44.110   4.382   8.859  0.00  0.00    +0.000 N 
ATOM     10  C   UNL     1      44.164   3.965  10.162  0.00  0.00    +0.000 C 
ATOM     11  O   UNL     1      43.664   2.901  10.504  0.00  0.00    +0.000 OA
ATOM     12  H   UNL     1      43.724   3.724   8.197  0.00  0.00    +0.000 HD
ATOM     13  H   UNL     1      44.727   5.099   8.497  0.00  0.00    +0.000 HD
ENDBRANCH   3  10
BRANCH   6  14
ATOM     14  O   UNL     1      46.968   7.200  13.832  0.00  0.00    +0.000 OA
ATOM     15  H   UNL     1      47.282   6.669  14.582  0.00  0.00    +0.000 HD
ENDBRANCH   6  14
ENDBRANCH   1   7
BRANCH   1  16
ATOM     16  C   UNL     1      47.303   3.788  14.820  0.00  0.00    +0.000 C 
BRANCH  16  17
ATOM     17  C   UNL     1      47.793   3.960  16.242  0.00  0.00    +0.000 A 
ATOM     18  C   UNL     1      47.963   2.852  17.070  0.00  0.00    +0.000 A 
ATOM     19  C   UNL     1      48.321   3.037  18.401  0.00  0.00    +0.000 A 
ATOM     20  C   UNL     1      48.523   4.328  18.921  0.00  0.00    +0.000 A 
ATOM     21 CL   UNL     1      48.766   4.380  20.640  0.00  0.00    +0.000 Cl
ATOM     22  C   UNL     1      48.427   5.482  18.104  0.00  0.00    +0.000 A 
ATOM     23  C   UNL     1      48.060   5.243  16.759  0.00  0.00    +0.000 A 
BRANCH  22  24
ATOM     24  N   UNL     1      48.680   6.784  18.507  0.00  0.00    +0.000 N 
ATOM     25  C   UNL     1      47.667   7.621  19.176  0.00  0.00    +0.000 C 
ATOM     26  C   UNL     1      47.627   9.004  18.509  0.00  0.00    +0.000 C 
ATOM     27  O   UNL     1      48.916   9.638  18.556  0.00  0.00    +0.000 OA
ATOM     28  C   UNL     1      49.885   8.836  17.861  0.00  0.00    +0.000 C 
ATOM     29  C   UNL     1      50.007   7.420  18.452  0.00  0.00    +0.000 C 
ENDBRANCH  22  24
ENDBRANCH  16  17
ENDBRANCH   1  16
TORSDOF 6
ENDMDL
MODEL 6
REMARK VINA RESULT:    -6.755      2.511      3.286
REMARK INTER + INTRA:          -9.506
REMARK INTER:                  -9.773
REMARK INTRA:                   0.267
REMARK UNBOUND:                -0.579
REMARK  Name = 
REMARK  6 active torsions:
REMARK  status: ('A' for Active; 'I' for Inactive)
REMARK    1  A    between atoms: C_2  and  C_4
REMARK    2  A    between atoms: C_7  and  O_8
REMARK    3  A    between atoms: C_9  and  N_10
REMARK    4  A    between atoms: N_10  and  C_11
REMARK    5  A    between atoms: C_11  and  C_12
REMARK    6  A    between atoms: C_17  and  N_18
REMARK                            x       y       z     vdW  Elec       q    Type
REMARK                         _______ _______ _______ _____ _____    ______ ____
ROOT
ATOM      1  N   UNL     1      44.831   2.913  10.399  0.00  0.00    +0.000 N 
ATOM      2  H   UNL     1      44.700   1.977  10.774  0.00  0.00    +0.000 HD
ENDROOT
BRANCH   1   7
ATOM      3  C   UNL     1      46.519   1.588   7.384  0.00  0.00    +0.000 A 
ATOM      4  C   UNL     1      46.858   2.747   6.684  0.00  0.00    +0.000 A 
ATOM      5  C   UNL     1      46.496   3.990   7.192  0.00  0.00    +0.000 A 
ATOM      6  C   UNL     1      45.798   4.078   8.404  0.00  0.00    +0.000 A 
ATOM      7  C   UNL     1      45.418   2.927   9.127  0.00  0.00    +0.000 A 
ATOM      8  C   UNL     1      45.796   1.684   8.585  0.00  0.00    +0.000 A 
BRANCH   3  10
ATOM      9  N   UNL     1      47.279   0.147   5.578  0.00  0.00    +0.000 N 
ATOM     10  C   UNL     1      46.901   0.242   6.889  0.00  0.00    +0.000 C 
ATOM     11  O   UNL     1      46.915  -0.738   7.623  0.00  0.00    +0.000 OA
ATOM     12  H   UNL     1      47.654  -0.745   5.286  0.00  0.00    +0.000 HD
ATOM     13  H   UNL     1      47.533   0.959   5.030  0.00  0.00    +0.000 HD
ENDBRANCH   3  10
BRANCH   6  14
ATOM     14  O   UNL     1      45.475   5.329   8.862  0.00  0.00    +0.000 OA
ATOM     15  H   UNL     1      44.792   5.713   8.289  0.00  0.00    +0.000 HD
ENDBRANCH   6  14
ENDBRANCH   1   7
BRANCH   1  16
ATOM     16  C   UNL     1      43.763   3.836  10.739  0.00  0.00    +0.000 C 
BRANCH  16  17
ATOM     17  C   UNL     1      44.305   5.017  11.515  0.00  0.00    +0.000 A 
ATOM     18  C   UNL     1      43.714   6.272  11.395  0.00  0.00    +0.000 A 
ATOM     19  C   UNL     1      44.283   7.364  12.041  0.00  0.00    +0.000 A 
ATOM     20  C   UNL     1      45.444   7.217  12.822  0.00  0.00    +0.000 A 
ATOM     21 CL   UNL     1      46.126   8.712  13.386  0.00  0.00    +0.000 Cl
ATOM     22  C   UNL     1      46.044   5.950  13.029  0.00  0.00    +0.000 A 
ATOM     23  C   UNL     1      45.429   4.870  12.352  0.00  0.00    +0.000 A 
BRANCH  22  24
ATOM     24  N   UNL     1      47.140   5.694  13.839  0.00  0.00    +0.000 N 
ATOM     25  C   UNL     1      47.221   4.511  14.715  0.00  0.00    +0.000 C 
ATOM     26  C   UNL     1      47.676   4.945  16.117  0.00  0.00    +0.000 C 
ATOM     27  O   UNL     1      48.944   5.621  16.061  0.00  0.00    +0.000 OA
ATOM     28  C   UNL     1      48.840   6.796  15.243  0.00  0.00    +0.000 C 
ATOM     29  C   UNL     1      48.388   6.475  13.807  0.00  0.00    +0.000 C 
ENDBRANCH  22  24
ENDBRANCH  16  17
ENDBRANCH   1  16
TORSDOF 6
ENDMDL
MODEL 7
REMARK VINA RESULT:    -6.433      3.718      4.811
REMARK INTER + INTRA:          -9.080
REMARK INTER:                  -8.384
REMARK INTRA:                  -0.696
REMARK UNBOUND:                -0.579
REMARK  Name = 
REMARK  6 active torsions:
REMARK  status: ('A' for Active; 'I' for Inactive)
REMARK    1  A    between atoms: C_2  and  C_4
REMARK    2  A    between atoms: C_7  and  O_8
REMARK    3  A    between atoms: C_9  and  N_10
REMARK    4  A    between atoms: N_10  and  C_11
REMARK    5  A    between atoms: C_11  and  C_12
REMARK    6  A    between atoms: C_17  and  N_18
REMARK                            x       y       z     vdW  Elec       q    Type
REMARK                         _______ _______ _______ _____ _____    ______ ____
ROOT
ATOM      1  N   UNL     1      45.754   6.257  13.311  0.00  0.00    +0.000 N 
ATOM      2  H   UNL     1      45.456   7.212  13.490  0.00  0.00    +0.000 HD
ENDROOT
BRANCH   1   7
ATOM      3  C   UNL     1      44.860   4.710  10.069  0.00  0.00    +0.000 A 
ATOM      4  C   UNL     1      43.490   4.485  10.200  0.00  0.00    +0.000 A 
ATOM      5  C   UNL     1      42.847   4.814  11.389  0.00  0.00    +0.000 A 
ATOM      6  C   UNL     1      43.574   5.375  12.449  0.00  0.00    +0.000 A 
ATOM      7  C   UNL     1      44.965   5.594  12.361  0.00  0.00    +0.000 A 
ATOM      8  C   UNL     1      45.586   5.248  11.146  0.00  0.00    +0.000 A 
BRANCH   3  10
ATOM      9  N   UNL     1      45.361   3.158   8.265  0.00  0.00    +0.000 N 
ATOM     10  C   UNL     1      45.583   4.392   8.813  0.00  0.00    +0.000 C 
ATOM     11  O   UNL     1      46.320   5.202   8.265  0.00  0.00    +0.000 OA
ATOM     12  H   UNL     1      45.760   2.999   7.350  0.00  0.00    +0.000 HD
ATOM     13  H   UNL     1      44.574   2.582   8.535  0.00  0.00    +0.000 HD
ENDBRANCH   3  10
BRANCH   6  14
ATOM     14  O   UNL     1      42.887   5.688  13.593  0.00  0.00    +0.000 OA
ATOM     15  H   UNL     1      43.237   6.516  13.960  0.00  0.00    +0.000 HD
ENDBRANCH   6  14
ENDBRANCH   1   7
BRANCH   1  16
ATOM     16  C   UNL     1      47.194   6.075  13.342  0.00  0.00    +0.000 C 
BRANCH  16  17
ATOM     17  C   UNL     1      47.626   5.458  14.655  0.00  0.00    +0.000 A 
ATOM     18  C   UNL     1      47.209   4.176  15.004  0.00  0.00    +0.000 A 
ATOM     19  C   UNL     1      47.537   3.663  16.254  0.00  0.00    +0.000 A 
ATOM     20  C   UNL     1      48.292   4.419  17.169  0.00  0.00    +0.000 A 
ATOM     21 CL   UNL     1      48.434   3.704  18.746  0.00  0.00    +0.000 Cl
ATOM     22  C   UNL     1      48.796   5.700  16.837  0.00  0.00    +0.000 A 
ATOM     23  C   UNL     1      48.436   6.179  15.554  0.00  0.00    +0.000 A 
BRANCH  22  24
ATOM     24  N   UNL     1      49.609   6.486  17.639  0.00  0.00    +0.000 N 
ATOM     25  C   UNL     1      49.069   7.476  18.590  0.00  0.00    +0.000 C 
ATOM     26  C   UNL     1      49.822   8.804  18.424  0.00  0.00    +0.000 C 
ATOM     27  O   UNL     1      51.234   8.626  18.627  0.00  0.00    +0.000 OA
ATOM     28  C   UNL     1      51.756   7.696  17.666  0.00  0.00    +0.000 C 
ATOM     29  C   UNL     1      51.068   6.321  17.745  0.00  0.00    +0.000 C 
ENDBRANCH  22  24
ENDBRANCH  16  17
ENDBRANCH   1  16
TORSDOF 6
ENDMDL
MODEL 8
REMARK VINA RESULT:    -6.324      3.033      4.273
REMARK INTER + INTRA:          -8.937
REMARK INTER:                  -8.152
REMARK INTRA:                  -0.785
REMARK UNBOUND:                -0.579
REMARK  Name = 
REMARK  6 active torsions:
REMARK  status: ('A' for Active; 'I' for Inactive)
REMARK    1  A    between atoms: C_2  and  C_4
REMARK    2  A    between atoms: C_7  and  O_8
REMARK    3  A    between atoms: C_9  and  N_10
REMARK    4  A    between atoms: N_10  and  C_11
REMARK    5  A    between atoms: C_11  and  C_12
REMARK    6  A    between atoms: C_17  and  N_18
REMARK                            x       y       z     vdW  Elec       q    Type
REMARK                         _______ _______ _______ _____ _____    ______ ____
ROOT
ATOM      1  N   UNL     1      45.154   7.040  12.755  0.00  0.00    +0.000 N 
ATOM      2  H   UNL     1      44.525   7.390  13.473  0.00  0.00    +0.000 HD
ENDROOT
BRANCH   1   7
ATOM      3  C   UNL     1      44.781   4.597  10.001  0.00  0.00    +0.000 A 
ATOM      4  C   UNL     1      43.627   3.900  10.358  0.00  0.00    +0.000 A 
ATOM      5  C   UNL     1      42.973   4.212  11.546  0.00  0.00    +0.000 A 
ATOM      6  C   UNL     1      43.469   5.226  12.376  0.00  0.00    +0.000 A 
ATOM      7  C   UNL     1      44.647   5.935  12.059  0.00  0.00    +0.000 A 
ATOM      8  C   UNL     1      45.287   5.594  10.853  0.00  0.00    +0.000 A 
BRANCH   3  10
ATOM      9  N   UNL     1      45.137   3.180   8.055  0.00  0.00    +0.000 N 
ATOM     10  C   UNL     1      45.501   4.311   8.735  0.00  0.00    +0.000 C 
ATOM     11  O   UNL     1      46.358   5.064   8.292  0.00  0.00    +0.000 OA
ATOM     12  H   UNL     1      45.543   3.061   7.138  0.00  0.00    +0.000 HD
ATOM     13  H   UNL     1      44.270   2.692   8.246  0.00  0.00    +0.000 HD
ENDBRANCH   3  10
BRANCH   6  14
ATOM     14  O   UNL     1      42.779   5.497  13.529  0.00  0.00    +0.000 OA
ATOM     15  H   UNL     1      43.368   5.376  14.291  0.00  0.00    +0.000 HD
ENDBRANCH   6  14
ENDBRANCH   1   7
BRANCH   1  16
ATOM     16  C   UNL     1      45.894   8.081  12.065  0.00  0.00    +0.000 C 
BRANCH  16  17
ATOM     17  C   UNL     1      47.295   8.201  12.627  0.00  0.00    +0.000 A 
ATOM     18  C   UNL     1      48.403   7.961  11.818  0.00  0.00    +0.000 A 
ATOM     19  C   UNL     1      49.678   7.982  12.374  0.00  0.00    +0.000 A 
ATOM     20  C   UNL     1      49.864   8.251  13.741  0.00  0.00    +0.000 A 
ATOM     21 CL   UNL     1      51.496   8.038  14.300  0.00  0.00    +0.000 Cl
ATOM     22  C   UNL     1      48.776   8.566  14.592  0.00  0.00    +0.000 A 
ATOM     23  C   UNL     1      47.500   8.532  13.981  0.00  0.00    +0.000 A 
BRANCH  22  24
ATOM     24  N   UNL     1      48.867   8.918  15.930  0.00  0.00    +0.000 N 
ATOM     25  C   UNL     1      49.144   7.934  16.993  0.00  0.00    +0.000 C 
ATOM     26  C   UNL     1      48.149   8.136  18.146  0.00  0.00    +0.000 C 
ATOM     27  O   UNL     1      48.224   9.474  18.664  0.00  0.00    +0.000 OA
ATOM     28  C   UNL     1      47.907  10.421  17.632  0.00  0.00    +0.000 C 
ATOM     29  C   UNL     1      48.849  10.306  16.420  0.00  0.00    +0.000 C 
ENDBRANCH  22  24
ENDBRANCH  16  17
ENDBRANCH   1  16
TORSDOF 6
ENDMDL
MODEL 9
REMARK VINA RESULT:    -6.236      3.169      7.574
REMARK INTER + INTRA:          -8.820
REMARK INTER:                  -7.871
REMARK INTRA:                  -0.949
REMARK UNBOUND:                -0.579
REMARK  Name = 
REMARK  6 active torsions:
REMARK  status: ('A' for Active; 'I' for Inactive)
REMARK    1  A    between atoms: C_2  and  C_4
REMARK    2  A    between atoms: C_7  and  O_8
REMARK    3  A    between atoms: C_9  and  N_10
REMARK    4  A    between atoms: N_10  and  C_11
REMARK    5  A    between atoms: C_11  and  C_12
REMARK    6  A    between atoms: C_17  and  N_18
REMARK                            x       y       z     vdW  Elec       q    Type
REMARK                         _______ _______ _______ _____ _____    ______ ____
ROOT
ATOM      1  N   UNL     1      47.286  10.293  12.451  0.00  0.00    +0.000 N 
ATOM      2  H   UNL     1      47.801  10.885  13.097  0.00  0.00    +0.000 HD
ENDROOT
BRANCH   1   7
ATOM      3  C   UNL     1      44.009  11.126  10.946  0.00  0.00    +0.000 A 
ATOM      4  C   UNL     1      44.340  12.096   9.999  0.00  0.00    +0.000 A 
ATOM      5  C   UNL     1      45.661  12.514   9.873  0.00  0.00    +0.000 A 
ATOM      6  C   UNL     1      46.655  11.958  10.690  0.00  0.00    +0.000 A 
ATOM      7  C   UNL     1      46.354  10.994  11.674  0.00  0.00    +0.000 A 
ATOM      8  C   UNL     1      45.008  10.594  11.779  0.00  0.00    +0.000 A 
BRANCH   3  10
ATOM      9  N   UNL     1      41.937  11.048  12.216  0.00  0.00    +0.000 N 
ATOM     10  C   UNL     1      42.617  10.636  11.103  0.00  0.00    +0.000 C 
ATOM     11  O   UNL     1      42.081   9.926  10.262  0.00  0.00    +0.000 OA
ATOM     12  H   UNL     1      40.955  10.811  12.251  0.00  0.00    +0.000 HD
ATOM     13  H   UNL     1      42.246  11.831  12.778  0.00  0.00    +0.000 HD
ENDBRANCH   3  10
BRANCH   6  14
ATOM     14  O   UNL     1      47.941  12.401  10.515  0.00  0.00    +0.000 OA
ATOM     15  H   UNL     1      48.491  12.086  11.250  0.00  0.00    +0.000 HD
ENDBRANCH   6  14
ENDBRANCH   1   7
BRANCH   1  16
ATOM     16  C   UNL     1      48.080   9.221  11.877  0.00  0.00    +0.000 C 
BRANCH  16  17
ATOM     17  C   UNL     1      47.689   7.887  12.478  0.00  0.00    +0.000 A 
ATOM     18  C   UNL     1      48.416   7.350  13.537  0.00  0.00    +0.000 A 
ATOM     19  C   UNL     1      48.101   6.081  14.012  0.00  0.00    +0.000 A 
ATOM     20  C   UNL     1      47.053   5.337  13.442  0.00  0.00    +0.000 A 
ATOM     21 CL   UNL     1      46.933   3.704  14.023  0.00  0.00    +0.000 Cl
ATOM     22  C   UNL     1      46.242   5.865  12.408  0.00  0.00    +0.000 A 
ATOM     23  C   UNL     1      46.601   7.158  11.959  0.00  0.00    +0.000 A 
BRANCH  22  24
ATOM     24  N   UNL     1      45.145   5.240  11.837  0.00  0.00    +0.000 N 
ATOM     25  C   UNL     1      43.871   5.056  12.559  0.00  0.00    +0.000 C 
ATOM     26  C   UNL     1      43.397   3.604  12.393  0.00  0.00    +0.000 C 
ATOM     27  O   UNL     1      43.245   3.266  11.004  0.00  0.00    +0.000 OA
ATOM     28  C   UNL     1      44.501   3.405  10.322  0.00  0.00    +0.000 C 
ATOM     29  C   UNL     1      45.071   4.831  10.425  0.00  0.00    +0.000 C 
ENDBRANCH  22  24
ENDBRANCH  16  17
ENDBRANCH   1  16
TORSDOF 6
ENDMDL
