MODEL 1
REMARK VINA RESULT:    -8.010      0.000      0.000
REMARK INTER + INTRA:         -11.824
REMARK INTER:                 -10.819
REMARK INTRA:                  -1.004
REMARK UNBOUND:                -1.004
REMARK  Name = 
REMARK  6 active torsions:
REMARK  status: ('A' for Active; 'I' for Inactive)
REMARK    1  A    between atoms: C_2  and  C_4
REMARK    2  A    between atoms: C_7  and  O_8
REMARK    3  A    between atoms: O_8  and  C_9
REMARK    4  A    between atoms: C_9  and  C_10
REMARK    5  A    between atoms: C_10  and  C_11
REMARK    6  A    between atoms: C_15  and  C_16
REMARK                            x       y       z     vdW  Elec       q    Type
REMARK                         _______ _______ _______ _____ _____    ______ ____
ROOT
ATOM      1  C   UNL     1      43.605   4.595  10.708  0.00  0.00    +0.000 C 
ENDROOT
BRANCH   1   2
ATOM      2  O   UNL     1      43.649   3.286  10.127  0.00  0.00    +0.000 OA
BRANCH   2   6
ATOM      3  C   UNL     1      46.653   2.340   7.492  0.00  0.00    +0.000 A 
ATOM      4  C   UNL     1      46.242   3.663   7.513  0.00  0.00    +0.000 A 
ATOM      5  C   UNL     1      45.221   4.032   8.387  0.00  0.00    +0.000 A 
ATOM      6  C   UNL     1      44.646   3.071   9.220  0.00  0.00    +0.000 A 
ATOM      7  C   UNL     1      45.131   1.766   9.122  0.00  0.00    +0.000 A 
ATOM      8  N   UNL     1      46.117   1.367   8.281  0.00  0.00    +0.000 NA
BRANCH   3  10
ATOM      9  N   UNL     1      48.767   2.827   6.403  0.00  0.00    +0.000 N 
ATOM     10  C   UNL     1      47.747   1.929   6.554  0.00  0.00    +0.000 C 
ATOM     11  O   UNL     1      47.737   0.860   5.955  0.00  0.00    +0.000 OA
ATOM     12  H   UNL     1      49.535   2.609   5.785  0.00  0.00    +0.000 HD
ATOM     13  H   UNL     1      48.744   3.703   6.913  0.00  0.00    +0.000 HD
ENDBRANCH   3  10
ENDBRANCH   2   6
ENDBRANCH   1   2
BRANCH   1  14
ATOM     14  C   UNL     1      43.842   4.500  12.214  0.00  0.00    +0.000 C 
BRANCH  14  15
ATOM     15  C   UNL     1      45.228   4.982  12.562  0.00  0.00    +0.000 A 
ATOM     16  C   UNL     1      45.886   5.915  11.756  0.00  0.00    +0.000 A 
ATOM     17  C   UNL     1      47.135   6.402  12.131  0.00  0.00    +0.000 A 
ATOM     18  C   UNL     1      47.722   5.985  13.330  0.00  0.00    +0.000 A 
ATOM     19  C   UNL     1      47.068   5.089  14.193  0.00  0.00    +0.000 A 
ATOM     20  C   UNL     1      45.830   4.574  13.765  0.00  0.00    +0.000 A 
BRANCH  19  21
ATOM     21  C   UNL     1      47.594   4.781  15.546  0.00  0.00    +0.000 A 
ATOM     22  C   UNL     1      47.346   3.532  16.146  0.00  0.00    +0.000 A 
ATOM     23  C   UNL     1      47.933   3.172  17.363  0.00  0.00    +0.000 A 
ATOM     24  C   UNL     1      48.789   4.056  18.009  0.00  0.00    +0.000 A 
ATOM     25  C   UNL     1      49.033   5.309  17.454  0.00  0.00    +0.000 A 
ATOM     26  C   UNL     1      48.432   5.670  16.243  0.00  0.00    +0.000 A 
ENDBRANCH  19  21
ENDBRANCH  14  15
ENDBRANCH   1  14
TORSDOF 6
ENDMDL
MODEL 2
REMARK VINA RESULT:    -7.973      3.269      7.796
REMARK INTER + INTRA:         -11.774
REMARK INTER:                 -10.812
REMARK INTRA:                  -0.962
REMARK UNBOUND:                -1.004
REMARK  Name = 
REMARK  6 active torsions:
REMARK  status: ('A' for Active; 'I' for Inactive)
REMARK    1  A    between atoms: C_2  and  C_4
REMARK    2  A    between atoms: C_7  and  O_8
REMARK    3  A    between atoms: O_8  and  C_9
REMARK    4  A    between atoms: C_9  and  C_10
REMARK    5  A    between atoms: C_10  and  C_11
REMARK    6  A    between atoms: C_15  and  C_16
REMARK                            x       y       z     vdW  Elec       q    Type
REMARK                         _______ _______ _______ _____ _____    ______ ____
ROOT
ATOM      1  C   UNL     1      45.402   6.750  12.442  0.00  0.00    +0.000 C 
ENDROOT
BRANCH   1   2
ATOM      2  O   UNL     1      46.689   6.123  12.393  0.00  0.00    +0.000 OA
BRANCH   2   6
ATOM      3  C   UNL     1      47.699   3.753  15.590  0.00  0.00    +0.000 A 
ATOM      4  C   UNL     1      47.842   5.120  15.764  0.00  0.00    +0.000 A 
ATOM      5  C   UNL     1      47.517   5.965  14.705  0.00  0.00    +0.000 A 
ATOM      6  C   UNL     1      47.051   5.422  13.506  0.00  0.00    +0.000 A 
ATOM      7  C   UNL     1      46.944   4.032  13.432  0.00  0.00    +0.000 A 
ATOM      8  N   UNL     1      47.256   3.177  14.438  0.00  0.00    +0.000 NA
BRANCH   3  10
ATOM      9  N   UNL     1      47.140   2.771  17.739  0.00  0.00    +0.000 N 
ATOM     10  C   UNL     1      48.049   2.831  16.718  0.00  0.00    +0.000 C 
ATOM     11  O   UNL     1      49.081   2.170  16.737  0.00  0.00    +0.000 OA
ATOM     12  H   UNL     1      47.317   2.168  18.529  0.00  0.00    +0.000 HD
ATOM     13  H   UNL     1      46.297   3.333  17.693  0.00  0.00    +0.000 HD
ENDBRANCH   3  10
ENDBRANCH   2   6
ENDBRANCH   1   2
BRANCH   1  14
ATOM     14  C   UNL     1      44.668   6.528  11.120  0.00  0.00    +0.000 C 
BRANCH  14  15
ATOM     15  C   UNL     1      44.566   5.054  10.815  0.00  0.00    +0.000 A 
ATOM     16  C   UNL     1      43.651   4.244  11.490  0.00  0.00    +0.000 A 
ATOM     17  C   UNL     1      43.521   2.901  11.145  0.00  0.00    +0.000 A 
ATOM     18  C   UNL     1      44.283   2.366  10.101  0.00  0.00    +0.000 A 
ATOM     19  C   UNL     1      45.176   3.162   9.363  0.00  0.00    +0.000 A 
ATOM     20  C   UNL     1      45.324   4.502   9.766  0.00  0.00    +0.000 A 
BRANCH  19  21
ATOM     21  C   UNL     1      45.851   2.655   8.143  0.00  0.00    +0.000 A 
ATOM     22  C   UNL     1      46.074   3.502   7.041  0.00  0.00    +0.000 A 
ATOM     23  C   UNL     1      46.817   3.084   5.933  0.00  0.00    +0.000 A 
ATOM     24  C   UNL     1      47.360   1.805   5.903  0.00  0.00    +0.000 A 
ATOM     25  C   UNL     1      47.135   0.935   6.965  0.00  0.00    +0.000 A 
ATOM     26  C   UNL     1      46.379   1.353   8.067  0.00  0.00    +0.000 A 
ENDBRANCH  19  21
ENDBRANCH  14  15
ENDBRANCH   1  14
TORSDOF 6
ENDMDL
MODEL 3
REMARK VINA RESULT:    -7.954      1.981      3.894
REMARK INTER + INTRA:         -11.749
REMARK INTER:                 -10.725
REMARK INTRA:                  -1.023
REMARK UNBOUND:                -1.004
REMARK  Name = 
REMARK  6 active torsions:
REMARK  status: ('A' for Active; 'I' for Inactive)
REMARK    1  A    between atoms: C_2  and  C_4
REMARK    2  A    between atoms: C_7  and  O_8
REMARK    3  A    between atoms: O_8  and  C_9
REMARK    4  A    between atoms: C_9  and  C_10
REMARK    5  A    between atoms: C_10  and  C_11
REMARK    6  A    between atoms: C_15  and  C_16
REMARK                            x       y       z     vdW  Elec       q    Type
REMARK                         _______ _______ _______ _____ _____    ______ ____
ROOT
ATOM      1  C   UNL     1      43.592   3.069  11.347  0.00  0.00    +0.000 C 
ENDROOT
BRANCH   1   2
ATOM      2  O   UNL     1      43.707   3.857  10.156  0.00  0.00    +0.000 OA
BRANCH   2   6
ATOM      3  C   UNL     1      46.526   2.335   7.587  0.00  0.00    +0.000 A 
ATOM      4  C   UNL     1      46.247   3.687   7.468  0.00  0.00    +0.000 A 
ATOM      5  C   UNL     1      45.293   4.248   8.315  0.00  0.00    +0.000 A 
ATOM      6  C   UNL     1      44.651   3.446   9.260  0.00  0.00    +0.000 A 
ATOM      7  C   UNL     1      45.004   2.096   9.298  0.00  0.00    +0.000 A 
ATOM      8  N   UNL     1      45.922   1.511   8.488  0.00  0.00    +0.000 NA
BRANCH   3  10
ATOM      9  N   UNL     1      48.661   2.473   6.439  0.00  0.00    +0.000 N 
ATOM     10  C   UNL     1      47.546   1.717   6.680  0.00  0.00    +0.000 C 
ATOM     11  O   UNL     1      47.401   0.608   6.179  0.00  0.00    +0.000 OA
ATOM     12  H   UNL     1      49.386   2.112   5.837  0.00  0.00    +0.000 HD
ATOM     13  H   UNL     1      48.749   3.387   6.868  0.00  0.00    +0.000 HD
ENDBRANCH   3  10
ENDBRANCH   2   6
ENDBRANCH   1   2
BRANCH   1  14
ATOM     14  C   UNL     1      43.415   3.985  12.557  0.00  0.00    +0.000 C 
BRANCH  14  15
ATOM     15  C   UNL     1      44.717   4.664  12.900  0.00  0.00    +0.000 A 
ATOM     16  C   UNL     1      45.839   3.917  13.269  0.00  0.00    +0.000 A 
ATOM     17  C   UNL     1      47.052   4.557  13.513  0.00  0.00    +0.000 A 
ATOM     18  C   UNL     1      47.161   5.942  13.358  0.00  0.00    +0.000 A 
ATOM     19  C   UNL     1      46.069   6.721  12.937  0.00  0.00    +0.000 A 
ATOM     20  C   UNL     1      44.843   6.056  12.747  0.00  0.00    +0.000 A 
BRANCH  19  21
ATOM     21  C   UNL     1      46.217   8.156  12.595  0.00  0.00    +0.000 A 
ATOM     22  C   UNL     1      47.485   8.702  12.316  0.00  0.00    +0.000 A 
ATOM     23  C   UNL     1      47.635  10.019  11.870  0.00  0.00    +0.000 A 
ATOM     24  C   UNL     1      46.516  10.823  11.688  0.00  0.00    +0.000 A 
ATOM     25  C   UNL     1      45.251  10.321  11.981  0.00  0.00    +0.000 A 
ATOM     26  C   UNL     1      45.107   9.006  12.440  0.00  0.00    +0.000 A 
ENDBRANCH  19  21
ENDBRANCH  14  15
ENDBRANCH   1  14
TORSDOF 6
ENDMDL
MODEL 4
REMARK VINA RESULT:    -7.931      1.834      3.763
REMARK INTER + INTRA:         -11.718
REMARK INTER:                 -10.693
REMARK INTRA:                  -1.025
REMARK UNBOUND:                -1.004
REMARK  Name = 
REMARK  6 active torsions:
REMARK  status: ('A' for Active; 'I' for Inactive)
REMARK    1  A    between atoms: C_2  and  C_4
REMARK    2  A    between atoms: C_7  and  O_8
REMARK    3  A    between atoms: O_8  and  C_9
REMARK    4  A    between atoms: C_9  and  C_10
REMARK    5  A    between atoms: C_10  and  C_11
REMARK    6  A    between atoms: C_15  and  C_16
REMARK                            x       y       z     vdW  Elec       q    Type
REMARK                         _______ _______ _______ _____ _____    ______ ____
ROOT
ATOM      1  C   UNL     1      43.463   4.983  10.677  0.00  0.00    +0.000 C 
ENDROOT
BRANCH   1   2
ATOM      2  O   UNL     1      43.537   3.600  10.308  0.00  0.00    +0.000 OA
BRANCH   2   6
ATOM      3  C   UNL     1      46.430   2.336   7.682  0.00  0.00    +0.000 A 
ATOM      4  C   UNL     1      46.149   3.693   7.686  0.00  0.00    +0.000 A 
ATOM      5  C   UNL     1      45.171   4.169   8.557  0.00  0.00    +0.000 A 
ATOM      6  C   UNL     1      44.507   3.279   9.403  0.00  0.00    +0.000 A 
ATOM      7  C   UNL     1      44.863   1.932   9.320  0.00  0.00    +0.000 A 
ATOM      8  N   UNL     1      45.804   1.429   8.483  0.00  0.00    +0.000 NA
BRANCH   3  10
ATOM      9  N   UNL     1      48.531   2.647   6.506  0.00  0.00    +0.000 N 
ATOM     10  C   UNL     1      47.476   1.809   6.747  0.00  0.00    +0.000 C 
ATOM     11  O   UNL     1      47.402   0.703   6.227  0.00  0.00    +0.000 OA
ATOM     12  H   UNL     1      49.270   2.350   5.886  0.00  0.00    +0.000 HD
ATOM     13  H   UNL     1      48.561   3.557   6.952  0.00  0.00    +0.000 HD
ENDBRANCH   3  10
ENDBRANCH   2   6
ENDBRANCH   1   2
BRANCH   1  14
ATOM     14  C   UNL     1      43.485   5.112  12.200  0.00  0.00    +0.000 C 
BRANCH  14  15
ATOM     15  C   UNL     1      44.888   5.374  12.687  0.00  0.00    +0.000 A 
ATOM     16  C   UNL     1      45.606   4.389  13.369  0.00  0.00    +0.000 A 
ATOM     17  C   UNL     1      46.925   4.624  13.748  0.00  0.00    +0.000 A 
ATOM     18  C   UNL     1      47.547   5.833  13.418  0.00  0.00    +0.000 A 
ATOM     19  C   UNL     1      46.876   6.827  12.686  0.00  0.00    +0.000 A 
ATOM     20  C   UNL     1      45.528   6.583  12.361  0.00  0.00    +0.000 A 
BRANCH  19  21
ATOM     21  C   UNL     1      47.576   8.030  12.175  0.00  0.00    +0.000 A 
ATOM     22  C   UNL     1      46.938   9.285  12.167  0.00  0.00    +0.000 A 
ATOM     23  C   UNL     1      47.617  10.453  11.809  0.00  0.00    +0.000 A 
ATOM     24  C   UNL     1      48.959  10.393  11.451  0.00  0.00    +0.000 A 
ATOM     25  C   UNL     1      49.612   9.164  11.423  0.00  0.00    +0.000 A 
ATOM     26  C   UNL     1      48.923   7.995  11.770  0.00  0.00    +0.000 A 
ENDBRANCH  19  21
ENDBRANCH  14  15
ENDBRANCH   1  14
TORSDOF 6
ENDMDL
MODEL 5
REMARK VINA RESULT:    -7.037      3.458      7.791
REMARK INTER + INTRA:         -10.510
REMARK INTER:                  -9.867
REMARK INTRA:                  -0.643
REMARK UNBOUND:                -1.004
REMARK  Name = 
REMARK  6 active torsions:
REMARK  status: ('A' for Active; 'I' for Inactive)
REMARK    1  A    between atoms: C_2  and  C_4
REMARK    2  A    between atoms: C_7  and  O_8
REMARK    3  A    between atoms: O_8  and  C_9
REMARK    4  A    between atoms: C_9  and  C_10
REMARK    5  A    between atoms: C_10  and  C_11
REMARK    6  A    between atoms: C_15  and  C_16
REMARK                            x       y       z     vdW  Elec       q    Type
REMARK                         _______ _______ _______ _____ _____    ______ ____
ROOT
ATOM      1  C   UNL     1      43.589   4.067  12.293  0.00  0.00    +0.000 C 
ENDROOT
BRANCH   1   2
ATOM      2  O   UNL     1      44.472   3.866  13.403  0.00  0.00    +0.000 OA
BRANCH   2   6
ATOM      3  C   UNL     1      47.681   6.372  13.937  0.00  0.00    +0.000 A 
ATOM      4  C   UNL     1      46.599   6.892  13.246  0.00  0.00    +0.000 A 
ATOM      5  C   UNL     1      45.488   6.078  13.036  0.00  0.00    +0.000 A 
ATOM      6  C   UNL     1      45.487   4.771  13.526  0.00  0.00    +0.000 A 
ATOM      7  C   UNL     1      46.627   4.343  14.208  0.00  0.00    +0.000 A 
ATOM      8  N   UNL     1      47.729   5.102  14.428  0.00  0.00    +0.000 NA
BRANCH   3  10
ATOM      9  N   UNL     1      48.784   8.524  13.723  0.00  0.00    +0.000 N 
ATOM     10  C   UNL     1      48.885   7.234  14.167  0.00  0.00    +0.000 C 
ATOM     11  O   UNL     1      49.900   6.821  14.715  0.00  0.00    +0.000 OA
ATOM     12  H   UNL     1      49.560   9.157  13.849  0.00  0.00    +0.000 HD
ATOM     13  H   UNL     1      47.929   8.834  13.273  0.00  0.00    +0.000 HD
ENDBRANCH   3  10
ENDBRANCH   2   6
ENDBRANCH   1   2
BRANCH   1  14
ATOM     14  C   UNL     1      43.877   3.028  11.210  0.00  0.00    +0.000 C 
BRANCH  14  15
ATOM     15  C   UNL     1      44.675   3.643  10.087  0.00  0.00    +0.000 A 
ATOM     16  C   UNL     1      45.105   4.970  10.157  0.00  0.00    +0.000 A 
ATOM     17  C   UNL     1      45.901   5.499   9.145  0.00  0.00    +0.000 A 
ATOM     18  C   UNL     1      46.299   4.696   8.071  0.00  0.00    +0.000 A 
ATOM     19  C   UNL     1      45.932   3.342   7.992  0.00  0.00    +0.000 A 
ATOM     20  C   UNL     1      45.086   2.847   9.003  0.00  0.00    +0.000 A 
BRANCH  19  21
ATOM     21  C   UNL     1      46.494   2.437   6.961  0.00  0.00    +0.000 A 
ATOM     22  C   UNL     1      46.842   1.110   7.280  0.00  0.00    +0.000 A 
ATOM     23  C   UNL     1      47.255   0.203   6.300  0.00  0.00    +0.000 A 
ATOM     24  C   UNL     1      47.328   0.602   4.971  0.00  0.00    +0.000 A 
ATOM     25  C   UNL     1      47.017   1.914   4.627  0.00  0.00    +0.000 A 
ATOM     26  C   UNL     1      46.616   2.823   5.613  0.00  0.00    +0.000 A 
ENDBRANCH  19  21
ENDBRANCH  14  15
ENDBRANCH   1  14
TORSDOF 6
ENDMDL
MODEL 6
REMARK VINA RESULT:    -6.937      4.348      7.958
REMARK INTER + INTRA:         -10.374
REMARK INTER:                  -9.163
REMARK INTRA:                  -1.211
REMARK UNBOUND:                -1.004
REMARK  Name = 
REMARK  6 active torsions:
REMARK  status: ('A' for Active; 'I' for Inactive)
REMARK    1  A    between atoms: C_2  and  C_4
REMARK    2  A    between atoms: C_7  and  O_8
REMARK    3  A    between atoms: O_8  and  C_9
REMARK    4  A    between atoms: C_9  and  C_10
REMARK    5  A    between atoms: C_10  and  C_11
REMARK    6  A    between atoms: C_15  and  C_16
REMARK                            x       y       z     vdW  Elec       q    Type
REMARK                         _______ _______ _______ _____ _____    ______ ____
ROOT
ATOM      1  C   UNL     1      49.582   7.286  12.996  0.00  0.00    +0.000 C 
ENDROOT
BRANCH   1   2
ATOM      2  O   UNL     1      49.231   7.594  14.350  0.00  0.00    +0.000 OA
BRANCH   2   6
ATOM      3  C   UNL     1      47.971   4.546  16.796  0.00  0.00    +0.000 A 
ATOM      4  C   UNL     1      47.356   4.640  15.558  0.00  0.00    +0.000 A 
ATOM      5  C   UNL     1      47.747   5.661  14.695  0.00  0.00    +0.000 A 
ATOM      6  C   UNL     1      48.744   6.555  15.089  0.00  0.00    +0.000 A 
ATOM      7  C   UNL     1      49.299   6.375  16.356  0.00  0.00    +0.000 A 
ATOM      8  N   UNL     1      48.943   5.398  17.227  0.00  0.00    +0.000 NA
BRANCH   3  10
ATOM      9  N   UNL     1      48.332   3.314  18.856  0.00  0.00    +0.000 N 
ATOM     10  C   UNL     1      47.558   3.455  17.737  0.00  0.00    +0.000 C 
ATOM     11  O   UNL     1      46.593   2.731  17.527  0.00  0.00    +0.000 OA
ATOM     12  H   UNL     1      48.106   2.598  19.531  0.00  0.00    +0.000 HD
ATOM     13  H   UNL     1      49.125   3.930  18.999  0.00  0.00    +0.000 HD
ENDBRANCH   3  10
ENDBRANCH   2   6
ENDBRANCH   1   2
BRANCH   1  14
ATOM     14  C   UNL     1      48.863   8.242  12.045  0.00  0.00    +0.000 C 
BRANCH  14  15
ATOM     15  C   UNL     1      47.399   7.892  11.952  0.00  0.00    +0.000 A 
ATOM     16  C   UNL     1      46.419   8.799  12.361  0.00  0.00    +0.000 A 
ATOM     17  C   UNL     1      45.071   8.487  12.202  0.00  0.00    +0.000 A 
ATOM     18  C   UNL     1      44.694   7.281  11.604  0.00  0.00    +0.000 A 
ATOM     19  C   UNL     1      45.651   6.366  11.131  0.00  0.00    +0.000 A 
ATOM     20  C   UNL     1      47.005   6.684  11.351  0.00  0.00    +0.000 A 
BRANCH  19  21
ATOM     21  C   UNL     1      45.269   5.174  10.336  0.00  0.00    +0.000 A 
ATOM     22  C   UNL     1      45.712   5.022   9.009  0.00  0.00    +0.000 A 
ATOM     23  C   UNL     1      45.471   3.853   8.282  0.00  0.00    +0.000 A 
ATOM     24  C   UNL     1      44.779   2.801   8.870  0.00  0.00    +0.000 A 
ATOM     25  C   UNL     1      44.304   2.929  10.172  0.00  0.00    +0.000 A 
ATOM     26  C   UNL     1      44.537   4.108  10.891  0.00  0.00    +0.000 A 
ENDBRANCH  19  21
ENDBRANCH  14  15
ENDBRANCH   1  14
TORSDOF 6
ENDMDL
MODEL 7
REMARK VINA RESULT:    -6.829      4.285      8.588
REMARK INTER + INTRA:         -10.229
REMARK INTER:                  -9.472
REMARK INTRA:                  -0.757
REMARK UNBOUND:                -1.004
REMARK  Name = 
REMARK  6 active torsions:
REMARK  status: ('A' for Active; 'I' for Inactive)
REMARK    1  A    between atoms: C_2  and  C_4
REMARK    2  A    between atoms: C_7  and  O_8
REMARK    3  A    between atoms: O_8  and  C_9
REMARK    4  A    between atoms: C_9  and  C_10
REMARK    5  A    between atoms: C_10  and  C_11
REMARK    6  A    between atoms: C_15  and  C_16
REMARK                            x       y       z     vdW  Elec       q    Type
REMARK                         _______ _______ _______ _____ _____    ______ ____
ROOT
ATOM      1  C   UNL     1      47.323   5.881  13.428  0.00  0.00    +0.000 C 
ENDROOT
BRANCH   1   2
ATOM      2  O   UNL     1      46.836   4.944  14.396  0.00  0.00    +0.000 OA
BRANCH   2   6
ATOM      3  C   UNL     1      48.680   4.613  18.050  0.00  0.00    +0.000 A 
ATOM      4  C   UNL     1      49.003   5.727  17.293  0.00  0.00    +0.000 A 
ATOM      5  C   UNL     1      48.406   5.881  16.043  0.00  0.00    +0.000 A 
ATOM      6  C   UNL     1      47.500   4.921  15.588  0.00  0.00    +0.000 A 
ATOM      7  C   UNL     1      47.244   3.835  16.426  0.00  0.00    +0.000 A 
ATOM      8  N   UNL     1      47.808   3.647  17.646  0.00  0.00    +0.000 NA
BRANCH   3  10
ATOM      9  N   UNL     1      48.524   3.867  20.355  0.00  0.00    +0.000 N 
ATOM     10  C   UNL     1      49.318   4.431  19.394  0.00  0.00    +0.000 C 
ATOM     11  O   UNL     1      50.473   4.765  19.629  0.00  0.00    +0.000 OA
ATOM     12  H   UNL     1      48.895   3.717  21.282  0.00  0.00    +0.000 HD
ATOM     13  H   UNL     1      47.571   3.604  20.127  0.00  0.00    +0.000 HD
ENDBRANCH   3  10
ENDBRANCH   2   6
ENDBRANCH   1   2
BRANCH   1  14
ATOM     14  C   UNL     1      46.175   6.763  12.940  0.00  0.00    +0.000 C 
BRANCH  14  15
ATOM     15  C   UNL     1      45.224   5.965  12.084  0.00  0.00    +0.000 A 
ATOM     16  C   UNL     1      43.845   6.173  12.161  0.00  0.00    +0.000 A 
ATOM     17  C   UNL     1      42.987   5.478  11.312  0.00  0.00    +0.000 A 
ATOM     18  C   UNL     1      43.504   4.595  10.359  0.00  0.00    +0.000 A 
ATOM     19  C   UNL     1      44.888   4.399  10.215  0.00  0.00    +0.000 A 
ATOM     20  C   UNL     1      45.729   5.075  11.119  0.00  0.00    +0.000 A 
BRANCH  19  21
ATOM     21  C   UNL     1      45.455   3.609   9.095  0.00  0.00    +0.000 A 
ATOM     22  C   UNL     1      46.062   4.250   7.998  0.00  0.00    +0.000 A 
ATOM     23  C   UNL     1      46.713   3.527   6.994  0.00  0.00    +0.000 A 
ATOM     24  C   UNL     1      46.775   2.141   7.065  0.00  0.00    +0.000 A 
ATOM     25  C   UNL     1      46.161   1.476   8.122  0.00  0.00    +0.000 A 
ATOM     26  C   UNL     1      45.499   2.203   9.119  0.00  0.00    +0.000 A 
ENDBRANCH  19  21
ENDBRANCH  14  15
ENDBRANCH   1  14
TORSDOF 6
ENDMDL
MODEL 8
REMARK VINA RESULT:    -6.647      4.538      7.530
REMARK INTER + INTRA:          -9.982
REMARK INTER:                  -9.055
REMARK INTRA:                  -0.928
REMARK UNBOUND:                -1.004
REMARK  Name = 
REMARK  6 active torsions:
REMARK  status: ('A' for Active; 'I' for Inactive)
REMARK    1  A    between atoms: C_2  and  C_4
REMARK    2  A    between atoms: C_7  and  O_8
REMARK    3  A    between atoms: O_8  and  C_9
REMARK    4  A    between atoms: C_9  and  C_10
REMARK    5  A    between atoms: C_10  and  C_11
REMARK    6  A    between atoms: C_15  and  C_16
REMARK                            x       y       z     vdW  Elec       q    Type
REMARK                         _______ _______ _______ _____ _____    ______ ____
ROOT
ATOM      1  C   UNL     1      45.430   7.563  12.858  0.00  0.00    +0.000 C 
ENDROOT
BRANCH   1   2
ATOM      2  O   UNL     1      46.266   8.725  12.918  0.00  0.00    +0.000 OA
BRANCH   2   6
ATOM      3  C   UNL     1      50.132   8.505  11.553  0.00  0.00    +0.000 A 
ATOM      4  C   UNL     1      49.608   7.352  12.115  0.00  0.00    +0.000 A 
ATOM      5  C   UNL     1      48.301   7.379  12.597  0.00  0.00    +0.000 A 
ATOM      6  C   UNL     1      47.553   8.554  12.498  0.00  0.00    +0.000 A 
ATOM      7  C   UNL     1      48.173   9.660  11.916  0.00  0.00    +0.000 A 
ATOM      8  N   UNL     1      49.444   9.675  11.441  0.00  0.00    +0.000 NA
BRANCH   3  10
ATOM      9  N   UNL     1      52.160   7.273  11.037  0.00  0.00    +0.000 N 
ATOM     10  C   UNL     1      51.538   8.492  11.034  0.00  0.00    +0.000 C 
ATOM     11  O   UNL     1      52.105   9.501  10.634  0.00  0.00    +0.000 OA
ATOM     12  H   UNL     1      53.108   7.197  10.699  0.00  0.00    +0.000 HD
ATOM     13  H   UNL     1      51.662   6.457  11.377  0.00  0.00    +0.000 HD
ENDBRANCH   3  10
ENDBRANCH   2   6
ENDBRANCH   1   2
BRANCH   1  14
ATOM     14  C   UNL     1      44.933   7.357  11.428  0.00  0.00    +0.000 C 
BRANCH  14  15
ATOM     15  C   UNL     1      44.616   5.902  11.185  0.00  0.00    +0.000 A 
ATOM     16  C   UNL     1      43.543   5.284  11.833  0.00  0.00    +0.000 A 
ATOM     17  C   UNL     1      43.222   3.961  11.542  0.00  0.00    +0.000 A 
ATOM     18  C   UNL     1      43.949   3.256  10.577  0.00  0.00    +0.000 A 
ATOM     19  C   UNL     1      45.000   3.860   9.866  0.00  0.00    +0.000 A 
ATOM     20  C   UNL     1      45.336   5.181  10.216  0.00  0.00    +0.000 A 
BRANCH  19  21
ATOM     21  C   UNL     1      45.657   3.186   8.719  0.00  0.00    +0.000 A 
ATOM     22  C   UNL     1      46.200   3.937   7.659  0.00  0.00    +0.000 A 
ATOM     23  C   UNL     1      46.933   3.335   6.632  0.00  0.00    +0.000 A 
ATOM     24  C   UNL     1      47.143   1.961   6.643  0.00  0.00    +0.000 A 
ATOM     25  C   UNL     1      46.596   1.187   7.662  0.00  0.00    +0.000 A 
ATOM     26  C   UNL     1      45.852   1.793   8.682  0.00  0.00    +0.000 A 
ENDBRANCH  19  21
ENDBRANCH  14  15
ENDBRANCH   1  14
TORSDOF 6
ENDMDL
MODEL 9
REMARK VINA RESULT:    -6.433      2.992      5.530
REMARK INTER + INTRA:          -9.693
REMARK INTER:                  -8.710
REMARK INTRA:                  -0.983
REMARK UNBOUND:                -1.004
REMARK  Name = 
REMARK  6 active torsions:
REMARK  status: ('A' for Active; 'I' for Inactive)
REMARK    1  A    between atoms: C_2  and  C_4
REMARK    2  A    between atoms: C_7  and  O_8
REMARK    3  A    between atoms: O_8  and  C_9
REMARK    4  A    between atoms: C_9  and  C_10
REMARK    5  A    between atoms: C_10  and  C_11
REMARK    6  A    between atoms: C_15  and  C_16
REMARK                            x       y       z     vdW  Elec       q    Type
REMARK                         _______ _______ _______ _____ _____    ______ ____
ROOT
ATOM      1  C   UNL     1      48.545   6.531  14.384  0.00  0.00    +0.000 C 
ENDROOT
BRANCH   1   2
ATOM      2  O   UNL     1      47.424   7.163  13.753  0.00  0.00    +0.000 OA
BRANCH   2   6
ATOM      3  C   UNL     1      44.881   4.930  11.427  0.00  0.00    +0.000 A 
ATOM      4  C   UNL     1      45.462   4.283  12.505  0.00  0.00    +0.000 A 
ATOM      5  C   UNL     1      46.336   4.998  13.321  0.00  0.00    +0.000 A 
ATOM      6  C   UNL     1      46.600   6.340  13.041  0.00  0.00    +0.000 A 
ATOM      7  C   UNL     1      45.966   6.899  11.931  0.00  0.00    +0.000 A 
ATOM      8  N   UNL     1      45.114   6.235  11.110  0.00  0.00    +0.000 NA
BRANCH   3  10
ATOM      9  N   UNL     1      43.952   4.537   9.219  0.00  0.00    +0.000 N 
ATOM     10  C   UNL     1      43.943   4.173  10.537  0.00  0.00    +0.000 C 
ATOM     11  O   UNL     1      43.209   3.285  10.953  0.00  0.00    +0.000 OA
ATOM     12  H   UNL     1      43.344   4.065   8.567  0.00  0.00    +0.000 HD
ATOM     13  H   UNL     1      44.571   5.278   8.907  0.00  0.00    +0.000 HD
ENDBRANCH   3  10
ENDBRANCH   2   6
ENDBRANCH   1   2
BRANCH   1  14
ATOM     14  C   UNL     1      48.454   6.710  15.898  0.00  0.00    +0.000 C 
BRANCH  14  15
ATOM     15  C   UNL     1      48.473   5.370  16.590  0.00  0.00    +0.000 A 
ATOM     16  C   UNL     1      47.295   4.641  16.773  0.00  0.00    +0.000 A 
ATOM     17  C   UNL     1      47.342   3.374  17.349  0.00  0.00    +0.000 A 
ATOM     18  C   UNL     1      48.569   2.814  17.718  0.00  0.00    +0.000 A 
ATOM     19  C   UNL     1      49.780   3.493  17.502  0.00  0.00    +0.000 A 
ATOM     20  C   UNL     1      49.699   4.792  16.964  0.00  0.00    +0.000 A 
BRANCH  19  21
ATOM     21  C   UNL     1      51.094   2.840  17.718  0.00  0.00    +0.000 A 
ATOM     22  C   UNL     1      51.281   1.480  17.406  0.00  0.00    +0.000 A 
ATOM     23  C   UNL     1      52.539   0.876  17.483  0.00  0.00    +0.000 A 
ATOM     24  C   UNL     1      53.645   1.621  17.873  0.00  0.00    +0.000 A 
ATOM     25  C   UNL     1      53.489   2.961  18.214  0.00  0.00    +0.000 A 
ATOM     26  C   UNL     1      52.224   3.559  18.148  0.00  0.00    +0.000 A 
ENDBRANCH  19  21
ENDBRANCH  14  15
ENDBRANCH   1  14
TORSDOF 6
ENDMDL
