MODEL 1
REMARK VINA RESULT:    -6.851      0.000      0.000
REMARK INTER + INTRA:         -10.187
REMARK INTER:                  -8.853
REMARK INTRA:                  -1.334
REMARK UNBOUND:                -1.334
REMARK  Name = 
REMARK  8 active torsions:
REMARK  status: ('A' for Active; 'I' for Inactive)
REMARK    1  A    between atoms: C_1  and  C_2
REMARK    2  A    between atoms: C_2  and  N_3
REMARK    3  A    between atoms: C_2  and  C_16
REMARK    4  A    between atoms: C_4  and  C_6
REMARK    5  A    between atoms: C_19  and  C_20
REMARK    6  A    between atoms: C_20  and  C_21
REMARK    7  A    between atoms: C_20  and  C_22
REMARK    8  A    between atoms: C_20  and  N_23
REMARK                            x       y       z     vdW  Elec       q    Type
REMARK                         _______ _______ _______ _____ _____    ______ ____
ROOT
ATOM      1  C   UNL     1      49.678   7.643  12.510  0.00  0.00    +0.000 C 
ATOM      2  C   UNL     1      48.421   7.197  13.256  0.00  0.00    +0.000 C 
ENDROOT
BRANCH   2   3
ATOM      3  C   UNL     1      48.734   6.637  14.633  0.00  0.00    +0.000 A 
ATOM      4  C   UNL     1      47.940   5.600  15.112  0.00  0.00    +0.000 A 
ATOM      5  C   UNL     1      48.177   5.040  16.366  0.00  0.00    +0.000 A 
ATOM      6  C   UNL     1      49.165   5.522  17.242  0.00  0.00    +0.000 A 
ATOM      7  C   UNL     1      49.989   6.543  16.730  0.00  0.00    +0.000 A 
ATOM      8  C   UNL     1      49.786   7.086  15.442  0.00  0.00    +0.000 A 
BRANCH   6   9
ATOM      9  C   UNL     1      49.346   4.871  18.639  0.00  0.00    +0.000 C 
ATOM     10  C   UNL     1      48.719   3.444  18.582  0.00  0.00    +0.000 C 
ATOM     11  C   UNL     1      50.847   4.588  18.957  0.00  0.00    +0.000 C 
BRANCH   9  12
ATOM     12  N   UNL     1      48.739   5.590  19.800  0.00  0.00    +0.000 NA
ATOM     13  C   UNL     1      47.416   6.230  19.663  0.00  0.00    +0.000 C 
ATOM     14  C   UNL     1      47.414   7.739  19.284  0.00  0.00    +0.000 C 
ATOM     15  N   UNL     1      48.411   8.595  19.945  0.00  0.00    +0.000 NA
ATOM     16  C   UNL     1      49.700   7.906  20.101  0.00  0.00    +0.000 C 
ATOM     17  C   UNL     1      49.583   6.465  20.624  0.00  0.00    +0.000 C 
ATOM     18  H   UNL     1      48.060   8.856  20.864  0.00  0.00    +0.000 HD
ENDBRANCH   9  12
ENDBRANCH   6   9
ENDBRANCH   2   3
BRANCH   2  19
ATOM     19  N   UNL     1      47.631   6.258  12.482  0.00  0.00    +0.000 N 
ATOM     20  C   UNL     1      46.507   6.649  11.803  0.00  0.00    +0.000 C 
ATOM     21  O   UNL     1      46.124   7.814  11.786  0.00  0.00    +0.000 OA
ATOM     22  H   UNL     1      47.844   5.272  12.585  0.00  0.00    +0.000 HD
BRANCH  20  23
ATOM     23  C   UNL     1      45.791   5.609  11.052  0.00  0.00    +0.000 A 
ATOM     24  C   UNL     1      45.825   5.624   9.664  0.00  0.00    +0.000 A 
ATOM     25  S   UNL     1      44.960   4.346   8.943  0.00  0.00    +0.000 S 
ATOM     26  C   UNL     1      44.461   3.758  10.458  0.00  0.00    +0.000 A 
ATOM     27  N   UNL     1      43.641   2.676  10.549  0.00  0.00    +0.000 NA
ATOM     28  C   UNL     1      43.299   2.371  11.756  0.00  0.00    +0.000 A 
ATOM     29  N   UNL     1      43.727   3.032  12.876  0.00  0.00    +0.000 N 
ATOM     30  C   UNL     1      44.618   4.079  12.839  0.00  0.00    +0.000 A 
ATOM     31  O   UNL     1      45.082   4.557  13.869  0.00  0.00    +0.000 OA
ATOM     32  C   UNL     1      44.981   4.506  11.503  0.00  0.00    +0.000 A 
ATOM     33  H   UNL     1      43.453   2.720  13.795  0.00  0.00    +0.000 HD
ENDBRANCH  20  23
ENDBRANCH   2  19
TORSDOF 5
ENDMDL
MODEL 2
REMARK VINA RESULT:    -6.805      1.103      2.370
REMARK INTER + INTRA:         -10.127
REMARK INTER:                  -8.956
REMARK INTRA:                  -1.171
REMARK UNBOUND:                -1.334
REMARK  Name = 
REMARK  8 active torsions:
REMARK  status: ('A' for Active; 'I' for Inactive)
REMARK    1  A    between atoms: C_1  and  C_2
REMARK    2  A    between atoms: C_2  and  N_3
REMARK    3  A    between atoms: C_2  and  C_16
REMARK    4  A    between atoms: C_4  and  C_6
REMARK    5  A    between atoms: C_19  and  C_20
REMARK    6  A    between atoms: C_20  and  C_21
REMARK    7  A    between atoms: C_20  and  C_22
REMARK    8  A    between atoms: C_20  and  N_23
REMARK                            x       y       z     vdW  Elec       q    Type
REMARK                         _______ _______ _______ _____ _____    ______ ____
ROOT
ATOM      1  C   UNL     1      49.971   7.653  12.149  0.00  0.00    +0.000 C 
ATOM      2  C   UNL     1      48.564   7.521  12.732  0.00  0.00    +0.000 C 
ENDROOT
BRANCH   2   3
ATOM      3  C   UNL     1      48.581   7.265  14.229  0.00  0.00    +0.000 A 
ATOM      4  C   UNL     1      48.132   6.029  14.686  0.00  0.00    +0.000 A 
ATOM      5  C   UNL     1      48.125   5.730  16.047  0.00  0.00    +0.000 A 
ATOM      6  C   UNL     1      48.493   6.661  17.034  0.00  0.00    +0.000 A 
ATOM      7  C   UNL     1      48.984   7.893  16.559  0.00  0.00    +0.000 A 
ATOM      8  C   UNL     1      49.038   8.188  15.179  0.00  0.00    +0.000 A 
BRANCH   6   9
ATOM      9  C   UNL     1      48.424   6.268  18.534  0.00  0.00    +0.000 C 
ATOM     10  C   UNL     1      48.574   7.574  19.373  0.00  0.00    +0.000 C 
ATOM     11  C   UNL     1      47.007   5.749  18.933  0.00  0.00    +0.000 C 
BRANCH   9  12
ATOM     12  N   UNL     1      49.445   5.293  19.021  0.00  0.00    +0.000 NA
ATOM     13  C   UNL     1      50.864   5.460  18.650  0.00  0.00    +0.000 C 
ATOM     14  C   UNL     1      51.348   4.678  17.396  0.00  0.00    +0.000 C 
ATOM     15  N   UNL     1      50.864   3.297  17.242  0.00  0.00    +0.000 NA
ATOM     16  C   UNL     1      49.461   3.163  17.663  0.00  0.00    +0.000 C 
ATOM     17  C   UNL     1      49.137   3.857  18.996  0.00  0.00    +0.000 C 
ATOM     18  H   UNL     1      51.441   2.682  17.812  0.00  0.00    +0.000 HD
ENDBRANCH   9  12
ENDBRANCH   6   9
ENDBRANCH   2   3
BRANCH   2  19
ATOM     19  N   UNL     1      47.780   6.513  12.043  0.00  0.00    +0.000 N 
ATOM     20  C   UNL     1      46.486   6.746  11.656  0.00  0.00    +0.000 C 
ATOM     21  O   UNL     1      45.931   7.824  11.842  0.00  0.00    +0.000 OA
ATOM     22  H   UNL     1      48.162   5.575  11.995  0.00  0.00    +0.000 HD
BRANCH  20  23
ATOM     23  C   UNL     1      45.794   5.651  10.963  0.00  0.00    +0.000 A 
ATOM     24  C   UNL     1      45.844   5.581   9.577  0.00  0.00    +0.000 A 
ATOM     25  S   UNL     1      45.006   4.248   8.927  0.00  0.00    +0.000 S 
ATOM     26  C   UNL     1      44.499   3.747  10.471  0.00  0.00    +0.000 A 
ATOM     27  N   UNL     1      43.694   2.660  10.619  0.00  0.00    +0.000 NA
ATOM     28  C   UNL     1      43.343   2.424  11.839  0.00  0.00    +0.000 A 
ATOM     29  N   UNL     1      43.748   3.160  12.921  0.00  0.00    +0.000 N 
ATOM     30  C   UNL     1      44.623   4.216  12.828  0.00  0.00    +0.000 A 
ATOM     31  O   UNL     1      45.069   4.763  13.832  0.00  0.00    +0.000 OA
ATOM     32  C   UNL     1      44.995   4.565  11.473  0.00  0.00    +0.000 A 
ATOM     33  H   UNL     1      43.469   2.900  13.855  0.00  0.00    +0.000 HD
ENDBRANCH  20  23
ENDBRANCH   2  19
TORSDOF 5
ENDMDL
MODEL 3
REMARK VINA RESULT:    -6.688      2.084      3.617
REMARK INTER + INTRA:          -9.977
REMARK INTER:                  -8.728
REMARK INTRA:                  -1.249
REMARK UNBOUND:                -1.334
REMARK  Name = 
REMARK  8 active torsions:
REMARK  status: ('A' for Active; 'I' for Inactive)
REMARK    1  A    between atoms: C_1  and  C_2
REMARK    2  A    between atoms: C_2  and  N_3
REMARK    3  A    between atoms: C_2  and  C_16
REMARK    4  A    between atoms: C_4  and  C_6
REMARK    5  A    between atoms: C_19  and  C_20
REMARK    6  A    between atoms: C_20  and  C_21
REMARK    7  A    between atoms: C_20  and  C_22
REMARK    8  A    between atoms: C_20  and  N_23
REMARK                            x       y       z     vdW  Elec       q    Type
REMARK                         _______ _______ _______ _____ _____    ______ ____
ROOT
ATOM      1  C   UNL     1      47.818   3.103  16.732  0.00  0.00    +0.000 C 
ATOM      2  C   UNL     1      47.999   4.534  16.225  0.00  0.00    +0.000 C 
ENDROOT
BRANCH   2   3
ATOM      3  C   UNL     1      48.007   5.550  17.354  0.00  0.00    +0.000 A 
ATOM      4  C   UNL     1      48.768   6.703  17.190  0.00  0.00    +0.000 A 
ATOM      5  C   UNL     1      48.816   7.676  18.187  0.00  0.00    +0.000 A 
ATOM      6  C   UNL     1      48.171   7.529  19.426  0.00  0.00    +0.000 A 
ATOM      7  C   UNL     1      47.370   6.378  19.566  0.00  0.00    +0.000 A 
ATOM      8  C   UNL     1      47.279   5.409  18.543  0.00  0.00    +0.000 A 
BRANCH   6   9
ATOM      9  C   UNL     1      48.299   8.639  20.503  0.00  0.00    +0.000 C 
ATOM     10  C   UNL     1      48.229  10.016  19.774  0.00  0.00    +0.000 C 
ATOM     11  C   UNL     1      47.061   8.674  21.451  0.00  0.00    +0.000 C 
BRANCH   9  12
ATOM     12  N   UNL     1      49.539   8.627  21.337  0.00  0.00    +0.000 NA
ATOM     13  C   UNL     1      50.767   9.283  20.846  0.00  0.00    +0.000 C 
ATOM     14  C   UNL     1      51.784   8.375  20.096  0.00  0.00    +0.000 C 
ATOM     15  N   UNL     1      52.022   7.035  20.655  0.00  0.00    +0.000 NA
ATOM     16  C   UNL     1      50.783   6.434  21.172  0.00  0.00    +0.000 C 
ATOM     17  C   UNL     1      49.931   7.389  22.024  0.00  0.00    +0.000 C 
ATOM     18  H   UNL     1      52.695   7.112  21.414  0.00  0.00    +0.000 HD
ENDBRANCH   9  12
ENDBRANCH   6   9
ENDBRANCH   2   3
BRANCH   2  19
ATOM     19  N   UNL     1      47.013   4.885  15.220  0.00  0.00    +0.000 N 
ATOM     20  C   UNL     1      47.360   5.543  14.068  0.00  0.00    +0.000 C 
ATOM     21  O   UNL     1      48.521   5.844  13.810  0.00  0.00    +0.000 OA
ATOM     22  H   UNL     1      46.035   4.771  15.463  0.00  0.00    +0.000 HD
BRANCH  20  23
ATOM     23  C   UNL     1      46.275   5.842  13.124  0.00  0.00    +0.000 A 
ATOM     24  C   UNL     1      45.995   7.164  12.804  0.00  0.00    +0.000 A 
ATOM     25  S   UNL     1      44.722   7.345  11.687  0.00  0.00    +0.000 S 
ATOM     26  C   UNL     1      44.462   5.665  11.632  0.00  0.00    +0.000 A 
ATOM     27  N   UNL     1      43.461   5.141  10.874  0.00  0.00    +0.000 NA
ATOM     28  C   UNL     1      43.343   3.858  10.966  0.00  0.00    +0.000 A 
ATOM     29  N   UNL     1      44.153   3.056  11.725  0.00  0.00    +0.000 N 
ATOM     30  C   UNL     1      45.225   3.531  12.443  0.00  0.00    +0.000 A 
ATOM     31  O   UNL     1      46.007   2.767  12.999  0.00  0.00    +0.000 OA
ATOM     32  C   UNL     1      45.361   4.973  12.427  0.00  0.00    +0.000 A 
ATOM     33  H   UNL     1      44.033   2.054  11.725  0.00  0.00    +0.000 HD
ENDBRANCH  20  23
ENDBRANCH   2  19
TORSDOF 5
ENDMDL
MODEL 4
REMARK VINA RESULT:    -6.647      2.122      3.445
REMARK INTER + INTRA:          -9.923
REMARK INTER:                  -8.592
REMARK INTRA:                  -1.331
REMARK UNBOUND:                -1.334
REMARK  Name = 
REMARK  8 active torsions:
REMARK  status: ('A' for Active; 'I' for Inactive)
REMARK    1  A    between atoms: C_1  and  C_2
REMARK    2  A    between atoms: C_2  and  N_3
REMARK    3  A    between atoms: C_2  and  C_16
REMARK    4  A    between atoms: C_4  and  C_6
REMARK    5  A    between atoms: C_19  and  C_20
REMARK    6  A    between atoms: C_20  and  C_21
REMARK    7  A    between atoms: C_20  and  C_22
REMARK    8  A    between atoms: C_20  and  N_23
REMARK                            x       y       z     vdW  Elec       q    Type
REMARK                         _______ _______ _______ _____ _____    ______ ____
ROOT
ATOM      1  C   UNL     1      47.893   2.849  16.582  0.00  0.00    +0.000 C 
ATOM      2  C   UNL     1      48.081   4.315  16.198  0.00  0.00    +0.000 C 
ENDROOT
BRANCH   2   3
ATOM      3  C   UNL     1      48.077   5.235  17.406  0.00  0.00    +0.000 A 
ATOM      4  C   UNL     1      49.203   6.018  17.637  0.00  0.00    +0.000 A 
ATOM      5  C   UNL     1      49.261   6.885  18.726  0.00  0.00    +0.000 A 
ATOM      6  C   UNL     1      48.238   6.972  19.686  0.00  0.00    +0.000 A 
ATOM      7  C   UNL     1      47.085   6.207  19.421  0.00  0.00    +0.000 A 
ATOM      8  C   UNL     1      47.000   5.360  18.294  0.00  0.00    +0.000 A 
BRANCH   6   9
ATOM      9  C   UNL     1      48.389   7.934  20.894  0.00  0.00    +0.000 C 
ATOM     10  C   UNL     1      47.348   7.506  21.973  0.00  0.00    +0.000 C 
ATOM     11  C   UNL     1      49.755   7.743  21.621  0.00  0.00    +0.000 C 
BRANCH   9  12
ATOM     12  N   UNL     1      48.191   9.390  20.623  0.00  0.00    +0.000 NA
ATOM     13  C   UNL     1      47.201   9.829  19.619  0.00  0.00    +0.000 C 
ATOM     14  C   UNL     1      47.739  10.077  18.181  0.00  0.00    +0.000 C 
ATOM     15  N   UNL     1      49.034  10.764  18.061  0.00  0.00    +0.000 NA
ATOM     16  C   UNL     1      49.976  10.333  19.104  0.00  0.00    +0.000 C 
ATOM     17  C   UNL     1      49.365  10.266  20.513  0.00  0.00    +0.000 C 
ATOM     18  H   UNL     1      48.882  11.767  18.145  0.00  0.00    +0.000 HD
ENDBRANCH   9  12
ENDBRANCH   6   9
ENDBRANCH   2   3
BRANCH   2  19
ATOM     19  N   UNL     1      47.109   4.750  15.213  0.00  0.00    +0.000 N 
ATOM     20  C   UNL     1      47.457   5.562  14.165  0.00  0.00    +0.000 C 
ATOM     21  O   UNL     1      48.610   5.941  13.984  0.00  0.00    +0.000 OA
ATOM     22  H   UNL     1      46.131   4.566  15.408  0.00  0.00    +0.000 HD
BRANCH  20  23
ATOM     23  C   UNL     1      46.386   5.934  13.230  0.00  0.00    +0.000 A 
ATOM     24  C   UNL     1      46.158   7.276  12.953  0.00  0.00    +0.000 A 
ATOM     25  S   UNL     1      44.894   7.541  11.842  0.00  0.00    +0.000 S 
ATOM     26  C   UNL     1      44.569   5.876  11.734  0.00  0.00    +0.000 A 
ATOM     27  N   UNL     1      43.549   5.416  10.959  0.00  0.00    +0.000 NA
ATOM     28  C   UNL     1      43.381   4.136  11.010  0.00  0.00    +0.000 A 
ATOM     29  N   UNL     1      44.158   3.279  11.743  0.00  0.00    +0.000 N 
ATOM     30  C   UNL     1      45.247   3.688  12.476  0.00  0.00    +0.000 A 
ATOM     31  O   UNL     1      45.998   2.877  13.007  0.00  0.00    +0.000 OA
ATOM     32  C   UNL     1      45.439   5.124  12.506  0.00  0.00    +0.000 A 
ATOM     33  H   UNL     1      43.999   2.283  11.711  0.00  0.00    +0.000 HD
ENDBRANCH  20  23
ENDBRANCH   2  19
TORSDOF 5
ENDMDL
MODEL 5
REMARK VINA RESULT:    -6.275      1.684      3.016
REMARK INTER + INTRA:          -9.442
REMARK INTER:                  -8.305
REMARK INTRA:                  -1.138
REMARK UNBOUND:                -1.334
REMARK  Name = 
REMARK  8 active torsions:
REMARK  status: ('A' for Active; 'I' for Inactive)
REMARK    1  A    between atoms: C_1  and  C_2
REMARK    2  A    between atoms: C_2  and  N_3
REMARK    3  A    between atoms: C_2  and  C_16
REMARK    4  A    between atoms: C_4  and  C_6
REMARK    5  A    between atoms: C_19  and  C_20
REMARK    6  A    between atoms: C_20  and  C_21
REMARK    7  A    between atoms: C_20  and  C_22
REMARK    8  A    between atoms: C_20  and  N_23
REMARK                            x       y       z     vdW  Elec       q    Type
REMARK                         _______ _______ _______ _____ _____    ______ ____
ROOT
ATOM      1  C   UNL     1      49.256   7.797  11.650  0.00  0.00    +0.000 C 
ATOM      2  C   UNL     1      48.045   7.693  12.576  0.00  0.00    +0.000 C 
ENDROOT
BRANCH   2   3
ATOM      3  C   UNL     1      48.436   7.714  14.044  0.00  0.00    +0.000 A 
ATOM      4  C   UNL     1      47.861   8.683  14.860  0.00  0.00    +0.000 A 
ATOM      5  C   UNL     1      48.176   8.754  16.216  0.00  0.00    +0.000 A 
ATOM      6  C   UNL     1      49.128   7.917  16.822  0.00  0.00    +0.000 A 
ATOM      7  C   UNL     1      49.673   6.914  15.997  0.00  0.00    +0.000 A 
ATOM      8  C   UNL     1      49.325   6.805  14.632  0.00  0.00    +0.000 A 
BRANCH   6   9
ATOM      9  C   UNL     1      49.453   8.079  18.331  0.00  0.00    +0.000 C 
ATOM     10  C   UNL     1      51.005   8.141  18.476  0.00  0.00    +0.000 C 
ATOM     11  C   UNL     1      48.989   9.464  18.879  0.00  0.00    +0.000 C 
BRANCH   9  12
ATOM     12  N   UNL     1      48.952   7.009  19.245  0.00  0.00    +0.000 NA
ATOM     13  C   UNL     1      49.835   5.890  19.629  0.00  0.00    +0.000 C 
ATOM     14  C   UNL     1      49.729   4.600  18.768  0.00  0.00    +0.000 C 
ATOM     15  N   UNL     1      48.379   4.168  18.373  0.00  0.00    +0.000 NA
ATOM     16  C   UNL     1      47.518   5.314  18.041  0.00  0.00    +0.000 C 
ATOM     17  C   UNL     1      47.599   6.472  19.049  0.00  0.00    +0.000 C 
ATOM     18  H   UNL     1      47.961   3.652  19.145  0.00  0.00    +0.000 HD
ENDBRANCH   9  12
ENDBRANCH   6   9
ENDBRANCH   2   3
BRANCH   2  19
ATOM     19  N   UNL     1      47.226   6.534  12.276  0.00  0.00    +0.000 N 
ATOM     20  C   UNL     1      45.857   6.588  12.314  0.00  0.00    +0.000 C 
ATOM     21  O   UNL     1      45.250   7.622  12.575  0.00  0.00    +0.000 OA
ATOM     22  H   UNL     1      47.695   5.639  12.189  0.00  0.00    +0.000 HD
BRANCH  20  23
ATOM     23  C   UNL     1      45.134   5.351  11.988  0.00  0.00    +0.000 A 
ATOM     24  C   UNL     1      44.415   4.700  12.981  0.00  0.00    +0.000 A 
ATOM     25  S   UNL     1      43.624   3.291  12.442  0.00  0.00    +0.000 S 
ATOM     26  C   UNL     1      44.259   3.470  10.875  0.00  0.00    +0.000 A 
ATOM     27  N   UNL     1      43.994   2.550   9.907  0.00  0.00    +0.000 NA
ATOM     28  C   UNL     1      44.583   2.782   8.781  0.00  0.00    +0.000 A 
ATOM     29  N   UNL     1      45.386   3.863   8.532  0.00  0.00    +0.000 N 
ATOM     30  C   UNL     1      45.618   4.858   9.452  0.00  0.00    +0.000 A 
ATOM     31  O   UNL     1      46.230   5.876   9.147  0.00  0.00    +0.000 OA
ATOM     32  C   UNL     1      45.035   4.612  10.755  0.00  0.00    +0.000 A 
ATOM     33  H   UNL     1      45.786   4.007   7.617  0.00  0.00    +0.000 HD
ENDBRANCH  20  23
ENDBRANCH   2  19
TORSDOF 5
ENDMDL
MODEL 6
REMARK VINA RESULT:    -6.163      2.451      4.156
REMARK INTER + INTRA:          -9.298
REMARK INTER:                  -7.882
REMARK INTRA:                  -1.416
REMARK UNBOUND:                -1.334
REMARK  Name = 
REMARK  8 active torsions:
REMARK  status: ('A' for Active; 'I' for Inactive)
REMARK    1  A    between atoms: C_1  and  C_2
REMARK    2  A    between atoms: C_2  and  N_3
REMARK    3  A    between atoms: C_2  and  C_16
REMARK    4  A    between atoms: C_4  and  C_6
REMARK    5  A    between atoms: C_19  and  C_20
REMARK    6  A    between atoms: C_20  and  C_21
REMARK    7  A    between atoms: C_20  and  C_22
REMARK    8  A    between atoms: C_20  and  N_23
REMARK                            x       y       z     vdW  Elec       q    Type
REMARK                         _______ _______ _______ _____ _____    ______ ____
ROOT
ATOM      1  C   UNL     1      47.299   3.141  17.387  0.00  0.00    +0.000 C 
ATOM      2  C   UNL     1      47.877   4.230  16.485  0.00  0.00    +0.000 C 
ENDROOT
BRANCH   2   3
ATOM      3  C   UNL     1      48.482   5.376  17.277  0.00  0.00    +0.000 A 
ATOM      4  C   UNL     1      49.533   6.085  16.703  0.00  0.00    +0.000 A 
ATOM      5  C   UNL     1      50.129   7.150  17.377  0.00  0.00    +0.000 A 
ATOM      6  C   UNL     1      49.766   7.525  18.681  0.00  0.00    +0.000 A 
ATOM      7  C   UNL     1      48.674   6.829  19.236  0.00  0.00    +0.000 A 
ATOM      8  C   UNL     1      48.034   5.778  18.542  0.00  0.00    +0.000 A 
BRANCH   6   9
ATOM      9  C   UNL     1      50.500   8.698  19.383  0.00  0.00    +0.000 C 
ATOM     10  C   UNL     1      50.434   8.448  20.921  0.00  0.00    +0.000 C 
ATOM     11  C   UNL     1      52.032   8.685  19.086  0.00  0.00    +0.000 C 
BRANCH   9  12
ATOM     12  N   UNL     1      49.975  10.073  19.122  0.00  0.00    +0.000 NA
ATOM     13  C   UNL     1      48.523  10.333  19.179  0.00  0.00    +0.000 C 
ATOM     14  C   UNL     1      47.753  10.252  17.830  0.00  0.00    +0.000 C 
ATOM     15  N   UNL     1      48.405  10.843  16.652  0.00  0.00    +0.000 NA
ATOM     16  C   UNL     1      49.855  10.600  16.654  0.00  0.00    +0.000 C 
ATOM     17  C   UNL     1      50.532  10.856  18.011  0.00  0.00    +0.000 C 
ATOM     18  H   UNL     1      48.237  11.847  16.653  0.00  0.00    +0.000 HD
ENDBRANCH   9  12
ENDBRANCH   6   9
ENDBRANCH   2   3
BRANCH   2  19
ATOM     19  N   UNL     1      46.903   4.720  15.527  0.00  0.00    +0.000 N 
ATOM     20  C   UNL     1      46.739   4.133  14.300  0.00  0.00    +0.000 C 
ATOM     21  O   UNL     1      47.383   3.147  13.954  0.00  0.00    +0.000 OA
ATOM     22  H   UNL     1      46.455   5.607  15.728  0.00  0.00    +0.000 HD
BRANCH  20  23
ATOM     23  C   UNL     1      45.720   4.716  13.416  0.00  0.00    +0.000 A 
ATOM     24  C   UNL     1      44.679   3.919  12.959  0.00  0.00    +0.000 A 
ATOM     25  S   UNL     1      43.574   4.744  11.958  0.00  0.00    +0.000 S 
ATOM     26  C   UNL     1      44.478   6.181  12.055  0.00  0.00    +0.000 A 
ATOM     27  N   UNL     1      44.091   7.293  11.372  0.00  0.00    +0.000 NA
ATOM     28  C   UNL     1      44.897   8.295  11.493  0.00  0.00    +0.000 A 
ATOM     29  N   UNL     1      46.035   8.290  12.255  0.00  0.00    +0.000 N 
ATOM     30  C   UNL     1      46.422   7.218  13.024  0.00  0.00    +0.000 A 
ATOM     31  O   UNL     1      47.370   7.300  13.797  0.00  0.00    +0.000 OA
ATOM     32  C   UNL     1      45.589   6.044  12.872  0.00  0.00    +0.000 A 
ATOM     33  H   UNL     1      46.603   9.120  12.339  0.00  0.00    +0.000 HD
ENDBRANCH  20  23
ENDBRANCH   2  19
TORSDOF 5
ENDMDL
MODEL 7
REMARK VINA RESULT:    -6.100      3.542      8.387
REMARK INTER + INTRA:          -9.217
REMARK INTER:                  -8.264
REMARK INTRA:                  -0.953
REMARK UNBOUND:                -1.334
REMARK  Name = 
REMARK  8 active torsions:
REMARK  status: ('A' for Active; 'I' for Inactive)
REMARK    1  A    between atoms: C_1  and  C_2
REMARK    2  A    between atoms: C_2  and  N_3
REMARK    3  A    between atoms: C_2  and  C_16
REMARK    4  A    between atoms: C_4  and  C_6
REMARK    5  A    between atoms: C_19  and  C_20
REMARK    6  A    between atoms: C_20  and  C_21
REMARK    7  A    between atoms: C_20  and  C_22
REMARK    8  A    between atoms: C_20  and  N_23
REMARK                            x       y       z     vdW  Elec       q    Type
REMARK                         _______ _______ _______ _____ _____    ______ ____
ROOT
ATOM      1  C   UNL     1      51.343   9.442  13.673  0.00  0.00    +0.000 C 
ATOM      2  C   UNL     1      50.931   8.009  14.006  0.00  0.00    +0.000 C 
ENDROOT
BRANCH   2   3
ATOM      3  C   UNL     1      49.618   7.617  13.352  0.00  0.00    +0.000 A 
ATOM      4  C   UNL     1      48.652   7.003  14.141  0.00  0.00    +0.000 A 
ATOM      5  C   UNL     1      47.424   6.622  13.601  0.00  0.00    +0.000 A 
ATOM      6  C   UNL     1      47.114   6.764  12.238  0.00  0.00    +0.000 A 
ATOM      7  C   UNL     1      48.083   7.424  11.457  0.00  0.00    +0.000 A 
ATOM      8  C   UNL     1      49.311   7.855  12.005  0.00  0.00    +0.000 A 
BRANCH   6   9
ATOM      9  C   UNL     1      45.740   6.282  11.702  0.00  0.00    +0.000 C 
ATOM     10  C   UNL     1      44.807   7.528  11.602  0.00  0.00    +0.000 C 
ATOM     11  C   UNL     1      45.834   5.789  10.225  0.00  0.00    +0.000 C 
BRANCH   9  12
ATOM     12  N   UNL     1      45.029   5.244  12.509  0.00  0.00    +0.000 NA
ATOM     13  C   UNL     1      45.249   3.811  12.229  0.00  0.00    +0.000 C 
ATOM     14  C   UNL     1      44.237   3.132  11.264  0.00  0.00    +0.000 C 
ATOM     15  N   UNL     1      42.818   3.483  11.428  0.00  0.00    +0.000 NA
ATOM     16  C   UNL     1      42.644   4.907  11.749  0.00  0.00    +0.000 C 
ATOM     17  C   UNL     1      43.607   5.431  12.826  0.00  0.00    +0.000 C 
ATOM     18  H   UNL     1      42.428   2.923  12.184  0.00  0.00    +0.000 HD
ENDBRANCH   9  12
ENDBRANCH   6   9
ENDBRANCH   2   3
BRANCH   2  19
ATOM     19  N   UNL     1      50.887   7.773  15.437  0.00  0.00    +0.000 N 
ATOM     20  C   UNL     1      51.941   7.211  16.109  0.00  0.00    +0.000 C 
ATOM     21  O   UNL     1      52.988   6.905  15.547  0.00  0.00    +0.000 OA
ATOM     22  H   UNL     1      49.993   7.889  15.903  0.00  0.00    +0.000 HD
BRANCH  20  23
ATOM     23  C   UNL     1      51.780   7.024  17.558  0.00  0.00    +0.000 A 
ATOM     24  C   UNL     1      52.581   7.747  18.432  0.00  0.00    +0.000 A 
ATOM     25  S   UNL     1      52.263   7.428  20.075  0.00  0.00    +0.000 S 
ATOM     26  C   UNL     1      51.083   6.271  19.677  0.00  0.00    +0.000 A 
ATOM     27  N   UNL     1      50.436   5.574  20.651  0.00  0.00    +0.000 NA
ATOM     28  C   UNL     1      49.604   4.692  20.207  0.00  0.00    +0.000 A 
ATOM     29  N   UNL     1      49.345   4.466  18.881  0.00  0.00    +0.000 N 
ATOM     30  C   UNL     1      49.914   5.198  17.866  0.00  0.00    +0.000 A 
ATOM     31  O   UNL     1      49.555   5.059  16.702  0.00  0.00    +0.000 OA
ATOM     32  C   UNL     1      50.906   6.157  18.307  0.00  0.00    +0.000 A 
ATOM     33  H   UNL     1      48.654   3.787  18.599  0.00  0.00    +0.000 HD
ENDBRANCH  20  23
ENDBRANCH   2  19
TORSDOF 5
ENDMDL
MODEL 8
REMARK VINA RESULT:    -6.086      1.617      2.403
REMARK INTER + INTRA:          -9.199
REMARK INTER:                  -7.754
REMARK INTRA:                  -1.445
REMARK UNBOUND:                -1.334
REMARK  Name = 
REMARK  8 active torsions:
REMARK  status: ('A' for Active; 'I' for Inactive)
REMARK    1  A    between atoms: C_1  and  C_2
REMARK    2  A    between atoms: C_2  and  N_3
REMARK    3  A    between atoms: C_2  and  C_16
REMARK    4  A    between atoms: C_4  and  C_6
REMARK    5  A    between atoms: C_19  and  C_20
REMARK    6  A    between atoms: C_20  and  C_21
REMARK    7  A    between atoms: C_20  and  C_22
REMARK    8  A    between atoms: C_20  and  N_23
REMARK                            x       y       z     vdW  Elec       q    Type
REMARK                         _______ _______ _______ _____ _____    ______ ____
ROOT
ATOM      1  C   UNL     1      49.755   8.464  12.252  0.00  0.00    +0.000 C 
ATOM      2  C   UNL     1      48.567   8.359  13.206  0.00  0.00    +0.000 C 
ENDROOT
BRANCH   2   3
ATOM      3  C   UNL     1      48.988   7.984  14.616  0.00  0.00    +0.000 A 
ATOM      4  C   UNL     1      48.357   8.622  15.679  0.00  0.00    +0.000 A 
ATOM      5  C   UNL     1      48.696   8.321  16.997  0.00  0.00    +0.000 A 
ATOM      6  C   UNL     1      49.725   7.426  17.334  0.00  0.00    +0.000 A 
ATOM      7  C   UNL     1      50.329   6.755  16.252  0.00  0.00    +0.000 A 
ATOM      8  C   UNL     1      49.960   7.020  14.915  0.00  0.00    +0.000 A 
BRANCH   6   9
ATOM      9  C   UNL     1      50.071   7.168  18.824  0.00  0.00    +0.000 C 
ATOM     10  C   UNL     1      51.595   6.848  18.908  0.00  0.00    +0.000 C 
ATOM     11  C   UNL     1      49.932   8.463  19.685  0.00  0.00    +0.000 C 
BRANCH   9  12
ATOM     12  N   UNL     1      49.334   6.061  19.504  0.00  0.00    +0.000 NA
ATOM     13  C   UNL     1      49.225   4.738  18.857  0.00  0.00    +0.000 C 
ATOM     14  C   UNL     1      47.946   4.487  18.009  0.00  0.00    +0.000 C 
ATOM     15  N   UNL     1      46.672   4.972  18.562  0.00  0.00    +0.000 NA
ATOM     16  C   UNL     1      46.831   6.269  19.236  0.00  0.00    +0.000 C 
ATOM     17  C   UNL     1      48.054   6.349  20.164  0.00  0.00    +0.000 C 
ATOM     18  H   UNL     1      46.325   4.290  19.234  0.00  0.00    +0.000 HD
ENDBRANCH   9  12
ENDBRANCH   6   9
ENDBRANCH   2   3
BRANCH   2  19
ATOM     19  N   UNL     1      47.549   7.450  12.712  0.00  0.00    +0.000 N 
ATOM     20  C   UNL     1      46.212   7.721  12.848  0.00  0.00    +0.000 C 
ATOM     21  O   UNL     1      45.803   8.756  13.366  0.00  0.00    +0.000 OA
ATOM     22  H   UNL     1      47.850   6.533  12.403  0.00  0.00    +0.000 HD
BRANCH  20  23
ATOM     23  C   UNL     1      45.275   6.728  12.306  0.00  0.00    +0.000 A 
ATOM     24  C   UNL     1      44.148   7.158  11.618  0.00  0.00    +0.000 A 
ATOM     25  S   UNL     1      43.171   5.887  11.041  0.00  0.00    +0.000 S 
ATOM     26  C   UNL     1      44.190   4.717  11.736  0.00  0.00    +0.000 A 
ATOM     27  N   UNL     1      43.893   3.392  11.644  0.00  0.00    +0.000 NA
ATOM     28  C   UNL     1      44.723   2.619  12.261  0.00  0.00    +0.000 A 
ATOM     29  N   UNL     1      45.833   3.051  12.936  0.00  0.00    +0.000 N 
ATOM     30  C   UNL     1      46.217   4.371  12.989  0.00  0.00    +0.000 A 
ATOM     31  O   UNL     1      47.288   4.702  13.486  0.00  0.00    +0.000 OA
ATOM     32  C   UNL     1      45.283   5.288  12.369  0.00  0.00    +0.000 A 
ATOM     33  H   UNL     1      46.464   2.392  13.366  0.00  0.00    +0.000 HD
ENDBRANCH  20  23
ENDBRANCH   2  19
TORSDOF 5
ENDMDL
MODEL 9
REMARK VINA RESULT:    -6.043      2.546      3.851
REMARK INTER + INTRA:          -9.143
REMARK INTER:                  -8.155
REMARK INTRA:                  -0.988
REMARK UNBOUND:                -1.334
REMARK  Name = 
REMARK  8 active torsions:
REMARK  status: ('A' for Active; 'I' for Inactive)
REMARK    1  A    between atoms: C_1  and  C_2
REMARK    2  A    between atoms: C_2  and  N_3
REMARK    3  A    between atoms: C_2  and  C_16
REMARK    4  A    between atoms: C_4  and  C_6
REMARK    5  A    between atoms: C_19  and  C_20
REMARK    6  A    between atoms: C_20  and  C_21
REMARK    7  A    between atoms: C_20  and  C_22
REMARK    8  A    between atoms: C_20  and  N_23
REMARK                            x       y       z     vdW  Elec       q    Type
REMARK                         _______ _______ _______ _____ _____    ______ ____
ROOT
ATOM      1  C   UNL     1      46.962   3.149  17.311  0.00  0.00    +0.000 C 
ATOM      2  C   UNL     1      47.889   4.098  16.553  0.00  0.00    +0.000 C 
ENDROOT
BRANCH   2   3
ATOM      3  C   UNL     1      48.725   4.958  17.485  0.00  0.00    +0.000 A 
ATOM      4  C   UNL     1      50.109   4.904  17.358  0.00  0.00    +0.000 A 
ATOM      5  C   UNL     1      50.933   5.671  18.180  0.00  0.00    +0.000 A 
ATOM      6  C   UNL     1      50.435   6.477  19.219  0.00  0.00    +0.000 A 
ATOM      7  C   UNL     1      49.031   6.555  19.312  0.00  0.00    +0.000 A 
ATOM      8  C   UNL     1      48.188   5.817  18.452  0.00  0.00    +0.000 A 
BRANCH   6   9
ATOM      9  C   UNL     1      51.416   7.274  20.119  0.00  0.00    +0.000 C 
ATOM     10  C   UNL     1      50.689   7.569  21.467  0.00  0.00    +0.000 C 
ATOM     11  C   UNL     1      52.638   6.408  20.556  0.00  0.00    +0.000 C 
BRANCH   9  12
ATOM     12  N   UNL     1      51.919   8.573  19.579  0.00  0.00    +0.000 NA
ATOM     13  C   UNL     1      50.992   9.503  18.905  0.00  0.00    +0.000 C 
ATOM     14  C   UNL     1      50.903   9.391  17.356  0.00  0.00    +0.000 C 
ATOM     15  N   UNL     1      52.166   9.196  16.627  0.00  0.00    +0.000 NA
ATOM     16  C   UNL     1      53.079   8.299  17.351  0.00  0.00    +0.000 C 
ATOM     17  C   UNL     1      53.197   8.602  18.854  0.00  0.00    +0.000 C 
ATOM     18  H   UNL     1      52.617  10.101  16.506  0.00  0.00    +0.000 HD
ENDBRANCH   9  12
ENDBRANCH   6   9
ENDBRANCH   2   3
BRANCH   2  19
ATOM     19  N   UNL     1      47.167   4.919  15.599  0.00  0.00    +0.000 N 
ATOM     20  C   UNL     1      46.916   4.491  14.322  0.00  0.00    +0.000 C 
ATOM     21  O   UNL     1      47.259   3.383  13.924  0.00  0.00    +0.000 OA
ATOM     22  H   UNL     1      46.989   5.885  15.854  0.00  0.00    +0.000 HD
BRANCH  20  23
ATOM     23  C   UNL     1      46.173   5.410  13.448  0.00  0.00    +0.000 A 
ATOM     24  C   UNL     1      46.715   6.652  13.148  0.00  0.00    +0.000 A 
ATOM     25  S   UNL     1      45.742   7.593  12.114  0.00  0.00    +0.000 S 
ATOM     26  C   UNL     1      44.534   6.396  12.075  0.00  0.00    +0.000 A 
ATOM     27  N   UNL     1      43.380   6.595  11.382  0.00  0.00    +0.000 NA
ATOM     28  C   UNL     1      42.530   5.628  11.481  0.00  0.00    +0.000 A 
ATOM     29  N   UNL     1      42.744   4.474  12.187  0.00  0.00    +0.000 N 
ATOM     30  C   UNL     1      43.924   4.195  12.835  0.00  0.00    +0.000 A 
ATOM     31  O   UNL     1      44.129   3.096  13.339  0.00  0.00    +0.000 OA
ATOM     32  C   UNL     1      44.887   5.277  12.811  0.00  0.00    +0.000 A 
ATOM     33  H   UNL     1      42.054   3.738  12.194  0.00  0.00    +0.000 HD
ENDBRANCH  20  23
ENDBRANCH   2  19
TORSDOF 5
ENDMDL
