MODEL 1
REMARK VINA RESULT:    -7.619      0.000      0.000
REMARK INTER + INTRA:         -10.633
REMARK INTER:                 -10.068
REMARK INTRA:                  -0.564
REMARK UNBOUND:                -0.564
REMARK  Name = 
REMARK  7 active torsions:
REMARK  status: ('A' for Active; 'I' for Inactive)
REMARK    1  A    between atoms: C_1  and  C_2
REMARK    2  A    between atoms: C_5  and  C_6
REMARK    3  A    between atoms: C_6  and  C_7
REMARK    4  A    between atoms: C_7  and  N_8
REMARK    5  A    between atoms: C_12  and  C_13
REMARK    6  A    between atoms: C_19  and  C_20
REMARK    7  A    between atoms: C_20  and  N_21
REMARK                            x       y       z     vdW  Elec       q    Type
REMARK                         _______ _______ _______ _____ _____    ______ ____
ROOT
ATOM      1  C   UNL     1      43.561   5.019  10.232  0.00  0.00    +0.000 C 
ENDROOT
BRANCH   1   2
ATOM      2  N   UNL     1      43.957   3.600  10.248  0.00  0.00    +0.000 N 
ATOM      3  C   UNL     1      44.849   3.275   9.207  0.00  0.00    +0.000 A 
ATOM      4  C   UNL     1      45.306   1.965   9.086  0.00  0.00    +0.000 A 
ATOM      5  C   UNL     1      46.196   1.637   8.058  0.00  0.00    +0.000 A 
ATOM      6  C   UNL     1      46.614   2.624   7.164  0.00  0.00    +0.000 A 
ATOM      7  C   UNL     1      46.122   3.899   7.368  0.00  0.00    +0.000 A 
ATOM      8  N   UNL     1      45.266   4.236   8.362  0.00  0.00    +0.000 NA
ATOM      9  H   UNL     1      43.156   2.978  10.188  0.00  0.00    +0.000 HD
BRANCH   6  10
ATOM     10  C   UNL     1      47.542   2.278   6.061  0.00  0.00    +0.000 C 
ATOM     11  N   UNL     1      48.890   2.378   6.276  0.00  0.00    +0.000 N 
ATOM     12  O   UNL     1      47.121   1.915   4.970  0.00  0.00    +0.000 OA
ATOM     13  H   UNL     1      49.341   2.672   7.127  0.00  0.00    +0.000 HD
ATOM     14  H   UNL     1      49.488   2.135   5.491  0.00  0.00    +0.000 HD
ENDBRANCH   6  10
ENDBRANCH   1   2
BRANCH   1  15
ATOM     15  C   UNL     1      43.514   5.596  11.650  0.00  0.00    +0.000 C 
BRANCH  15  20
ATOM     16  C   UNL     1      48.879   6.864  13.607  0.00  0.00    +0.000 C 
ATOM     17  C   UNL     1      47.483   6.519  13.164  0.00  0.00    +0.000 A 
ATOM     18  C   UNL     1      46.922   7.249  12.101  0.00  0.00    +0.000 A 
ATOM     19  C   UNL     1      45.644   6.957  11.615  0.00  0.00    +0.000 A 
ATOM     20  C   UNL     1      44.894   5.923  12.176  0.00  0.00    +0.000 A 
ATOM     21  C   UNL     1      45.443   5.204  13.249  0.00  0.00    +0.000 A 
ATOM     22  C   UNL     1      46.732   5.481  13.754  0.00  0.00    +0.000 A 
BRANCH  22  23
ATOM     23  C   UNL     1      47.262   4.607  14.871  0.00  0.00    +0.000 C 
BRANCH  23  24
ATOM     24  N   UNL     1      47.416   3.214  14.457  0.00  0.00    +0.000 NA
ATOM     25  H   UNL     1      48.189   2.803  14.978  0.00  0.00    +0.000 HD
ATOM     26  H   UNL     1      47.681   3.186  13.474  0.00  0.00    +0.000 HD
ENDBRANCH  23  24
ENDBRANCH  22  23
ENDBRANCH  15  20
ENDBRANCH   1  15
TORSDOF 6
ENDMDL
MODEL 2
REMARK VINA RESULT:    -7.359      1.654      2.206
REMARK INTER + INTRA:         -10.290
REMARK INTER:                  -9.756
REMARK INTRA:                  -0.533
REMARK UNBOUND:                -0.564
REMARK  Name = 
REMARK  7 active torsions:
REMARK  status: ('A' for Active; 'I' for Inactive)
REMARK    1  A    between atoms: C_1  and  C_2
REMARK    2  A    between atoms: C_5  and  C_6
REMARK    3  A    between atoms: C_6  and  C_7
REMARK    4  A    between atoms: C_7  and  N_8
REMARK    5  A    between atoms: C_12  and  C_13
REMARK    6  A    between atoms: C_19  and  C_20
REMARK    7  A    between atoms: C_20  and  N_21
REMARK                            x       y       z     vdW  Elec       q    Type
REMARK                         _______ _______ _______ _____ _____    ______ ____
ROOT
ATOM      1  C   UNL     1      43.301   4.525  10.965  0.00  0.00    +0.000 C 
ENDROOT
BRANCH   1   2
ATOM      2  N   UNL     1      43.739   3.144  10.699  0.00  0.00    +0.000 N 
ATOM      3  C   UNL     1      44.618   3.056   9.601  0.00  0.00    +0.000 A 
ATOM      4  C   UNL     1      45.111   1.810   9.221  0.00  0.00    +0.000 A 
ATOM      5  C   UNL     1      45.988   1.717   8.135  0.00  0.00    +0.000 A 
ATOM      6  C   UNL     1      46.357   2.872   7.444  0.00  0.00    +0.000 A 
ATOM      7  C   UNL     1      45.833   4.067   7.900  0.00  0.00    +0.000 A 
ATOM      8  N   UNL     1      44.989   4.177   8.953  0.00  0.00    +0.000 NA
ATOM      9  H   UNL     1      42.956   2.520  10.531  0.00  0.00    +0.000 HD
BRANCH   6  10
ATOM     10  C   UNL     1      47.272   2.777   6.281  0.00  0.00    +0.000 C 
ATOM     11  N   UNL     1      48.613   2.617   6.506  0.00  0.00    +0.000 N 
ATOM     12  O   UNL     1      46.847   2.847   5.134  0.00  0.00    +0.000 OA
ATOM     13  H   UNL     1      49.067   2.557   7.402  0.00  0.00    +0.000 HD
ATOM     14  H   UNL     1      49.202   2.562   5.679  0.00  0.00    +0.000 HD
ENDBRANCH   6  10
ENDBRANCH   1   2
BRANCH   1  15
ATOM     15  C   UNL     1      43.432   4.870  12.452  0.00  0.00    +0.000 C 
BRANCH  15  20
ATOM     16  C   UNL     1      48.616   7.243  13.765  0.00  0.00    +0.000 C 
ATOM     17  C   UNL     1      47.273   6.680  13.384  0.00  0.00    +0.000 A 
ATOM     18  C   UNL     1      47.079   5.291  13.488  0.00  0.00    +0.000 A 
ATOM     19  C   UNL     1      45.847   4.706  13.185  0.00  0.00    +0.000 A 
ATOM     20  C   UNL     1      44.772   5.495  12.774  0.00  0.00    +0.000 A 
ATOM     21  C   UNL     1      44.966   6.879  12.652  0.00  0.00    +0.000 A 
ATOM     22  C   UNL     1      46.202   7.492  12.955  0.00  0.00    +0.000 A 
BRANCH  22  23
ATOM     23  C   UNL     1      46.294   8.999  12.854  0.00  0.00    +0.000 C 
BRANCH  23  24
ATOM     24  N   UNL     1      44.977   9.631  12.815  0.00  0.00    +0.000 NA
ATOM     25  H   UNL     1      44.267   8.914  12.962  0.00  0.00    +0.000 HD
ATOM     26  H   UNL     1      44.817  10.011  11.884  0.00  0.00    +0.000 HD
ENDBRANCH  23  24
ENDBRANCH  22  23
ENDBRANCH  15  20
ENDBRANCH   1  15
TORSDOF 6
ENDMDL
MODEL 3
REMARK VINA RESULT:    -6.528      3.855      6.229
REMARK INTER + INTRA:          -9.191
REMARK INTER:                  -8.854
REMARK INTRA:                  -0.337
REMARK UNBOUND:                -0.564
REMARK  Name = 
REMARK  7 active torsions:
REMARK  status: ('A' for Active; 'I' for Inactive)
REMARK    1  A    between atoms: C_1  and  C_2
REMARK    2  A    between atoms: C_5  and  C_6
REMARK    3  A    between atoms: C_6  and  C_7
REMARK    4  A    between atoms: C_7  and  N_8
REMARK    5  A    between atoms: C_12  and  C_13
REMARK    6  A    between atoms: C_19  and  C_20
REMARK    7  A    between atoms: C_20  and  N_21
REMARK                            x       y       z     vdW  Elec       q    Type
REMARK                         _______ _______ _______ _____ _____    ______ ____
ROOT
ATOM      1  C   UNL     1      47.307   3.974  15.697  0.00  0.00    +0.000 C 
ENDROOT
BRANCH   1   2
ATOM      2  N   UNL     1      46.945   5.132  14.860  0.00  0.00    +0.000 N 
ATOM      3  C   UNL     1      46.298   4.756  13.666  0.00  0.00    +0.000 A 
ATOM      4  C   UNL     1      45.902   5.743  12.766  0.00  0.00    +0.000 A 
ATOM      5  C   UNL     1      45.254   5.376  11.582  0.00  0.00    +0.000 A 
ATOM      6  C   UNL     1      45.013   4.027  11.314  0.00  0.00    +0.000 A 
ATOM      7  C   UNL     1      45.425   3.118  12.270  0.00  0.00    +0.000 A 
ATOM      8  N   UNL     1      46.047   3.455  13.425  0.00  0.00    +0.000 NA
ATOM      9  H   UNL     1      47.753   5.699  14.620  0.00  0.00    +0.000 HD
BRANCH   6  10
ATOM     10  C   UNL     1      44.343   3.632  10.052  0.00  0.00    +0.000 C 
ATOM     11  N   UNL     1      43.883   4.611   9.213  0.00  0.00    +0.000 N 
ATOM     12  O   UNL     1      44.191   2.453   9.759  0.00  0.00    +0.000 OA
ATOM     13  H   UNL     1      43.947   5.605   9.361  0.00  0.00    +0.000 HD
ATOM     14  H   UNL     1      43.426   4.294   8.363  0.00  0.00    +0.000 HD
ENDBRANCH   6  10
ENDBRANCH   1   2
BRANCH   1  15
ATOM     15  C   UNL     1      47.624   4.407  17.132  0.00  0.00    +0.000 C 
BRANCH  15  20
ATOM     16  C   UNL     1      53.223   3.447  18.527  0.00  0.00    +0.000 C 
ATOM     17  C   UNL     1      51.772   3.630  18.176  0.00  0.00    +0.000 A 
ATOM     18  C   UNL     1      51.162   4.859  18.483  0.00  0.00    +0.000 A 
ATOM     19  C   UNL     1      49.828   5.110  18.153  0.00  0.00    +0.000 A 
ATOM     20  C   UNL     1      49.067   4.140  17.500  0.00  0.00    +0.000 A 
ATOM     21  C   UNL     1      49.665   2.905  17.208  0.00  0.00    +0.000 A 
ATOM     22  C   UNL     1      51.012   2.631  17.531  0.00  0.00    +0.000 A 
BRANCH  22  23
ATOM     23  C   UNL     1      51.587   1.293  17.117  0.00  0.00    +0.000 C 
BRANCH  23  24
ATOM     24  N   UNL     1      51.506   0.302  18.187  0.00  0.00    +0.000 NA
ATOM     25  H   UNL     1      50.779  -0.373  17.953  0.00  0.00    +0.000 HD
ATOM     26  H   UNL     1      51.208   0.762  19.045  0.00  0.00    +0.000 HD
ENDBRANCH  23  24
ENDBRANCH  22  23
ENDBRANCH  15  20
ENDBRANCH   1  15
TORSDOF 6
ENDMDL
MODEL 4
REMARK VINA RESULT:    -6.448      2.869      7.189
REMARK INTER + INTRA:          -9.086
REMARK INTER:                  -8.718
REMARK INTRA:                  -0.368
REMARK UNBOUND:                -0.564
REMARK  Name = 
REMARK  7 active torsions:
REMARK  status: ('A' for Active; 'I' for Inactive)
REMARK    1  A    between atoms: C_1  and  C_2
REMARK    2  A    between atoms: C_5  and  C_6
REMARK    3  A    between atoms: C_6  and  C_7
REMARK    4  A    between atoms: C_7  and  N_8
REMARK    5  A    between atoms: C_12  and  C_13
REMARK    6  A    between atoms: C_19  and  C_20
REMARK    7  A    between atoms: C_20  and  N_21
REMARK                            x       y       z     vdW  Elec       q    Type
REMARK                         _______ _______ _______ _____ _____    ______ ____
ROOT
ATOM      1  C   UNL     1      44.256   5.048  10.664  0.00  0.00    +0.000 C 
ENDROOT
BRANCH   1   2
ATOM      2  N   UNL     1      45.336   6.003  10.970  0.00  0.00    +0.000 N 
ATOM      3  C   UNL     1      45.983   5.716  12.189  0.00  0.00    +0.000 A 
ATOM      4  C   UNL     1      47.022   6.539  12.618  0.00  0.00    +0.000 A 
ATOM      5  C   UNL     1      47.671   6.257  13.825  0.00  0.00    +0.000 A 
ATOM      6  C   UNL     1      47.271   5.157  14.585  0.00  0.00    +0.000 A 
ATOM      7  C   UNL     1      46.242   4.387  14.075  0.00  0.00    +0.000 A 
ATOM      8  N   UNL     1      45.607   4.641  12.906  0.00  0.00    +0.000 NA
ATOM      9  H   UNL     1      45.002   6.961  11.004  0.00  0.00    +0.000 HD
BRANCH   6  10
ATOM     10  C   UNL     1      47.943   4.864  15.873  0.00  0.00    +0.000 C 
ATOM     11  N   UNL     1      48.203   5.897  16.733  0.00  0.00    +0.000 N 
ATOM     12  O   UNL     1      48.273   3.722  16.169  0.00  0.00    +0.000 OA
ATOM     13  H   UNL     1      47.984   6.868  16.586  0.00  0.00    +0.000 HD
ATOM     14  H   UNL     1      48.670   5.650  17.601  0.00  0.00    +0.000 HD
ENDBRANCH   6  10
ENDBRANCH   1   2
BRANCH   1  15
ATOM     15  C   UNL     1      44.113   4.841   9.153  0.00  0.00    +0.000 C 
BRANCH  15  20
ATOM     16  C   UNL     1      47.014   0.079   7.383  0.00  0.00    +0.000 C 
ATOM     17  C   UNL     1      46.268   1.325   7.776  0.00  0.00    +0.000 A 
ATOM     18  C   UNL     1      45.386   1.257   8.870  0.00  0.00    +0.000 A 
ATOM     19  C   UNL     1      44.689   2.384   9.311  0.00  0.00    +0.000 A 
ATOM     20  C   UNL     1      44.858   3.614   8.675  0.00  0.00    +0.000 A 
ATOM     21  C   UNL     1      45.723   3.684   7.573  0.00  0.00    +0.000 A 
ATOM     22  C   UNL     1      46.439   2.558   7.111  0.00  0.00    +0.000 A 
BRANCH  22  23
ATOM     23  C   UNL     1      47.398   2.748   5.955  0.00  0.00    +0.000 C 
BRANCH  23  24
ATOM     24  N   UNL     1      48.792   2.753   6.389  0.00  0.00    +0.000 NA
ATOM     25  H   UNL     1      49.049   3.704   6.650  0.00  0.00    +0.000 HD
ATOM     26  H   UNL     1      49.387   2.497   5.604  0.00  0.00    +0.000 HD
ENDBRANCH  23  24
ENDBRANCH  22  23
ENDBRANCH  15  20
ENDBRANCH   1  15
TORSDOF 6
ENDMDL
MODEL 5
REMARK VINA RESULT:    -6.423      3.971      6.366
REMARK INTER + INTRA:          -9.053
REMARK INTER:                  -8.715
REMARK INTRA:                  -0.338
REMARK UNBOUND:                -0.564
REMARK  Name = 
REMARK  7 active torsions:
REMARK  status: ('A' for Active; 'I' for Inactive)
REMARK    1  A    between atoms: C_1  and  C_2
REMARK    2  A    between atoms: C_5  and  C_6
REMARK    3  A    between atoms: C_6  and  C_7
REMARK    4  A    between atoms: C_7  and  N_8
REMARK    5  A    between atoms: C_12  and  C_13
REMARK    6  A    between atoms: C_19  and  C_20
REMARK    7  A    between atoms: C_20  and  N_21
REMARK                            x       y       z     vdW  Elec       q    Type
REMARK                         _______ _______ _______ _____ _____    ______ ____
ROOT
ATOM      1  C   UNL     1      47.105   4.231  15.736  0.00  0.00    +0.000 C 
ENDROOT
BRANCH   1   2
ATOM      2  N   UNL     1      46.990   5.317  14.747  0.00  0.00    +0.000 N 
ATOM      3  C   UNL     1      46.341   4.906  13.566  0.00  0.00    +0.000 A 
ATOM      4  C   UNL     1      46.166   5.823  12.532  0.00  0.00    +0.000 A 
ATOM      5  C   UNL     1      45.519   5.423  11.358  0.00  0.00    +0.000 A 
ATOM      6  C   UNL     1      45.058   4.112  11.235  0.00  0.00    +0.000 A 
ATOM      7  C   UNL     1      45.260   3.275  12.316  0.00  0.00    +0.000 A 
ATOM      8  N   UNL     1      45.879   3.646  13.462  0.00  0.00    +0.000 NA
ATOM      9  H   UNL     1      47.895   5.704  14.497  0.00  0.00    +0.000 HD
BRANCH   6  10
ATOM     10  C   UNL     1      44.387   3.678   9.986  0.00  0.00    +0.000 C 
ATOM     11  N   UNL     1      43.934   4.630   9.113  0.00  0.00    +0.000 N 
ATOM     12  O   UNL     1      44.228   2.490   9.733  0.00  0.00    +0.000 OA
ATOM     13  H   UNL     1      44.004   5.628   9.227  0.00  0.00    +0.000 HD
ATOM     14  H   UNL     1      43.476   4.287   8.273  0.00  0.00    +0.000 HD
ENDBRANCH   6  10
ENDBRANCH   1   2
BRANCH   1  15
ATOM     15  C   UNL     1      47.929   4.673  16.950  0.00  0.00    +0.000 C 
BRANCH  15  20
ATOM     16  C   UNL     1      52.595   1.241  17.773  0.00  0.00    +0.000 C 
ATOM     17  C   UNL     1      51.436   2.175  17.555  0.00  0.00    +0.000 A 
ATOM     18  C   UNL     1      50.279   1.668  16.936  0.00  0.00    +0.000 A 
ATOM     19  C   UNL     1      49.152   2.470  16.736  0.00  0.00    +0.000 A 
ATOM     20  C   UNL     1      49.149   3.801  17.155  0.00  0.00    +0.000 A 
ATOM     21  C   UNL     1      50.306   4.316  17.757  0.00  0.00    +0.000 A 
ATOM     22  C   UNL     1      51.455   3.523  17.971  0.00  0.00    +0.000 A 
BRANCH  22  23
ATOM     23  C   UNL     1      52.632   4.152  18.687  0.00  0.00    +0.000 C 
BRANCH  23  24
ATOM     24  N   UNL     1      52.536   4.006  20.138  0.00  0.00    +0.000 NA
ATOM     25  H   UNL     1      53.349   4.450  20.564  0.00  0.00    +0.000 HD
ATOM     26  H   UNL     1      52.586   3.018  20.377  0.00  0.00    +0.000 HD
ENDBRANCH  23  24
ENDBRANCH  22  23
ENDBRANCH  15  20
ENDBRANCH   1  15
TORSDOF 6
ENDMDL
MODEL 6
REMARK VINA RESULT:    -6.299      4.445      8.300
REMARK INTER + INTRA:          -8.888
REMARK INTER:                  -8.549
REMARK INTRA:                  -0.338
REMARK UNBOUND:                -0.564
REMARK  Name = 
REMARK  7 active torsions:
REMARK  status: ('A' for Active; 'I' for Inactive)
REMARK    1  A    between atoms: C_1  and  C_2
REMARK    2  A    between atoms: C_5  and  C_6
REMARK    3  A    between atoms: C_6  and  C_7
REMARK    4  A    between atoms: C_7  and  N_8
REMARK    5  A    between atoms: C_12  and  C_13
REMARK    6  A    between atoms: C_19  and  C_20
REMARK    7  A    between atoms: C_20  and  N_21
REMARK                            x       y       z     vdW  Elec       q    Type
REMARK                         _______ _______ _______ _____ _____    ______ ____
ROOT
ATOM      1  C   UNL     1      47.161   5.294  13.884  0.00  0.00    +0.000 C 
ENDROOT
BRANCH   1   2
ATOM      2  N   UNL     1      46.769   4.283  14.882  0.00  0.00    +0.000 N 
ATOM      3  C   UNL     1      47.541   4.356  16.058  0.00  0.00    +0.000 A 
ATOM      4  C   UNL     1      47.292   3.456  17.092  0.00  0.00    +0.000 A 
ATOM      5  C   UNL     1      48.052   3.526  18.265  0.00  0.00    +0.000 A 
ATOM      6  C   UNL     1      49.049   4.495  18.386  0.00  0.00    +0.000 A 
ATOM      7  C   UNL     1      49.215   5.356  17.318  0.00  0.00    +0.000 A 
ATOM      8  N   UNL     1      48.486   5.307  16.178  0.00  0.00    +0.000 NA
ATOM      9  H   UNL     1      46.835   3.338  14.515  0.00  0.00    +0.000 HD
BRANCH   6  10
ATOM     10  C   UNL     1      49.868   4.562  19.620  0.00  0.00    +0.000 C 
ATOM     11  N   UNL     1      51.191   4.217  19.555  0.00  0.00    +0.000 N 
ATOM     12  O   UNL     1      49.378   4.911  20.687  0.00  0.00    +0.000 OA
ATOM     13  H   UNL     1      51.690   3.909  18.736  0.00  0.00    +0.000 HD
ATOM     14  H   UNL     1      51.712   4.273  20.425  0.00  0.00    +0.000 HD
ENDBRANCH   6  10
ENDBRANCH   1   2
BRANCH   1  15
ATOM     15  C   UNL     1      45.931   5.928  13.226  0.00  0.00    +0.000 C 
BRANCH  15  20
ATOM     16  C   UNL     1      44.806   3.706   7.933  0.00  0.00    +0.000 C 
ATOM     17  C   UNL     1      45.101   4.217   9.317  0.00  0.00    +0.000 A 
ATOM     18  C   UNL     1      45.745   5.460   9.445  0.00  0.00    +0.000 A 
ATOM     19  C   UNL     1      46.017   6.010  10.701  0.00  0.00    +0.000 A 
ATOM     20  C   UNL     1      45.647   5.334  11.864  0.00  0.00    +0.000 A 
ATOM     21  C   UNL     1      45.021   4.085  11.741  0.00  0.00    +0.000 A 
ATOM     22  C   UNL     1      44.735   3.511  10.483  0.00  0.00    +0.000 A 
BRANCH  22  23
ATOM     23  C   UNL     1      43.998   2.189  10.453  0.00  0.00    +0.000 C 
BRANCH  23  24
ATOM     24  N   UNL     1      43.054   2.059  11.561  0.00  0.00    +0.000 NA
ATOM     25  H   UNL     1      43.575   2.074  12.436  0.00  0.00    +0.000 HD
ATOM     26  H   UNL     1      42.601   1.149  11.507  0.00  0.00    +0.000 HD
ENDBRANCH  23  24
ENDBRANCH  22  23
ENDBRANCH  15  20
ENDBRANCH   1  15
TORSDOF 6
ENDMDL
MODEL 7
REMARK VINA RESULT:    -6.160      3.472      7.575
REMARK INTER + INTRA:          -8.705
REMARK INTER:                  -8.520
REMARK INTRA:                  -0.185
REMARK UNBOUND:                -0.564
REMARK  Name = 
REMARK  7 active torsions:
REMARK  status: ('A' for Active; 'I' for Inactive)
REMARK    1  A    between atoms: C_1  and  C_2
REMARK    2  A    between atoms: C_5  and  C_6
REMARK    3  A    between atoms: C_6  and  C_7
REMARK    4  A    between atoms: C_7  and  N_8
REMARK    5  A    between atoms: C_12  and  C_13
REMARK    6  A    between atoms: C_19  and  C_20
REMARK    7  A    between atoms: C_20  and  N_21
REMARK                            x       y       z     vdW  Elec       q    Type
REMARK                         _______ _______ _______ _____ _____    ______ ____
ROOT
ATOM      1  C   UNL     1      48.442   7.033  12.455  0.00  0.00    +0.000 C 
ENDROOT
BRANCH   1   2
ATOM      2  N   UNL     1      48.835   7.450  13.813  0.00  0.00    +0.000 N 
ATOM      3  C   UNL     1      48.504   6.491  14.791  0.00  0.00    +0.000 A 
ATOM      4  C   UNL     1      48.805   6.748  16.126  0.00  0.00    +0.000 A 
ATOM      5  C   UNL     1      48.484   5.797  17.101  0.00  0.00    +0.000 A 
ATOM      6  C   UNL     1      47.864   4.605  16.726  0.00  0.00    +0.000 A 
ATOM      7  C   UNL     1      47.617   4.427  15.378  0.00  0.00    +0.000 A 
ATOM      8  N   UNL     1      47.927   5.332  14.420  0.00  0.00    +0.000 NA
ATOM      9  H   UNL     1      48.414   8.335  14.079  0.00  0.00    +0.000 HD
BRANCH   6  10
ATOM     10  C   UNL     1      47.504   3.602  17.757  0.00  0.00    +0.000 C 
ATOM     11  N   UNL     1      48.180   3.607  18.948  0.00  0.00    +0.000 N 
ATOM     12  O   UNL     1      46.625   2.773  17.555  0.00  0.00    +0.000 OA
ATOM     13  H   UNL     1      48.921   4.234  19.213  0.00  0.00    +0.000 HD
ATOM     14  H   UNL     1      47.903   2.899  19.623  0.00  0.00    +0.000 HD
ENDBRANCH   6  10
ENDBRANCH   1   2
BRANCH   1  15
ATOM     15  C   UNL     1      47.049   7.559  12.097  0.00  0.00    +0.000 C 
BRANCH  15  20
ATOM     16  C   UNL     1      43.211   3.190  11.455  0.00  0.00    +0.000 C 
ATOM     17  C   UNL     1      44.188   4.330  11.558  0.00  0.00    +0.000 A 
ATOM     18  C   UNL     1      44.339   4.968  12.802  0.00  0.00    +0.000 A 
ATOM     19  C   UNL     1      45.255   6.009  12.977  0.00  0.00    +0.000 A 
ATOM     20  C   UNL     1      46.049   6.438  11.913  0.00  0.00    +0.000 A 
ATOM     21  C   UNL     1      45.889   5.817  10.666  0.00  0.00    +0.000 A 
ATOM     22  C   UNL     1      44.971   4.762  10.467  0.00  0.00    +0.000 A 
BRANCH  22  23
ATOM     23  C   UNL     1      44.918   4.112   9.100  0.00  0.00    +0.000 C 
BRANCH  23  24
ATOM     24  N   UNL     1      45.773   4.793   8.132  0.00  0.00    +0.000 NA
ATOM     25  H   UNL     1      45.246   5.560   7.714  0.00  0.00    +0.000 HD
ATOM     26  H   UNL     1      45.998   4.150   7.375  0.00  0.00    +0.000 HD
ENDBRANCH  23  24
ENDBRANCH  22  23
ENDBRANCH  15  20
ENDBRANCH   1  15
TORSDOF 6
ENDMDL
MODEL 8
REMARK VINA RESULT:    -5.922      1.754      2.279
REMARK INTER + INTRA:          -8.390
REMARK INTER:                  -7.928
REMARK INTRA:                  -0.462
REMARK UNBOUND:                -0.564
REMARK  Name = 
REMARK  7 active torsions:
REMARK  status: ('A' for Active; 'I' for Inactive)
REMARK    1  A    between atoms: C_1  and  C_2
REMARK    2  A    between atoms: C_5  and  C_6
REMARK    3  A    between atoms: C_6  and  C_7
REMARK    4  A    between atoms: C_7  and  N_8
REMARK    5  A    between atoms: C_12  and  C_13
REMARK    6  A    between atoms: C_19  and  C_20
REMARK    7  A    between atoms: C_20  and  N_21
REMARK                            x       y       z     vdW  Elec       q    Type
REMARK                         _______ _______ _______ _____ _____    ______ ____
ROOT
ATOM      1  C   UNL     1      43.730   5.221  11.936  0.00  0.00    +0.000 C 
ENDROOT
BRANCH   1   2
ATOM      2  N   UNL     1      43.694   3.823  11.473  0.00  0.00    +0.000 N 
ATOM      3  C   UNL     1      44.455   3.620  10.305  0.00  0.00    +0.000 A 
ATOM      4  C   UNL     1      44.511   2.347   9.741  0.00  0.00    +0.000 A 
ATOM      5  C   UNL     1      45.269   2.137   8.584  0.00  0.00    +0.000 A 
ATOM      6  C   UNL     1      45.958   3.205   8.007  0.00  0.00    +0.000 A 
ATOM      7  C   UNL     1      45.860   4.428   8.642  0.00  0.00    +0.000 A 
ATOM      8  N   UNL     1      45.137   4.648   9.766  0.00  0.00    +0.000 NA
ATOM      9  H   UNL     1      42.747   3.501  11.297  0.00  0.00    +0.000 HD
BRANCH   6  10
ATOM     10  C   UNL     1      46.748   2.992   6.770  0.00  0.00    +0.000 C 
ATOM     11  N   UNL     1      48.108   2.865   6.867  0.00  0.00    +0.000 N 
ATOM     12  O   UNL     1      46.204   2.938   5.674  0.00  0.00    +0.000 OA
ATOM     13  H   UNL     1      48.653   2.903   7.713  0.00  0.00    +0.000 HD
ATOM     14  H   UNL     1      48.608   2.726   5.994  0.00  0.00    +0.000 HD
ENDBRANCH   6  10
ENDBRANCH   1   2
BRANCH   1  15
ATOM     15  C   UNL     1      44.820   5.427  12.992  0.00  0.00    +0.000 C 
BRANCH  15  20
ATOM     16  C   UNL     1      47.868  10.315  11.968  0.00  0.00    +0.000 C 
ATOM     17  C   UNL     1      47.121   9.048  12.284  0.00  0.00    +0.000 A 
ATOM     18  C   UNL     1      45.771   8.956  11.899  0.00  0.00    +0.000 A 
ATOM     19  C   UNL     1      45.028   7.795  12.129  0.00  0.00    +0.000 A 
ATOM     20  C   UNL     1      45.616   6.690  12.747  0.00  0.00    +0.000 A 
ATOM     21  C   UNL     1      46.956   6.783  13.149  0.00  0.00    +0.000 A 
ATOM     22  C   UNL     1      47.727   7.946  12.925  0.00  0.00    +0.000 A 
BRANCH  22  23
ATOM     23  C   UNL     1      49.183   7.926  13.336  0.00  0.00    +0.000 C 
BRANCH  23  24
ATOM     24  N   UNL     1      50.009   7.158  12.407  0.00  0.00    +0.000 NA
ATOM     25  H   UNL     1      50.495   6.430  12.929  0.00  0.00    +0.000 HD
ATOM     26  H   UNL     1      50.728   7.766  12.020  0.00  0.00    +0.000 HD
ENDBRANCH  23  24
ENDBRANCH  22  23
ENDBRANCH  15  20
ENDBRANCH   1  15
TORSDOF 6
ENDMDL
MODEL 9
REMARK VINA RESULT:    -5.880      3.956      6.134
REMARK INTER + INTRA:          -8.335
REMARK INTER:                  -7.765
REMARK INTRA:                  -0.570
REMARK UNBOUND:                -0.564
REMARK  Name = 
REMARK  7 active torsions:
REMARK  status: ('A' for Active; 'I' for Inactive)
REMARK    1  A    between atoms: C_1  and  C_2
REMARK    2  A    between atoms: C_5  and  C_6
REMARK    3  A    between atoms: C_6  and  C_7
REMARK    4  A    between atoms: C_7  and  N_8
REMARK    5  A    between atoms: C_12  and  C_13
REMARK    6  A    between atoms: C_19  and  C_20
REMARK    7  A    between atoms: C_20  and  N_21
REMARK                            x       y       z     vdW  Elec       q    Type
REMARK                         _______ _______ _______ _____ _____    ______ ____
ROOT
ATOM      1  C   UNL     1      48.759   6.884  14.146  0.00  0.00    +0.000 C 
ENDROOT
BRANCH   1   2
ATOM      2  N   UNL     1      47.685   7.439  13.304  0.00  0.00    +0.000 N 
ATOM      3  C   UNL     1      46.712   6.478  12.963  0.00  0.00    +0.000 A 
ATOM      4  C   UNL     1      45.637   6.853  12.161  0.00  0.00    +0.000 A 
ATOM      5  C   UNL     1      44.665   5.904  11.823  0.00  0.00    +0.000 A 
ATOM      6  C   UNL     1      44.785   4.595  12.291  0.00  0.00    +0.000 A 
ATOM      7  C   UNL     1      45.874   4.316  13.094  0.00  0.00    +0.000 A 
ATOM      8  N   UNL     1      46.821   5.222  13.437  0.00  0.00    +0.000 NA
ATOM      9  H   UNL     1      48.044   7.848  12.446  0.00  0.00    +0.000 HD
BRANCH   6  10
ATOM     10  C   UNL     1      43.768   3.582  11.921  0.00  0.00    +0.000 C 
ATOM     11  N   UNL     1      43.841   2.335  12.482  0.00  0.00    +0.000 N 
ATOM     12  O   UNL     1      42.877   3.843  11.122  0.00  0.00    +0.000 OA
ATOM     13  H   UNL     1      44.533   2.015  13.140  0.00  0.00    +0.000 HD
ATOM     14  H   UNL     1      43.126   1.672  12.196  0.00  0.00    +0.000 HD
ENDBRANCH   6  10
ENDBRANCH   1   2
BRANCH   1  15
ATOM     15  C   UNL     1      48.974   7.735  15.401  0.00  0.00    +0.000 C 
BRANCH  15  20
ATOM     16  C   UNL     1      48.805   4.567  20.316  0.00  0.00    +0.000 C 
ATOM     17  C   UNL     1      48.800   5.345  19.028  0.00  0.00    +0.000 A 
ATOM     18  C   UNL     1      49.181   6.698  19.066  0.00  0.00    +0.000 A 
ATOM     19  C   UNL     1      49.233   7.470  17.902  0.00  0.00    +0.000 A 
ATOM     20  C   UNL     1      48.911   6.908  16.666  0.00  0.00    +0.000 A 
ATOM     21  C   UNL     1      48.514   5.564  16.626  0.00  0.00    +0.000 A 
ATOM     22  C   UNL     1      48.455   4.765  17.789  0.00  0.00    +0.000 A 
BRANCH  22  23
ATOM     23  C   UNL     1      48.077   3.307  17.634  0.00  0.00    +0.000 C 
BRANCH  23  24
ATOM     24  N   UNL     1      46.633   3.122  17.509  0.00  0.00    +0.000 NA
ATOM     25  H   UNL     1      46.436   2.705  16.600  0.00  0.00    +0.000 HD
ATOM     26  H   UNL     1      46.179   4.033  17.515  0.00  0.00    +0.000 HD
ENDBRANCH  23  24
ENDBRANCH  22  23
ENDBRANCH  15  20
ENDBRANCH   1  15
TORSDOF 6
ENDMDL
