MODEL 1
REMARK VINA RESULT:    -8.358      0.000      0.000
REMARK INTER + INTRA:         -12.757
REMARK INTER:                 -11.778
REMARK INTRA:                  -0.979
REMARK UNBOUND:                -0.979
REMARK  Name = 
REMARK  9 active torsions:
REMARK  status: ('A' for Active; 'I' for Inactive)
REMARK    1  A    between atoms: C_1  and  C_2
REMARK    2  A    between atoms: C_2  and  C_3
REMARK    3  A    between atoms: C_2  and  C_4
REMARK    4  A    between atoms: C_2  and  C_15
REMARK    5  A    between atoms: C_4  and  O_5
REMARK    6  A    between atoms: O_5  and  C_6
REMARK    7  A    between atoms: C_9  and  C_10
REMARK    8  A    between atoms: C_19  and  O_20
REMARK    9  A    between atoms: O_20  and  C_21
REMARK                            x       y       z     vdW  Elec       q    Type
REMARK                         _______ _______ _______ _____ _____    ______ ____
ROOT
ATOM      1  C   UNL     1      42.863   5.210  12.791  0.00  0.00    +0.000 C 
ATOM      2  C   UNL     1      44.025   4.503  12.052  0.00  0.00    +0.000 C 
ATOM      3  C   UNL     1      43.978   3.022  12.500  0.00  0.00    +0.000 C 
ENDROOT
BRANCH   2   4
ATOM      4  C   UNL     1      45.392   5.165  12.334  0.00  0.00    +0.000 A 
ATOM      5  C   UNL     1      45.866   6.239  11.559  0.00  0.00    +0.000 A 
ATOM      6  C   UNL     1      47.057   6.901  11.882  0.00  0.00    +0.000 A 
ATOM      7  C   UNL     1      47.808   6.511  12.992  0.00  0.00    +0.000 A 
ATOM      8  C   UNL     1      47.367   5.450  13.772  0.00  0.00    +0.000 A 
ATOM      9  C   UNL     1      46.170   4.795  13.449  0.00  0.00    +0.000 A 
BRANCH   8  10
ATOM     10  O   UNL     1      47.988   4.995  14.909  0.00  0.00    +0.000 OA
BRANCH  10  11
ATOM     11  C   UNL     1      47.261   4.159  15.835  0.00  0.00    +0.000 C 
ATOM     12  C   UNL     1      47.271   4.580  17.326  0.00  0.00    +0.000 C 
ATOM     13  C   UNL     1      47.542   3.116  17.703  0.00  0.00    +0.000 C 
ATOM     14  C   UNL     1      48.034   2.884  16.268  0.00  0.00    +0.000 C 
ENDBRANCH  10  11
ENDBRANCH   8  10
ENDBRANCH   2   4
BRANCH   2  15
ATOM     15  C   UNL     1      43.789   4.590  10.519  0.00  0.00    +0.000 C 
BRANCH  15  16
ATOM     16  O   UNL     1      43.643   3.287   9.927  0.00  0.00    +0.000 OA
BRANCH  16  17
ATOM     17  C   UNL     1      44.686   2.987   9.074  0.00  0.00    +0.000 A 
ATOM     18  C   UNL     1      45.180   1.686   9.056  0.00  0.00    +0.000 A 
ATOM     19  N   UNL     1      46.193   1.286   8.235  0.00  0.00    +0.000 NA
ATOM     20  C   UNL     1      46.683   2.272   7.427  0.00  0.00    +0.000 A 
ATOM     21  C   UNL     1      46.194   3.569   7.448  0.00  0.00    +0.000 A 
ATOM     22  N   UNL     1      45.188   3.953   8.272  0.00  0.00    +0.000 NA
BRANCH  20  23
ATOM     23  C   UNL     1      47.781   1.933   6.482  0.00  0.00    +0.000 C 
ATOM     24  N   UNL     1      48.825   2.811   6.426  0.00  0.00    +0.000 N 
ATOM     25  O   UNL     1      47.757   0.920   5.789  0.00  0.00    +0.000 OA
ATOM     26  H   UNL     1      48.833   3.640   7.009  0.00  0.00    +0.000 HD
ATOM     27  H   UNL     1      49.598   2.617   5.805  0.00  0.00    +0.000 HD
ENDBRANCH  20  23
ENDBRANCH  16  17
ENDBRANCH  15  16
ENDBRANCH   2  15
TORSDOF 7
ENDMDL
MODEL 2
REMARK VINA RESULT:    -7.430      1.688      3.466
REMARK INTER + INTRA:         -11.450
REMARK INTER:                 -10.592
REMARK INTRA:                  -0.858
REMARK UNBOUND:                -0.979
REMARK  Name = 
REMARK  9 active torsions:
REMARK  status: ('A' for Active; 'I' for Inactive)
REMARK    1  A    between atoms: C_1  and  C_2
REMARK    2  A    between atoms: C_2  and  C_3
REMARK    3  A    between atoms: C_2  and  C_4
REMARK    4  A    between atoms: C_2  and  C_15
REMARK    5  A    between atoms: C_4  and  O_5
REMARK    6  A    between atoms: O_5  and  C_6
REMARK    7  A    between atoms: C_9  and  C_10
REMARK    8  A    between atoms: C_19  and  O_20
REMARK    9  A    between atoms: O_20  and  C_21
REMARK                            x       y       z     vdW  Elec       q    Type
REMARK                         _______ _______ _______ _____ _____    ______ ____
ROOT
ATOM      1  C   UNL     1      42.639   5.389  12.473  0.00  0.00    +0.000 C 
ATOM      2  C   UNL     1      43.900   4.593  12.059  0.00  0.00    +0.000 C 
ATOM      3  C   UNL     1      43.648   3.132  12.505  0.00  0.00    +0.000 C 
ENDROOT
BRANCH   2   4
ATOM      4  C   UNL     1      45.194   5.183  12.663  0.00  0.00    +0.000 A 
ATOM      5  C   UNL     1      45.909   4.516  13.673  0.00  0.00    +0.000 A 
ATOM      6  C   UNL     1      47.134   5.004  14.144  0.00  0.00    +0.000 A 
ATOM      7  C   UNL     1      47.683   6.174  13.616  0.00  0.00    +0.000 A 
ATOM      8  C   UNL     1      46.995   6.858  12.622  0.00  0.00    +0.000 A 
ATOM      9  C   UNL     1      45.773   6.360  12.148  0.00  0.00    +0.000 A 
BRANCH   8  10
ATOM     10  O   UNL     1      47.442   7.994  11.992  0.00  0.00    +0.000 OA
BRANCH  10  11
ATOM     11  C   UNL     1      48.763   8.499  12.284  0.00  0.00    +0.000 C 
ATOM     12  C   UNL     1      49.213   9.775  11.529  0.00  0.00    +0.000 C 
ATOM     13  C   UNL     1      50.570   9.103  11.271  0.00  0.00    +0.000 C 
ATOM     14  C   UNL     1      49.899   7.749  11.539  0.00  0.00    +0.000 C 
ENDBRANCH  10  11
ENDBRANCH   8  10
ENDBRANCH   2   4
BRANCH   2  15
ATOM     15  C   UNL     1      44.058   4.645  10.515  0.00  0.00    +0.000 C 
BRANCH  15  16
ATOM     16  O   UNL     1      43.778   3.372   9.907  0.00  0.00    +0.000 OA
BRANCH  16  17
ATOM     17  C   UNL     1      44.759   3.001   9.010  0.00  0.00    +0.000 A 
ATOM     18  C   UNL     1      45.287   3.969   8.160  0.00  0.00    +0.000 A 
ATOM     19  N   UNL     1      46.272   3.707   7.255  0.00  0.00    +0.000 NA
ATOM     20  C   UNL     1      46.702   2.411   7.253  0.00  0.00    +0.000 A 
ATOM     21  C   UNL     1      46.175   1.447   8.097  0.00  0.00    +0.000 A 
ATOM     22  N   UNL     1      45.193   1.720   8.990  0.00  0.00    +0.000 NA
BRANCH  20  23
ATOM     23  C   UNL     1      47.789   2.027   6.311  0.00  0.00    +0.000 C 
ATOM     24  N   UNL     1      48.932   2.769   6.370  0.00  0.00    +0.000 N 
ATOM     25  O   UNL     1      47.670   1.093   5.523  0.00  0.00    +0.000 OA
ATOM     26  H   UNL     1      49.017   3.534   7.031  0.00  0.00    +0.000 HD
ATOM     27  H   UNL     1      49.701   2.539   5.756  0.00  0.00    +0.000 HD
ENDBRANCH  20  23
ENDBRANCH  16  17
ENDBRANCH  15  16
ENDBRANCH   2  15
TORSDOF 7
ENDMDL
MODEL 3
REMARK VINA RESULT:    -7.211      3.668      8.177
REMARK INTER + INTRA:         -11.141
REMARK INTER:                 -10.556
REMARK INTRA:                  -0.585
REMARK UNBOUND:                -0.979
REMARK  Name = 
REMARK  9 active torsions:
REMARK  status: ('A' for Active; 'I' for Inactive)
REMARK    1  A    between atoms: C_1  and  C_2
REMARK    2  A    between atoms: C_2  and  C_3
REMARK    3  A    between atoms: C_2  and  C_4
REMARK    4  A    between atoms: C_2  and  C_15
REMARK    5  A    between atoms: C_4  and  O_5
REMARK    6  A    between atoms: O_5  and  C_6
REMARK    7  A    between atoms: C_9  and  C_10
REMARK    8  A    between atoms: C_19  and  O_20
REMARK    9  A    between atoms: O_20  and  C_21
REMARK                            x       y       z     vdW  Elec       q    Type
REMARK                         _______ _______ _______ _____ _____    ______ ____
ROOT
ATOM      1  C   UNL     1      44.926   7.639  11.803  0.00  0.00    +0.000 C 
ATOM      2  C   UNL     1      45.869   6.413  11.857  0.00  0.00    +0.000 C 
ATOM      3  C   UNL     1      47.274   6.939  11.475  0.00  0.00    +0.000 C 
ENDROOT
BRANCH   2   4
ATOM      4  C   UNL     1      45.395   5.264  10.939  0.00  0.00    +0.000 A 
ATOM      5  C   UNL     1      44.434   4.329  11.363  0.00  0.00    +0.000 A 
ATOM      6  C   UNL     1      43.934   3.353  10.493  0.00  0.00    +0.000 A 
ATOM      7  C   UNL     1      44.377   3.285   9.171  0.00  0.00    +0.000 A 
ATOM      8  C   UNL     1      45.331   4.191   8.727  0.00  0.00    +0.000 A 
ATOM      9  C   UNL     1      45.823   5.172   9.600  0.00  0.00    +0.000 A 
BRANCH   8  10
ATOM     10  O   UNL     1      45.819   4.258   7.445  0.00  0.00    +0.000 OA
BRANCH  10  11
ATOM     11  C   UNL     1      46.949   3.443   7.068  0.00  0.00    +0.000 C 
ATOM     12  C   UNL     1      46.970   2.889   5.621  0.00  0.00    +0.000 C 
ATOM     13  C   UNL     1      47.392   1.524   6.186  0.00  0.00    +0.000 C 
ATOM     14  C   UNL     1      46.849   1.971   7.549  0.00  0.00    +0.000 C 
ENDBRANCH  10  11
ENDBRANCH   8  10
ENDBRANCH   2   4
BRANCH   2  15
ATOM     15  C   UNL     1      45.901   5.851  13.305  0.00  0.00    +0.000 C 
BRANCH  15  16
ATOM     16  O   UNL     1      46.894   4.821  13.455  0.00  0.00    +0.000 OA
BRANCH  16  17
ATOM     17  C   UNL     1      47.324   4.704  14.761  0.00  0.00    +0.000 A 
ATOM     18  C   UNL     1      48.031   5.762  15.327  0.00  0.00    +0.000 A 
ATOM     19  N   UNL     1      48.480   5.751  16.614  0.00  0.00    +0.000 NA
ATOM     20  C   UNL     1      48.174   4.614  17.307  0.00  0.00    +0.000 A 
ATOM     21  C   UNL     1      47.472   3.561  16.742  0.00  0.00    +0.000 A 
ATOM     22  N   UNL     1      47.035   3.582  15.460  0.00  0.00    +0.000 NA
BRANCH  20  23
ATOM     23  C   UNL     1      48.606   4.512  18.727  0.00  0.00    +0.000 C 
ATOM     24  N   UNL     1      48.369   3.319  19.348  0.00  0.00    +0.000 N 
ATOM     25  O   UNL     1      49.148   5.444  19.314  0.00  0.00    +0.000 OA
ATOM     26  H   UNL     1      47.926   2.557  18.847  0.00  0.00    +0.000 HD
ATOM     27  H   UNL     1      48.654   3.200  20.310  0.00  0.00    +0.000 HD
ENDBRANCH  20  23
ENDBRANCH  16  17
ENDBRANCH  15  16
ENDBRANCH   2  15
TORSDOF 7
ENDMDL
MODEL 4
REMARK VINA RESULT:    -7.018      3.284      7.518
REMARK INTER + INTRA:         -10.870
REMARK INTER:                 -10.639
REMARK INTRA:                  -0.231
REMARK UNBOUND:                -0.979
REMARK  Name = 
REMARK  9 active torsions:
REMARK  status: ('A' for Active; 'I' for Inactive)
REMARK    1  A    between atoms: C_1  and  C_2
REMARK    2  A    between atoms: C_2  and  C_3
REMARK    3  A    between atoms: C_2  and  C_4
REMARK    4  A    between atoms: C_2  and  C_15
REMARK    5  A    between atoms: C_4  and  O_5
REMARK    6  A    between atoms: O_5  and  C_6
REMARK    7  A    between atoms: C_9  and  C_10
REMARK    8  A    between atoms: C_19  and  O_20
REMARK    9  A    between atoms: O_20  and  C_21
REMARK                            x       y       z     vdW  Elec       q    Type
REMARK                         _______ _______ _______ _____ _____    ______ ____
ROOT
ATOM      1  C   UNL     1      43.001   6.251  11.394  0.00  0.00    +0.000 C 
ATOM      2  C   UNL     1      44.466   5.750  11.394  0.00  0.00    +0.000 C 
ATOM      3  C   UNL     1      45.334   6.967  10.990  0.00  0.00    +0.000 C 
ENDROOT
BRANCH   2   4
ATOM      4  C   UNL     1      44.674   4.537  10.460  0.00  0.00    +0.000 A 
ATOM      5  C   UNL     1      44.190   3.259  10.791  0.00  0.00    +0.000 A 
ATOM      6  C   UNL     1      44.291   2.187   9.896  0.00  0.00    +0.000 A 
ATOM      7  C   UNL     1      44.876   2.361   8.642  0.00  0.00    +0.000 A 
ATOM      8  C   UNL     1      45.369   3.611   8.290  0.00  0.00    +0.000 A 
ATOM      9  C   UNL     1      45.258   4.684   9.187  0.00  0.00    +0.000 A 
BRANCH   8  10
ATOM     10  O   UNL     1      45.929   3.926   7.076  0.00  0.00    +0.000 OA
BRANCH  10  11
ATOM     11  C   UNL     1      47.084   3.196   6.612  0.00  0.00    +0.000 C 
ATOM     12  C   UNL     1      46.980   2.517   5.223  0.00  0.00    +0.000 C 
ATOM     13  C   UNL     1      47.619   1.258   5.828  0.00  0.00    +0.000 C 
ATOM     14  C   UNL     1      47.209   1.771   7.214  0.00  0.00    +0.000 C 
ENDBRANCH  10  11
ENDBRANCH   8  10
ENDBRANCH   2   4
BRANCH   2  15
ATOM     15  C   UNL     1      44.853   5.289  12.826  0.00  0.00    +0.000 C 
BRANCH  15  16
ATOM     16  O   UNL     1      46.087   5.884  13.263  0.00  0.00    +0.000 OA
BRANCH  16  17
ATOM     17  C   UNL     1      46.767   5.073  14.149  0.00  0.00    +0.000 A 
ATOM     18  C   UNL     1      46.940   3.730  13.826  0.00  0.00    +0.000 A 
ATOM     19  N   UNL     1      47.613   2.854  14.625  0.00  0.00    +0.000 NA
ATOM     20  C   UNL     1      48.109   3.406  15.771  0.00  0.00    +0.000 A 
ATOM     21  C   UNL     1      47.934   4.743  16.094  0.00  0.00    +0.000 A 
ATOM     22  N   UNL     1      47.259   5.603  15.293  0.00  0.00    +0.000 NA
BRANCH  20  23
ATOM     23  C   UNL     1      48.876   2.536  16.703  0.00  0.00    +0.000 C 
ATOM     24  N   UNL     1      48.690   2.764  18.036  0.00  0.00    +0.000 N 
ATOM     25  O   UNL     1      49.633   1.656  16.302  0.00  0.00    +0.000 OA
ATOM     26  H   UNL     1      48.056   3.490  18.351  0.00  0.00    +0.000 HD
ATOM     27  H   UNL     1      49.183   2.191  18.707  0.00  0.00    +0.000 HD
ENDBRANCH  20  23
ENDBRANCH  16  17
ENDBRANCH  15  16
ENDBRANCH   2  15
TORSDOF 7
ENDMDL
MODEL 5
REMARK VINA RESULT:    -6.557      1.846      2.343
REMARK INTER + INTRA:         -10.220
REMARK INTER:                  -9.277
REMARK INTRA:                  -0.943
REMARK UNBOUND:                -0.979
REMARK  Name = 
REMARK  9 active torsions:
REMARK  status: ('A' for Active; 'I' for Inactive)
REMARK    1  A    between atoms: C_1  and  C_2
REMARK    2  A    between atoms: C_2  and  C_3
REMARK    3  A    between atoms: C_2  and  C_4
REMARK    4  A    between atoms: C_2  and  C_15
REMARK    5  A    between atoms: C_4  and  O_5
REMARK    6  A    between atoms: O_5  and  C_6
REMARK    7  A    between atoms: C_9  and  C_10
REMARK    8  A    between atoms: C_19  and  O_20
REMARK    9  A    between atoms: O_20  and  C_21
REMARK                            x       y       z     vdW  Elec       q    Type
REMARK                         _______ _______ _______ _____ _____    ______ ____
ROOT
ATOM      1  C   UNL     1      44.253   6.151  13.028  0.00  0.00    +0.000 C 
ATOM      2  C   UNL     1      45.345   5.421  12.208  0.00  0.00    +0.000 C 
ATOM      3  C   UNL     1      45.339   3.954  12.701  0.00  0.00    +0.000 C 
ENDROOT
BRANCH   2   4
ATOM      4  C   UNL     1      46.731   6.089  12.347  0.00  0.00    +0.000 A 
ATOM      5  C   UNL     1      47.220   6.985  11.379  0.00  0.00    +0.000 A 
ATOM      6  C   UNL     1      48.430   7.665  11.561  0.00  0.00    +0.000 A 
ATOM      7  C   UNL     1      49.187   7.472  12.717  0.00  0.00    +0.000 A 
ATOM      8  C   UNL     1      48.732   6.589  13.688  0.00  0.00    +0.000 A 
ATOM      9  C   UNL     1      47.515   5.916  13.505  0.00  0.00    +0.000 A 
BRANCH   8  10
ATOM     10  O   UNL     1      49.358   6.341  14.884  0.00  0.00    +0.000 OA
BRANCH  10  11
ATOM     11  C   UNL     1      48.772   6.828  16.111  0.00  0.00    +0.000 C 
ATOM     12  C   UNL     1      48.559   8.358  16.234  0.00  0.00    +0.000 C 
ATOM     13  C   UNL     1      49.133   8.289  17.657  0.00  0.00    +0.000 C 
ATOM     14  C   UNL     1      49.784   6.951  17.282  0.00  0.00    +0.000 C 
ENDBRANCH  10  11
ENDBRANCH   8  10
ENDBRANCH   2   4
BRANCH   2  15
ATOM     15  C   UNL     1      44.972   5.464  10.701  0.00  0.00    +0.000 C 
BRANCH  15  16
ATOM     16  O   UNL     1      44.446   4.205  10.245  0.00  0.00    +0.000 OA
BRANCH  16  17
ATOM     17  C   UNL     1      45.209   3.663   9.231  0.00  0.00    +0.000 A 
ATOM     18  C   UNL     1      45.915   4.524   8.395  0.00  0.00    +0.000 A 
ATOM     19  N   UNL     1      46.712   4.086   7.379  0.00  0.00    +0.000 NA
ATOM     20  C   UNL     1      46.762   2.728   7.250  0.00  0.00    +0.000 A 
ATOM     21  C   UNL     1      46.057   1.871   8.080  0.00  0.00    +0.000 A 
ATOM     22  N   UNL     1      45.266   2.320   9.085  0.00  0.00    +0.000 NA
BRANCH  20  23
ATOM     23  C   UNL     1      47.618   2.149   6.179  0.00  0.00    +0.000 C 
ATOM     24  N   UNL     1      47.975   2.992   5.167  0.00  0.00    +0.000 N 
ATOM     25  O   UNL     1      47.989   0.979   6.200  0.00  0.00    +0.000 OA
ATOM     26  H   UNL     1      47.666   3.957   5.167  0.00  0.00    +0.000 HD
ATOM     27  H   UNL     1      48.563   2.645   4.422  0.00  0.00    +0.000 HD
ENDBRANCH  20  23
ENDBRANCH  16  17
ENDBRANCH  15  16
ENDBRANCH   2  15
TORSDOF 7
ENDMDL
MODEL 6
REMARK VINA RESULT:    -6.473      2.395      3.616
REMARK INTER + INTRA:         -10.101
REMARK INTER:                  -9.316
REMARK INTRA:                  -0.785
REMARK UNBOUND:                -0.979
REMARK  Name = 
REMARK  9 active torsions:
REMARK  status: ('A' for Active; 'I' for Inactive)
REMARK    1  A    between atoms: C_1  and  C_2
REMARK    2  A    between atoms: C_2  and  C_3
REMARK    3  A    between atoms: C_2  and  C_4
REMARK    4  A    between atoms: C_2  and  C_15
REMARK    5  A    between atoms: C_4  and  O_5
REMARK    6  A    between atoms: O_5  and  C_6
REMARK    7  A    between atoms: C_9  and  C_10
REMARK    8  A    between atoms: C_19  and  O_20
REMARK    9  A    between atoms: O_20  and  C_21
REMARK                            x       y       z     vdW  Elec       q    Type
REMARK                         _______ _______ _______ _____ _____    ______ ____
ROOT
ATOM      1  C   UNL     1      43.240   4.588  13.007  0.00  0.00    +0.000 C 
ATOM      2  C   UNL     1      44.433   4.651  12.023  0.00  0.00    +0.000 C 
ATOM      3  C   UNL     1      45.459   3.606  12.528  0.00  0.00    +0.000 C 
ENDROOT
BRANCH   2   4
ATOM      4  C   UNL     1      45.035   6.070  11.916  0.00  0.00    +0.000 A 
ATOM      5  C   UNL     1      44.225   7.202  11.714  0.00  0.00    +0.000 A 
ATOM      6  C   UNL     1      44.764   8.494  11.720  0.00  0.00    +0.000 A 
ATOM      7  C   UNL     1      46.129   8.693  11.933  0.00  0.00    +0.000 A 
ATOM      8  C   UNL     1      46.954   7.593  12.130  0.00  0.00    +0.000 A 
ATOM      9  C   UNL     1      46.408   6.302  12.130  0.00  0.00    +0.000 A 
BRANCH   8  10
ATOM     10  O   UNL     1      48.301   7.654  12.389  0.00  0.00    +0.000 OA
BRANCH  10  11
ATOM     11  C   UNL     1      49.198   8.179  11.387  0.00  0.00    +0.000 C 
ATOM     12  C   UNL     1      50.654   7.647  11.394  0.00  0.00    +0.000 C 
ATOM     13  C   UNL     1      51.147   9.091  11.218  0.00  0.00    +0.000 C 
ATOM     14  C   UNL     1      49.786   9.571  11.740  0.00  0.00    +0.000 C 
ENDBRANCH  10  11
ENDBRANCH   8  10
ENDBRANCH   2   4
BRANCH   2  15
ATOM     15  C   UNL     1      43.949   4.258  10.601  0.00  0.00    +0.000 C 
BRANCH  15  16
ATOM     16  O   UNL     1      44.735   4.890   9.576  0.00  0.00    +0.000 OA
BRANCH  16  17
ATOM     17  C   UNL     1      45.432   3.971   8.818  0.00  0.00    +0.000 A 
ATOM     18  C   UNL     1      45.283   2.617   9.108  0.00  0.00    +0.000 A 
ATOM     19  N   UNL     1      45.912   1.633   8.405  0.00  0.00    +0.000 NA
ATOM     20  C   UNL     1      46.700   2.086   7.386  0.00  0.00    +0.000 A 
ATOM     21  C   UNL     1      46.849   3.433   7.099  0.00  0.00    +0.000 A 
ATOM     22  N   UNL     1      46.221   4.402   7.808  0.00  0.00    +0.000 NA
BRANCH  20  23
ATOM     23  C   UNL     1      47.416   1.087   6.547  0.00  0.00    +0.000 C 
ATOM     24  N   UNL     1      47.071  -0.220   6.734  0.00  0.00    +0.000 N 
ATOM     25  O   UNL     1      48.270   1.414   5.728  0.00  0.00    +0.000 OA
ATOM     26  H   UNL     1      46.359  -0.474   7.409  0.00  0.00    +0.000 HD
ATOM     27  H   UNL     1      47.525  -0.933   6.179  0.00  0.00    +0.000 HD
ENDBRANCH  20  23
ENDBRANCH  16  17
ENDBRANCH  15  16
ENDBRANCH   2  15
TORSDOF 7
ENDMDL
MODEL 7
REMARK VINA RESULT:    -6.318      4.134      8.464
REMARK INTER + INTRA:          -9.882
REMARK INTER:                  -9.138
REMARK INTRA:                  -0.744
REMARK UNBOUND:                -0.979
REMARK  Name = 
REMARK  9 active torsions:
REMARK  status: ('A' for Active; 'I' for Inactive)
REMARK    1  A    between atoms: C_1  and  C_2
REMARK    2  A    between atoms: C_2  and  C_3
REMARK    3  A    between atoms: C_2  and  C_4
REMARK    4  A    between atoms: C_2  and  C_15
REMARK    5  A    between atoms: C_4  and  O_5
REMARK    6  A    between atoms: O_5  and  C_6
REMARK    7  A    between atoms: C_9  and  C_10
REMARK    8  A    between atoms: C_19  and  O_20
REMARK    9  A    between atoms: O_20  and  C_21
REMARK                            x       y       z     vdW  Elec       q    Type
REMARK                         _______ _______ _______ _____ _____    ______ ____
ROOT
ATOM      1  C   UNL     1      46.350   8.143  13.263  0.00  0.00    +0.000 C 
ATOM      2  C   UNL     1      46.771   6.767  12.693  0.00  0.00    +0.000 C 
ATOM      3  C   UNL     1      47.604   7.068  11.422  0.00  0.00    +0.000 C 
ENDROOT
BRANCH   2   4
ATOM      4  C   UNL     1      45.560   5.852  12.405  0.00  0.00    +0.000 A 
ATOM      5  C   UNL     1      44.252   6.225  12.762  0.00  0.00    +0.000 A 
ATOM      6  C   UNL     1      43.148   5.440  12.408  0.00  0.00    +0.000 A 
ATOM      7  C   UNL     1      43.318   4.260  11.684  0.00  0.00    +0.000 A 
ATOM      8  C   UNL     1      44.600   3.863  11.323  0.00  0.00    +0.000 A 
ATOM      9  C   UNL     1      45.702   4.657  11.674  0.00  0.00    +0.000 A 
BRANCH   8  10
ATOM     10  O   UNL     1      44.900   2.749  10.579  0.00  0.00    +0.000 OA
BRANCH  10  11
ATOM     11  C   UNL     1      44.728   2.780   9.146  0.00  0.00    +0.000 C 
ATOM     12  C   UNL     1      45.832   2.112   8.287  0.00  0.00    +0.000 C 
ATOM     13  C   UNL     1      45.799   3.334   7.356  0.00  0.00    +0.000 C 
ATOM     14  C   UNL     1      45.142   4.126   8.494  0.00  0.00    +0.000 C 
ENDBRANCH  10  11
ENDBRANCH   8  10
ENDBRANCH   2   4
BRANCH   2  15
ATOM     15  C   UNL     1      47.658   6.029  13.733  0.00  0.00    +0.000 C 
BRANCH  15  16
ATOM     16  O   UNL     1      48.241   6.941  14.680  0.00  0.00    +0.000 OA
BRANCH  16  17
ATOM     17  C   UNL     1      48.540   6.322  15.876  0.00  0.00    +0.000 A 
ATOM     18  C   UNL     1      48.874   7.115  16.972  0.00  0.00    +0.000 A 
ATOM     19  N   UNL     1      49.165   6.600  18.200  0.00  0.00    +0.000 NA
ATOM     20  C   UNL     1      49.099   5.237  18.268  0.00  0.00    +0.000 A 
ATOM     21  C   UNL     1      48.770   4.449  17.177  0.00  0.00    +0.000 A 
ATOM     22  N   UNL     1      48.486   4.973  15.960  0.00  0.00    +0.000 NA
BRANCH  20  23
ATOM     23  C   UNL     1      49.384   4.579  19.572  0.00  0.00    +0.000 C 
ATOM     24  N   UNL     1      48.505   3.612  19.967  0.00  0.00    +0.000 N 
ATOM     25  O   UNL     1      50.356   4.881  20.259  0.00  0.00    +0.000 OA
ATOM     26  H   UNL     1      47.711   3.368  19.385  0.00  0.00    +0.000 HD
ATOM     27  H   UNL     1      48.663   3.130  20.841  0.00  0.00    +0.000 HD
ENDBRANCH  20  23
ENDBRANCH  16  17
ENDBRANCH  15  16
ENDBRANCH   2  15
TORSDOF 7
ENDMDL
MODEL 8
REMARK VINA RESULT:    -6.285      3.993      7.748
REMARK INTER + INTRA:          -9.836
REMARK INTER:                  -8.712
REMARK INTRA:                  -1.124
REMARK UNBOUND:                -0.979
REMARK  Name = 
REMARK  9 active torsions:
REMARK  status: ('A' for Active; 'I' for Inactive)
REMARK    1  A    between atoms: C_1  and  C_2
REMARK    2  A    between atoms: C_2  and  C_3
REMARK    3  A    between atoms: C_2  and  C_4
REMARK    4  A    between atoms: C_2  and  C_15
REMARK    5  A    between atoms: C_4  and  O_5
REMARK    6  A    between atoms: O_5  and  C_6
REMARK    7  A    between atoms: C_9  and  C_10
REMARK    8  A    between atoms: C_19  and  O_20
REMARK    9  A    between atoms: O_20  and  C_21
REMARK                            x       y       z     vdW  Elec       q    Type
REMARK                         _______ _______ _______ _____ _____    ______ ____
ROOT
ATOM      1  C   UNL     1      48.727   9.968  13.801  0.00  0.00    +0.000 C 
ATOM      2  C   UNL     1      48.727   8.788  12.800  0.00  0.00    +0.000 C 
ATOM      3  C   UNL     1      49.575   9.253  11.591  0.00  0.00    +0.000 C 
ENDROOT
BRANCH   2   4
ATOM      4  C   UNL     1      47.299   8.360  12.393  0.00  0.00    +0.000 A 
ATOM      5  C   UNL     1      46.258   9.296  12.259  0.00  0.00    +0.000 A 
ATOM      6  C   UNL     1      44.994   8.917  11.792  0.00  0.00    +0.000 A 
ATOM      7  C   UNL     1      44.733   7.592  11.441  0.00  0.00    +0.000 A 
ATOM      8  C   UNL     1      45.741   6.644  11.569  0.00  0.00    +0.000 A 
ATOM      9  C   UNL     1      47.008   7.030  12.030  0.00  0.00    +0.000 A 
BRANCH   8  10
ATOM     10  O   UNL     1      45.628   5.321  11.222  0.00  0.00    +0.000 OA
BRANCH  10  11
ATOM     11  C   UNL     1      44.330   4.690  11.225  0.00  0.00    +0.000 C 
ATOM     12  C   UNL     1      43.862   4.042  12.552  0.00  0.00    +0.000 C 
ATOM     13  C   UNL     1      43.395   2.817  11.752  0.00  0.00    +0.000 C 
ATOM     14  C   UNL     1      44.326   3.262  10.616  0.00  0.00    +0.000 C 
ENDBRANCH  10  11
ENDBRANCH   8  10
ENDBRANCH   2   4
BRANCH   2  15
ATOM     15  C   UNL     1      49.397   7.552  13.460  0.00  0.00    +0.000 C 
BRANCH  15  16
ATOM     16  O   UNL     1      49.555   7.726  14.879  0.00  0.00    +0.000 OA
BRANCH  16  17
ATOM     17  C   UNL     1      49.075   6.644  15.589  0.00  0.00    +0.000 A 
ATOM     18  C   UNL     1      49.493   6.471  16.906  0.00  0.00    +0.000 A 
ATOM     19  N   UNL     1      49.061   5.447  17.695  0.00  0.00    +0.000 NA
ATOM     20  C   UNL     1      48.178   4.602  17.085  0.00  0.00    +0.000 A 
ATOM     21  C   UNL     1      47.765   4.772  15.773  0.00  0.00    +0.000 A 
ATOM     22  N   UNL     1      48.205   5.793  14.998  0.00  0.00    +0.000 NA
BRANCH  20  23
ATOM     23  C   UNL     1      47.633   3.460  17.868  0.00  0.00    +0.000 C 
ATOM     24  N   UNL     1      48.308   3.132  19.008  0.00  0.00    +0.000 N 
ATOM     25  O   UNL     1      46.632   2.844  17.515  0.00  0.00    +0.000 OA
ATOM     26  H   UNL     1      49.130   3.654  19.290  0.00  0.00    +0.000 HD
ATOM     27  H   UNL     1      47.970   2.369  19.578  0.00  0.00    +0.000 HD
ENDBRANCH  20  23
ENDBRANCH  16  17
ENDBRANCH  15  16
ENDBRANCH   2  15
TORSDOF 7
ENDMDL
MODEL 9
REMARK VINA RESULT:    -6.133      3.076      5.157
REMARK INTER + INTRA:          -9.622
REMARK INTER:                  -8.481
REMARK INTRA:                  -1.141
REMARK UNBOUND:                -0.979
REMARK  Name = 
REMARK  9 active torsions:
REMARK  status: ('A' for Active; 'I' for Inactive)
REMARK    1  A    between atoms: C_1  and  C_2
REMARK    2  A    between atoms: C_2  and  C_3
REMARK    3  A    between atoms: C_2  and  C_4
REMARK    4  A    between atoms: C_2  and  C_15
REMARK    5  A    between atoms: C_4  and  O_5
REMARK    6  A    between atoms: O_5  and  C_6
REMARK    7  A    between atoms: C_9  and  C_10
REMARK    8  A    between atoms: C_19  and  O_20
REMARK    9  A    between atoms: O_20  and  C_21
REMARK                            x       y       z     vdW  Elec       q    Type
REMARK                         _______ _______ _______ _____ _____    ______ ____
ROOT
ATOM      1  C   UNL     1      50.472   8.468  12.003  0.00  0.00    +0.000 C 
ATOM      2  C   UNL     1      49.035   8.566  12.573  0.00  0.00    +0.000 C 
ATOM      3  C   UNL     1      48.534   9.989  12.226  0.00  0.00    +0.000 C 
ENDROOT
BRANCH   2   4
ATOM      4  C   UNL     1      48.981   8.271  14.089  0.00  0.00    +0.000 A 
ATOM      5  C   UNL     1      48.523   9.228  15.012  0.00  0.00    +0.000 A 
ATOM      6  C   UNL     1      48.380   8.920  16.370  0.00  0.00    +0.000 A 
ATOM      7  C   UNL     1      48.688   7.645  16.846  0.00  0.00    +0.000 A 
ATOM      8  C   UNL     1      49.149   6.682  15.959  0.00  0.00    +0.000 A 
ATOM      9  C   UNL     1      49.284   6.992  14.598  0.00  0.00    +0.000 A 
BRANCH   8  10
ATOM     10  O   UNL     1      49.448   5.383  16.290  0.00  0.00    +0.000 OA
BRANCH  10  11
ATOM     11  C   UNL     1      48.623   4.681  17.244  0.00  0.00    +0.000 C 
ATOM     12  C   UNL     1      48.917   3.175  17.460  0.00  0.00    +0.000 C 
ATOM     13  C   UNL     1      47.406   2.905  17.398  0.00  0.00    +0.000 C 
ATOM     14  C   UNL     1      47.241   4.252  16.682  0.00  0.00    +0.000 C 
ENDBRANCH  10  11
ENDBRANCH   8  10
ENDBRANCH   2   4
BRANCH   2  15
ATOM     15  C   UNL     1      48.132   7.512  11.876  0.00  0.00    +0.000 C 
BRANCH  15  16
ATOM     16  O   UNL     1      46.759   7.628  12.291  0.00  0.00    +0.000 OA
BRANCH  16  17
ATOM     17  C   UNL     1      46.055   6.460  12.080  0.00  0.00    +0.000 A 
ATOM     18  C   UNL     1      45.848   6.034  10.770  0.00  0.00    +0.000 A 
ATOM     19  N   UNL     1      45.183   4.885  10.459  0.00  0.00    +0.000 NA
ATOM     20  C   UNL     1      44.739   4.182  11.542  0.00  0.00    +0.000 A 
ATOM     21  C   UNL     1      44.943   4.608  12.845  0.00  0.00    +0.000 A 
ATOM     22  N   UNL     1      45.602   5.754  13.141  0.00  0.00    +0.000 NA
BRANCH  20  23
ATOM     23  C   UNL     1      44.015   2.903  11.309  0.00  0.00    +0.000 C 
ATOM     24  N   UNL     1      44.295   2.253  10.141  0.00  0.00    +0.000 N 
ATOM     25  O   UNL     1      43.212   2.449  12.118  0.00  0.00    +0.000 OA
ATOM     26  H   UNL     1      44.966   2.638   9.486  0.00  0.00    +0.000 HD
ATOM     27  H   UNL     1      43.835   1.376   9.944  0.00  0.00    +0.000 HD
ENDBRANCH  20  23
ENDBRANCH  16  17
ENDBRANCH  15  16
ENDBRANCH   2  15
TORSDOF 7
ENDMDL
