MODEL 1
REMARK VINA RESULT:    -7.503      0.000      0.000
REMARK INTER + INTRA:          -8.817
REMARK INTER:                  -8.380
REMARK INTRA:                  -0.437
REMARK UNBOUND:                -0.437
REMARK  Name = 
REMARK  2 active torsions:
REMARK  status: ('A' for Active; 'I' for Inactive)
REMARK    1  A    between atoms: N_6  and  C_7
REMARK    2  A    between atoms: C_7  and  C_8
REMARK                            x       y       z     vdW  Elec       q    Type
REMARK                         _______ _______ _______ _____ _____    ______ ____
ROOT
ATOM      1  C   UNL     1      44.628   4.275  11.758  0.00  0.00    +0.000 A 
ATOM      2  C   UNL     1      45.388   3.740  12.796  0.00  0.00    +0.000 A 
ATOM      3  C   UNL     1      46.291   4.571  13.433  0.00  0.00    +0.000 A 
ATOM      4  N   UNL     1      46.481   5.866  13.105  0.00  0.00    +0.000 NA
ATOM      5  C   UNL     1      45.722   6.415  12.132  0.00  0.00    +0.000 A 
ATOM      6  N   UNL     1      45.945   7.729  11.793  0.00  0.00    +0.000 N 
ATOM      7  C   UNL     1      47.300   8.264  11.895  0.00  0.00    +0.000 C 
ATOM      8  C   UNL     1      47.303   9.515  12.765  0.00  0.00    +0.000 C 
ATOM      9  C   UNL     1      46.275  10.530  12.271  0.00  0.00    +0.000 C 
ATOM     10  C   UNL     1      44.888   9.897  12.169  0.00  0.00    +0.000 C 
ATOM     11  C   UNL     1      44.900   8.624  11.320  0.00  0.00    +0.000 C 
ATOM     12  C   UNL     1      44.774   5.639  11.465  0.00  0.00    +0.000 A 
ENDROOT
BRANCH   1  13
ATOM     13  C   UNL     1      43.732   3.407  10.915  0.00  0.00    +0.000 C 
BRANCH  13  19
ATOM     14 BR   UNL     1      47.681   2.293   5.261  0.00  0.00    +0.000 Br
ATOM     15  C   UNL     1      46.656   2.358   6.838  0.00  0.00    +0.000 A 
ATOM     16  C   UNL     1      46.010   3.526   7.218  0.00  0.00    +0.000 A 
ATOM     17  C   UNL     1      45.264   3.533   8.396  0.00  0.00    +0.000 A 
ATOM     18  C   UNL     1      45.164   2.376   9.169  0.00  0.00    +0.000 A 
ATOM     19  N   UNL     1      44.440   2.301  10.331  0.00  0.00    +0.000 N 
ATOM     20  N   UNL     1      45.789   1.241   8.800  0.00  0.00    +0.000 NA
ATOM     21  C   UNL     1      46.520   1.252   7.656  0.00  0.00    +0.000 A 
ATOM     22  H   UNL     1      44.439   1.392  10.775  0.00  0.00    +0.000 HD
ENDBRANCH  13  19
ENDBRANCH   1  13
TORSDOF 2
ENDMDL
MODEL 2
REMARK VINA RESULT:    -7.132      2.639      4.489
REMARK INTER + INTRA:          -8.403
REMARK INTER:                  -8.077
REMARK INTRA:                  -0.326
REMARK UNBOUND:                -0.437
REMARK  Name = 
REMARK  2 active torsions:
REMARK  status: ('A' for Active; 'I' for Inactive)
REMARK    1  A    between atoms: N_6  and  C_7
REMARK    2  A    between atoms: C_7  and  C_8
REMARK                            x       y       z     vdW  Elec       q    Type
REMARK                         _______ _______ _______ _____ _____    ______ ____
ROOT
ATOM      1  C   UNL     1      45.832   5.310  12.829  0.00  0.00    +0.000 A 
ATOM      2  C   UNL     1      46.623   6.345  12.336  0.00  0.00    +0.000 A 
ATOM      3  C   UNL     1      47.730   6.721  13.074  0.00  0.00    +0.000 A 
ATOM      4  N   UNL     1      48.085   6.149  14.242  0.00  0.00    +0.000 NA
ATOM      5  C   UNL     1      47.356   5.114  14.714  0.00  0.00    +0.000 A 
ATOM      6  N   UNL     1      47.716   4.558  15.920  0.00  0.00    +0.000 N 
ATOM      7  C   UNL     1      48.307   5.414  16.943  0.00  0.00    +0.000 C 
ATOM      8  C   UNL     1      49.643   4.837  17.399  0.00  0.00    +0.000 C 
ATOM      9  C   UNL     1      49.494   3.379  17.824  0.00  0.00    +0.000 C 
ATOM     10  C   UNL     1      48.852   2.548  16.715  0.00  0.00    +0.000 C 
ATOM     11  C   UNL     1      47.527   3.152  16.241  0.00  0.00    +0.000 C 
ATOM     12  C   UNL     1      46.239   4.667  14.007  0.00  0.00    +0.000 A 
ENDROOT
BRANCH   1  13
ATOM     13  C   UNL     1      44.530   4.937  12.170  0.00  0.00    +0.000 C 
BRANCH  13  19
ATOM     14 BR   UNL     1      46.678   2.843   5.861  0.00  0.00    +0.000 Br
ATOM     15  C   UNL     1      46.048   3.172   7.604  0.00  0.00    +0.000 A 
ATOM     16  C   UNL     1      46.004   4.463   8.111  0.00  0.00    +0.000 A 
ATOM     17  C   UNL     1      45.534   4.663   9.408  0.00  0.00    +0.000 A 
ATOM     18  C   UNL     1      45.106   3.578  10.174  0.00  0.00    +0.000 A 
ATOM     19  N   UNL     1      44.622   3.696  11.451  0.00  0.00    +0.000 N 
ATOM     20  N   UNL     1      45.148   2.324   9.682  0.00  0.00    +0.000 NA
ATOM     21  C   UNL     1      45.617   2.144   8.422  0.00  0.00    +0.000 A 
ATOM     22  H   UNL     1      44.328   2.827  11.878  0.00  0.00    +0.000 HD
ENDBRANCH  13  19
ENDBRANCH   1  13
TORSDOF 2
ENDMDL
MODEL 3
REMARK VINA RESULT:    -7.093      1.199      1.568
REMARK INTER + INTRA:          -8.359
REMARK INTER:                  -7.901
REMARK INTRA:                  -0.458
REMARK UNBOUND:                -0.437
REMARK  Name = 
REMARK  2 active torsions:
REMARK  status: ('A' for Active; 'I' for Inactive)
REMARK    1  A    between atoms: N_6  and  C_7
REMARK    2  A    between atoms: C_7  and  C_8
REMARK                            x       y       z     vdW  Elec       q    Type
REMARK                         _______ _______ _______ _____ _____    ______ ____
ROOT
ATOM      1  C   UNL     1      45.476   4.543  12.011  0.00  0.00    +0.000 A 
ATOM      2  C   UNL     1      45.859   3.740  13.082  0.00  0.00    +0.000 A 
ATOM      3  C   UNL     1      46.901   4.176  13.879  0.00  0.00    +0.000 A 
ATOM      4  N   UNL     1      47.570   5.330  13.677  0.00  0.00    +0.000 NA
ATOM      5  C   UNL     1      47.183   6.144  12.671  0.00  0.00    +0.000 A 
ATOM      6  N   UNL     1      47.891   7.306  12.463  0.00  0.00    +0.000 N 
ATOM      7  C   UNL     1      49.320   7.324  12.757  0.00  0.00    +0.000 C 
ATOM      8  C   UNL     1      49.642   8.463  13.717  0.00  0.00    +0.000 C 
ATOM      9  C   UNL     1      49.104   9.791  13.192  0.00  0.00    +0.000 C 
ATOM     10  C   UNL     1      47.610   9.694  12.887  0.00  0.00    +0.000 C 
ATOM     11  C   UNL     1      47.292   8.527  11.947  0.00  0.00    +0.000 C 
ATOM     12  C   UNL     1      46.122   5.777  11.843  0.00  0.00    +0.000 A 
ENDROOT
BRANCH   1  13
ATOM     13  C   UNL     1      44.454   4.077  11.008  0.00  0.00    +0.000 C 
BRANCH  13  19
ATOM     14 BR   UNL     1      47.596   2.084   5.096  0.00  0.00    +0.000 Br
ATOM     15  C   UNL     1      46.735   2.384   6.742  0.00  0.00    +0.000 A 
ATOM     16  C   UNL     1      46.419   3.669   7.155  0.00  0.00    +0.000 A 
ATOM     17  C   UNL     1      45.784   3.848   8.383  0.00  0.00    +0.000 A 
ATOM     18  C   UNL     1      45.464   2.743   9.174  0.00  0.00    +0.000 A 
ATOM     19  N   UNL     1      44.831   2.838  10.386  0.00  0.00    +0.000 N 
ATOM     20  N   UNL     1      45.769   1.494   8.773  0.00  0.00    +0.000 NA
ATOM     21  C   UNL     1      46.396   1.336   7.579  0.00  0.00    +0.000 A 
ATOM     22  H   UNL     1      44.643   1.953  10.838  0.00  0.00    +0.000 HD
ENDBRANCH  13  19
ENDBRANCH   1  13
TORSDOF 2
ENDMDL
MODEL 4
REMARK VINA RESULT:    -6.086      3.113      7.142
REMARK INTER + INTRA:          -7.234
REMARK INTER:                  -6.836
REMARK INTRA:                  -0.398
REMARK UNBOUND:                -0.437
REMARK  Name = 
REMARK  2 active torsions:
REMARK  status: ('A' for Active; 'I' for Inactive)
REMARK    1  A    between atoms: N_6  and  C_7
REMARK    2  A    between atoms: C_7  and  C_8
REMARK                            x       y       z     vdW  Elec       q    Type
REMARK                         _______ _______ _______ _____ _____    ______ ____
ROOT
ATOM      1  C   UNL     1      45.550   6.701  12.351  0.00  0.00    +0.000 A 
ATOM      2  C   UNL     1      45.659   5.833  13.435  0.00  0.00    +0.000 A 
ATOM      3  C   UNL     1      45.619   4.474  13.183  0.00  0.00    +0.000 A 
ATOM      4  N   UNL     1      45.477   3.942  11.951  0.00  0.00    +0.000 NA
ATOM      5  C   UNL     1      45.415   4.767  10.883  0.00  0.00    +0.000 A 
ATOM      6  N   UNL     1      45.245   4.210   9.637  0.00  0.00    +0.000 N 
ATOM      7  C   UNL     1      44.467   2.981   9.513  0.00  0.00    +0.000 C 
ATOM      8  C   UNL     1      45.286   1.915   8.795  0.00  0.00    +0.000 C 
ATOM      9  C   UNL     1      45.825   2.440   7.466  0.00  0.00    +0.000 C 
ATOM     10  C   UNL     1      46.609   3.735   7.669  0.00  0.00    +0.000 C 
ATOM     11  C   UNL     1      45.791   4.789   8.419  0.00  0.00    +0.000 C 
ATOM     12  C   UNL     1      45.474   6.149  11.064  0.00  0.00    +0.000 A 
ENDROOT
BRANCH   1  13
ATOM     13  C   UNL     1      45.435   8.190  12.549  0.00  0.00    +0.000 C 
BRANCH  13  19
ATOM     14 BR   UNL     1      52.123  10.206  12.641  0.00  0.00    +0.000 Br
ATOM     15  C   UNL     1      50.318   9.716  12.854  0.00  0.00    +0.000 A 
ATOM     16  C   UNL     1      49.587   9.220  11.786  0.00  0.00    +0.000 A 
ATOM     17  C   UNL     1      48.251   8.872  11.985  0.00  0.00    +0.000 A 
ATOM     18  C   UNL     1      47.671   9.013  13.246  0.00  0.00    +0.000 A 
ATOM     19  N   UNL     1      46.370   8.682  13.523  0.00  0.00    +0.000 N 
ATOM     20  N   UNL     1      48.382   9.493  14.285  0.00  0.00    +0.000 NA
ATOM     21  C   UNL     1      49.677   9.836  14.074  0.00  0.00    +0.000 A 
ATOM     22  H   UNL     1      46.091   8.816  14.486  0.00  0.00    +0.000 HD
ENDBRANCH  13  19
ENDBRANCH   1  13
TORSDOF 2
ENDMDL
MODEL 5
REMARK VINA RESULT:    -5.891      4.654      8.042
REMARK INTER + INTRA:          -7.017
REMARK INTER:                  -6.604
REMARK INTRA:                  -0.413
REMARK UNBOUND:                -0.437
REMARK  Name = 
REMARK  2 active torsions:
REMARK  status: ('A' for Active; 'I' for Inactive)
REMARK    1  A    between atoms: N_6  and  C_7
REMARK    2  A    between atoms: C_7  and  C_8
REMARK                            x       y       z     vdW  Elec       q    Type
REMARK                         _______ _______ _______ _____ _____    ______ ____
ROOT
ATOM      1  C   UNL     1      47.346   7.687  13.673  0.00  0.00    +0.000 A 
ATOM      2  C   UNL     1      46.668   8.817  13.222  0.00  0.00    +0.000 A 
ATOM      3  C   UNL     1      45.650   8.638  12.304  0.00  0.00    +0.000 A 
ATOM      4  N   UNL     1      45.279   7.435  11.818  0.00  0.00    +0.000 NA
ATOM      5  C   UNL     1      45.894   6.324  12.278  0.00  0.00    +0.000 A 
ATOM      6  N   UNL     1      45.521   5.107  11.755  0.00  0.00    +0.000 N 
ATOM      7  C   UNL     1      45.086   5.041  10.363  0.00  0.00    +0.000 C 
ATOM      8  C   UNL     1      43.711   4.390  10.275  0.00  0.00    +0.000 C 
ATOM      9  C   UNL     1      43.696   3.042  10.991  0.00  0.00    +0.000 C 
ATOM     10  C   UNL     1      44.181   3.182  12.433  0.00  0.00    +0.000 C 
ATOM     11  C   UNL     1      45.549   3.866  12.513  0.00  0.00    +0.000 C 
ATOM     12  C   UNL     1      46.914   6.431  13.224  0.00  0.00    +0.000 A 
ENDROOT
BRANCH   1  13
ATOM     13  C   UNL     1      48.561   7.803  14.556  0.00  0.00    +0.000 C 
BRANCH  13  19
ATOM     14 BR   UNL     1      48.815   4.660  20.789  0.00  0.00    +0.000 Br
ATOM     15  C   UNL     1      48.840   5.300  19.020  0.00  0.00    +0.000 A 
ATOM     16  C   UNL     1      48.424   6.589  18.726  0.00  0.00    +0.000 A 
ATOM     17  C   UNL     1      48.454   7.023  17.401  0.00  0.00    +0.000 A 
ATOM     18  C   UNL     1      48.909   6.171  16.394  0.00  0.00    +0.000 A 
ATOM     19  N   UNL     1      48.980   6.529  15.073  0.00  0.00    +0.000 N 
ATOM     20  N   UNL     1      49.315   4.918  16.680  0.00  0.00    +0.000 NA
ATOM     21  C   UNL     1      49.271   4.507  17.972  0.00  0.00    +0.000 A 
ATOM     22  H   UNL     1      49.350   5.817  14.457  0.00  0.00    +0.000 HD
ENDBRANCH  13  19
ENDBRANCH   1  13
TORSDOF 2
ENDMDL
MODEL 6
REMARK VINA RESULT:    -5.780      4.400      7.757
REMARK INTER + INTRA:          -6.893
REMARK INTER:                  -6.574
REMARK INTRA:                  -0.319
REMARK UNBOUND:                -0.437
REMARK  Name = 
REMARK  2 active torsions:
REMARK  status: ('A' for Active; 'I' for Inactive)
REMARK    1  A    between atoms: N_6  and  C_7
REMARK    2  A    between atoms: C_7  and  C_8
REMARK                            x       y       z     vdW  Elec       q    Type
REMARK                         _______ _______ _______ _____ _____    ______ ____
ROOT
ATOM      1  C   UNL     1      46.943   8.016  13.382  0.00  0.00    +0.000 A 
ATOM      2  C   UNL     1      46.232   9.053  12.782  0.00  0.00    +0.000 A 
ATOM      3  C   UNL     1      45.301   8.725  11.814  0.00  0.00    +0.000 A 
ATOM      4  N   UNL     1      45.045   7.462  11.415  0.00  0.00    +0.000 NA
ATOM      5  C   UNL     1      45.692   6.440  12.016  0.00  0.00    +0.000 A 
ATOM      6  N   UNL     1      45.437   5.160  11.581  0.00  0.00    +0.000 N 
ATOM      7  C   UNL     1      45.116   4.944  10.173  0.00  0.00    +0.000 C 
ATOM      8  C   UNL     1      43.795   4.194  10.048  0.00  0.00    +0.000 C 
ATOM      9  C   UNL     1      43.810   2.914  10.880  0.00  0.00    +0.000 C 
ATOM     10  C   UNL     1      44.172   3.212  12.334  0.00  0.00    +0.000 C 
ATOM     11  C   UNL     1      45.484   3.994  12.449  0.00  0.00    +0.000 C 
ATOM     12  C   UNL     1      46.627   6.698  13.019  0.00  0.00    +0.000 A 
ENDROOT
BRANCH   1  13
ATOM     13  C   UNL     1      48.076   8.291  14.334  0.00  0.00    +0.000 C 
BRANCH  13  19
ATOM     14 BR   UNL     1      53.641   5.452  17.460  0.00  0.00    +0.000 Br
ATOM     15  C   UNL     1      52.011   6.041  16.725  0.00  0.00    +0.000 A 
ATOM     16  C   UNL     1      51.972   7.128  15.866  0.00  0.00    +0.000 A 
ATOM     17  C   UNL     1      50.744   7.535  15.346  0.00  0.00    +0.000 A 
ATOM     18  C   UNL     1      49.578   6.845  15.682  0.00  0.00    +0.000 A 
ATOM     19  N   UNL     1      48.337   7.177  15.204  0.00  0.00    +0.000 N 
ATOM     20  N   UNL     1      49.616   5.788  16.517  0.00  0.00    +0.000 NA
ATOM     21  C   UNL     1      50.817   5.410  17.022  0.00  0.00    +0.000 A 
ATOM     22  H   UNL     1      47.585   6.576  15.515  0.00  0.00    +0.000 HD
ENDBRANCH  13  19
ENDBRANCH   1  13
TORSDOF 2
ENDMDL
MODEL 7
REMARK VINA RESULT:    -5.717      5.753      8.004
REMARK INTER + INTRA:          -6.823
REMARK INTER:                  -6.436
REMARK INTRA:                  -0.387
REMARK UNBOUND:                -0.437
REMARK  Name = 
REMARK  2 active torsions:
REMARK  status: ('A' for Active; 'I' for Inactive)
REMARK    1  A    between atoms: N_6  and  C_7
REMARK    2  A    between atoms: C_7  and  C_8
REMARK                            x       y       z     vdW  Elec       q    Type
REMARK                         _______ _______ _______ _____ _____    ______ ____
ROOT
ATOM      1  C   UNL     1      48.176   4.665  16.631  0.00  0.00    +0.000 A 
ATOM      2  C   UNL     1      49.012   5.777  16.678  0.00  0.00    +0.000 A 
ATOM      3  C   UNL     1      48.953   6.676  15.629  0.00  0.00    +0.000 A 
ATOM      4  N   UNL     1      48.138   6.537  14.564  0.00  0.00    +0.000 NA
ATOM      5  C   UNL     1      47.287   5.488  14.522  0.00  0.00    +0.000 A 
ATOM      6  N   UNL     1      46.479   5.347  13.418  0.00  0.00    +0.000 N 
ATOM      7  C   UNL     1      46.975   5.791  12.119  0.00  0.00    +0.000 C 
ATOM      8  C   UNL     1      45.991   6.770  11.491  0.00  0.00    +0.000 C 
ATOM      9  C   UNL     1      44.584   6.179  11.444  0.00  0.00    +0.000 C 
ATOM     10  C   UNL     1      44.139   5.717  12.831  0.00  0.00    +0.000 C 
ATOM     11  C   UNL     1      45.149   4.760  13.468  0.00  0.00    +0.000 C 
ATOM     12  C   UNL     1      47.277   4.555  15.560  0.00  0.00    +0.000 A 
ENDROOT
BRANCH   1  13
ATOM     13  C   UNL     1      48.280   3.563  17.652  0.00  0.00    +0.000 C 
BRANCH  13  19
ATOM     14 BR   UNL     1      54.988   1.682  18.175  0.00  0.00    +0.000 Br
ATOM     15  C   UNL     1      53.150   1.984  17.904  0.00  0.00    +0.000 A 
ATOM     16  C   UNL     1      52.538   3.126  18.399  0.00  0.00    +0.000 A 
ATOM     17  C   UNL     1      51.173   3.310  18.179  0.00  0.00    +0.000 A 
ATOM     18  C   UNL     1      50.444   2.361  17.462  0.00  0.00    +0.000 A 
ATOM     19  N   UNL     1      49.105   2.477  17.196  0.00  0.00    +0.000 N 
ATOM     20  N   UNL     1      51.039   1.252  16.980  0.00  0.00    +0.000 NA
ATOM     21  C   UNL     1      52.365   1.082  17.210  0.00  0.00    +0.000 A 
ATOM     22  H   UNL     1      48.712   1.724  16.647  0.00  0.00    +0.000 HD
ENDBRANCH  13  19
ENDBRANCH   1  13
TORSDOF 2
ENDMDL
MODEL 8
REMARK VINA RESULT:    -5.704      4.623      6.923
REMARK INTER + INTRA:          -6.809
REMARK INTER:                  -6.349
REMARK INTRA:                  -0.459
REMARK UNBOUND:                -0.437
REMARK  Name = 
REMARK  2 active torsions:
REMARK  status: ('A' for Active; 'I' for Inactive)
REMARK    1  A    between atoms: N_6  and  C_7
REMARK    2  A    between atoms: C_7  and  C_8
REMARK                            x       y       z     vdW  Elec       q    Type
REMARK                         _______ _______ _______ _____ _____    ______ ____
ROOT
ATOM      1  C   UNL     1      46.501   4.778  13.260  0.00  0.00    +0.000 A 
ATOM      2  C   UNL     1      45.445   4.369  12.448  0.00  0.00    +0.000 A 
ATOM      3  C   UNL     1      44.745   5.341  11.758  0.00  0.00    +0.000 A 
ATOM      4  N   UNL     1      45.022   6.659  11.827  0.00  0.00    +0.000 NA
ATOM      5  C   UNL     1      46.070   7.071  12.573  0.00  0.00    +0.000 A 
ATOM      6  N   UNL     1      46.324   8.421  12.653  0.00  0.00    +0.000 N 
ATOM      7  C   UNL     1      45.204   9.355  12.595  0.00  0.00    +0.000 C 
ATOM      8  C   UNL     1      45.433  10.378  11.489  0.00  0.00    +0.000 C 
ATOM      9  C   UNL     1      46.793  11.055  11.642  0.00  0.00    +0.000 C 
ATOM     10  C   UNL     1      47.914  10.020  11.717  0.00  0.00    +0.000 C 
ATOM     11  C   UNL     1      47.659   8.977  12.809  0.00  0.00    +0.000 C 
ATOM     12  C   UNL     1      46.835   6.141  13.277  0.00  0.00    +0.000 A 
ENDROOT
BRANCH   1  13
ATOM     13  C   UNL     1      47.219   3.808  14.160  0.00  0.00    +0.000 C 
BRANCH  13  19
ATOM     14 BR   UNL     1      49.486   6.716  20.093  0.00  0.00    +0.000 Br
ATOM     15  C   UNL     1      48.684   5.854  18.624  0.00  0.00    +0.000 A 
ATOM     16  C   UNL     1      49.300   5.849  17.382  0.00  0.00    +0.000 A 
ATOM     17  C   UNL     1      48.670   5.202  16.319  0.00  0.00    +0.000 A 
ATOM     18  C   UNL     1      47.445   4.563  16.514  0.00  0.00    +0.000 A 
ATOM     19  N   UNL     1      46.772   3.898  15.522  0.00  0.00    +0.000 N 
ATOM     20  N   UNL     1      46.847   4.567  17.721  0.00  0.00    +0.000 NA
ATOM     21  C   UNL     1      47.467   5.209  18.743  0.00  0.00    +0.000 A 
ATOM     22  H   UNL     1      45.905   3.463  15.813  0.00  0.00    +0.000 HD
ENDBRANCH  13  19
ENDBRANCH   1  13
TORSDOF 2
ENDMDL
MODEL 9
REMARK VINA RESULT:    -5.644      5.256      6.798
REMARK INTER + INTRA:          -6.741
REMARK INTER:                  -6.507
REMARK INTRA:                  -0.234
REMARK UNBOUND:                -0.437
REMARK  Name = 
REMARK  2 active torsions:
REMARK  status: ('A' for Active; 'I' for Inactive)
REMARK    1  A    between atoms: N_6  and  C_7
REMARK    2  A    between atoms: C_7  and  C_8
REMARK                            x       y       z     vdW  Elec       q    Type
REMARK                         _______ _______ _______ _____ _____    ______ ____
ROOT
ATOM      1  C   UNL     1      47.599   4.419  16.232  0.00  0.00    +0.000 A 
ATOM      2  C   UNL     1      48.074   3.111  16.289  0.00  0.00    +0.000 A 
ATOM      3  C   UNL     1      48.760   2.720  17.423  0.00  0.00    +0.000 A 
ATOM      4  N   UNL     1      49.000   3.531  18.474  0.00  0.00    +0.000 NA
ATOM      5  C   UNL     1      48.508   4.789  18.457  0.00  0.00    +0.000 A 
ATOM      6  N   UNL     1      48.781   5.612  19.526  0.00  0.00    +0.000 N 
ATOM      7  C   UNL     1      50.050   5.454  20.231  0.00  0.00    +0.000 C 
ATOM      8  C   UNL     1      49.797   5.247  21.719  0.00  0.00    +0.000 C 
ATOM      9  C   UNL     1      48.910   6.353  22.285  0.00  0.00    +0.000 C 
ATOM     10  C   UNL     1      47.613   6.475  21.488  0.00  0.00    +0.000 C 
ATOM     11  C   UNL     1      47.875   6.651  19.990  0.00  0.00    +0.000 C 
ATOM     12  C   UNL     1      47.785   5.241  17.353  0.00  0.00    +0.000 A 
ENDROOT
BRANCH   1  13
ATOM     13  C   UNL     1      46.974   4.972  14.979  0.00  0.00    +0.000 C 
BRANCH  13  19
ATOM     14 BR   UNL     1      44.417   4.160   8.528  0.00  0.00    +0.000 Br
ATOM     15  C   UNL     1      45.009   4.160  10.315  0.00  0.00    +0.000 A 
ATOM     16  C   UNL     1      45.704   5.243  10.832  0.00  0.00    +0.000 A 
ATOM     17  C   UNL     1      46.128   5.201  12.160  0.00  0.00    +0.000 A 
ATOM     18  C   UNL     1      45.843   4.089  12.953  0.00  0.00    +0.000 A 
ATOM     19  N   UNL     1      46.215   3.980  14.267  0.00  0.00    +0.000 N 
ATOM     20  N   UNL     1      45.166   3.037  12.451  0.00  0.00    +0.000 NA
ATOM     21  C   UNL     1      44.768   3.088  11.155  0.00  0.00    +0.000 A 
ATOM     22  H   UNL     1      45.922   3.126  14.724  0.00  0.00    +0.000 HD
ENDBRANCH  13  19
ENDBRANCH   1  13
TORSDOF 2
ENDMDL
