MODEL 1
REMARK VINA RESULT:    -8.112      0.000      0.000
REMARK INTER + INTRA:         -12.366
REMARK INTER:                 -11.432
REMARK INTRA:                  -0.934
REMARK UNBOUND:                -0.934
REMARK  Name = 
REMARK  9 active torsions:
REMARK  status: ('A' for Active; 'I' for Inactive)
REMARK    1  A    between atoms: C_1  and  C_2
REMARK    2  A    between atoms: C_2  and  C_3
REMARK    3  A    between atoms: C_2  and  C_14
REMARK    4  A    between atoms: C_3  and  O_4
REMARK    5  A    between atoms: O_4  and  C_5
REMARK    6  A    between atoms: C_8  and  C_9
REMARK    7  A    between atoms: C_18  and  N_19
REMARK    8  A    between atoms: N_19  and  C_20
REMARK    9  A    between atoms: N_22  and  C_23
REMARK                            x       y       z     vdW  Elec       q    Type
REMARK                         _______ _______ _______ _____ _____    ______ ____
ROOT
ATOM      1  C   UNL     1      42.727   4.970  12.593  0.00  0.00    +0.000 C 
ATOM      2  C   UNL     1      43.769   5.683  11.716  0.00  0.00    +0.000 C 
ENDROOT
BRANCH   2   3
ATOM      3  C   UNL     1      45.166   5.656  12.340  0.00  0.00    +0.000 A 
ATOM      4  C   UNL     1      46.191   6.527  11.943  0.00  0.00    +0.000 A 
ATOM      5  C   UNL     1      47.460   6.462  12.517  0.00  0.00    +0.000 A 
ATOM      6  C   UNL     1      47.723   5.534  13.518  0.00  0.00    +0.000 A 
ATOM      7  C   UNL     1      46.711   4.697  13.990  0.00  0.00    +0.000 A 
ATOM      8  C   UNL     1      45.447   4.750  13.384  0.00  0.00    +0.000 A 
BRANCH   7   9
ATOM      9  N   UNL     1      47.030   3.798  15.030  0.00  0.00    +0.000 N 
ATOM     10  H   UNL     1      46.209   3.237  15.261  0.00  0.00    +0.000 HD
BRANCH   9  11
ATOM     11  C   UNL     1      47.823   4.137  16.180  0.00  0.00    +0.000 C 
ATOM     12  C   UNL     1      48.499   2.907  16.833  0.00  0.00    +0.000 C 
ATOM     13  N   UNL     1      48.058   3.384  18.166  0.00  0.00    +0.000 NA
ATOM     14  C   UNL     1      49.117   4.181  18.791  0.00  0.00    +0.000 C 
ATOM     15  C   UNL     1      47.060   4.264  17.512  0.00  0.00    +0.000 C 
ENDBRANCH   9  11
ENDBRANCH   7   9
ENDBRANCH   2   3
BRANCH   2  16
ATOM     16  C   UNL     1      43.677   5.140  10.271  0.00  0.00    +0.000 C 
BRANCH  16  17
ATOM     17  O   UNL     1      43.775   3.708  10.271  0.00  0.00    +0.000 OA
BRANCH  17  18
ATOM     18  C   UNL     1      44.661   3.232   9.331  0.00  0.00    +0.000 A 
ATOM     19  C   UNL     1      45.251   4.163   8.494  0.00  0.00    +0.000 A 
ATOM     20  C   UNL     1      46.199   3.714   7.573  0.00  0.00    +0.000 A 
ATOM     21  C   UNL     1      46.527   2.355   7.521  0.00  0.00    +0.000 A 
ATOM     22  C   UNL     1      45.858   1.503   8.389  0.00  0.00    +0.000 A 
ATOM     23  N   UNL     1      44.936   1.910   9.293  0.00  0.00    +0.000 NA
BRANCH  21  24
ATOM     24  C   UNL     1      47.564   1.891   6.569  0.00  0.00    +0.000 C 
ATOM     25  N   UNL     1      48.669   2.672   6.359  0.00  0.00    +0.000 N 
ATOM     26  O   UNL     1      47.439   0.834   5.964  0.00  0.00    +0.000 OA
ATOM     27  H   UNL     1      48.855   3.570   6.772  0.00  0.00    +0.000 HD
ATOM     28  H   UNL     1      49.337   2.327   5.681  0.00  0.00    +0.000 HD
ENDBRANCH  21  24
ENDBRANCH  17  18
ENDBRANCH  16  17
ENDBRANCH   2  16
TORSDOF 7
ENDMDL
MODEL 2
REMARK VINA RESULT:    -7.523      1.861      1.991
REMARK INTER + INTRA:         -11.535
REMARK INTER:                 -10.516
REMARK INTRA:                  -1.019
REMARK UNBOUND:                -0.934
REMARK  Name = 
REMARK  9 active torsions:
REMARK  status: ('A' for Active; 'I' for Inactive)
REMARK    1  A    between atoms: C_1  and  C_2
REMARK    2  A    between atoms: C_2  and  C_3
REMARK    3  A    between atoms: C_2  and  C_14
REMARK    4  A    between atoms: C_3  and  O_4
REMARK    5  A    between atoms: O_4  and  C_5
REMARK    6  A    between atoms: C_8  and  C_9
REMARK    7  A    between atoms: C_18  and  N_19
REMARK    8  A    between atoms: N_19  and  C_20
REMARK    9  A    between atoms: N_22  and  C_23
REMARK                            x       y       z     vdW  Elec       q    Type
REMARK                         _______ _______ _______ _____ _____    ______ ____
ROOT
ATOM      1  C   UNL     1      43.567   3.859  12.915  0.00  0.00    +0.000 C 
ATOM      2  C   UNL     1      43.835   5.106  12.055  0.00  0.00    +0.000 C 
ENDROOT
BRANCH   2   3
ATOM      3  C   UNL     1      45.239   5.671  12.279  0.00  0.00    +0.000 A 
ATOM      4  C   UNL     1      45.935   6.387  11.293  0.00  0.00    +0.000 A 
ATOM      5  C   UNL     1      47.222   6.870  11.521  0.00  0.00    +0.000 A 
ATOM      6  C   UNL     1      47.834   6.663  12.753  0.00  0.00    +0.000 A 
ATOM      7  C   UNL     1      47.149   6.017  13.782  0.00  0.00    +0.000 A 
ATOM      8  C   UNL     1      45.866   5.507  13.531  0.00  0.00    +0.000 A 
BRANCH   7   9
ATOM      9  N   UNL     1      47.810   5.864  15.020  0.00  0.00    +0.000 N 
ATOM     10  H   UNL     1      47.121   5.793  15.769  0.00  0.00    +0.000 HD
BRANCH   9  11
ATOM     11  C   UNL     1      48.989   6.592  15.405  0.00  0.00    +0.000 C 
ATOM     12  C   UNL     1      49.632   6.057  16.706  0.00  0.00    +0.000 C 
ATOM     13  N   UNL     1      49.752   7.448  17.208  0.00  0.00    +0.000 NA
ATOM     14  C   UNL     1      51.075   7.987  16.886  0.00  0.00    +0.000 C 
ATOM     15  C   UNL     1      48.751   7.886  16.205  0.00  0.00    +0.000 C 
ENDBRANCH   9  11
ENDBRANCH   7   9
ENDBRANCH   2   3
BRANCH   2  16
ATOM     16  C   UNL     1      43.469   4.801  10.585  0.00  0.00    +0.000 C 
BRANCH  16  17
ATOM     17  O   UNL     1      43.596   3.395  10.323  0.00  0.00    +0.000 OA
BRANCH  17  18
ATOM     18  C   UNL     1      44.534   3.113   9.354  0.00  0.00    +0.000 A 
ATOM     19  C   UNL     1      45.002   4.178   8.603  0.00  0.00    +0.000 A 
ATOM     20  C   UNL     1      45.997   3.930   7.656  0.00  0.00    +0.000 A 
ATOM     21  C   UNL     1      46.491   2.631   7.494  0.00  0.00    +0.000 A 
ATOM     22  C   UNL     1      45.935   1.634   8.281  0.00  0.00    +0.000 A 
ATOM     23  N   UNL     1      44.971   1.845   9.208  0.00  0.00    +0.000 NA
BRANCH  21  24
ATOM     24  C   UNL     1      47.577   2.383   6.516  0.00  0.00    +0.000 C 
ATOM     25  N   UNL     1      47.488   2.940   5.269  0.00  0.00    +0.000 N 
ATOM     26  O   UNL     1      48.538   1.680   6.804  0.00  0.00    +0.000 OA
ATOM     27  H   UNL     1      46.731   3.500   4.915  0.00  0.00    +0.000 HD
ATOM     28  H   UNL     1      48.240   2.721   4.628  0.00  0.00    +0.000 HD
ENDBRANCH  21  24
ENDBRANCH  17  18
ENDBRANCH  16  17
ENDBRANCH   2  16
TORSDOF 7
ENDMDL
MODEL 3
REMARK VINA RESULT:    -7.352      2.557      4.050
REMARK INTER + INTRA:         -11.295
REMARK INTER:                 -10.219
REMARK INTRA:                  -1.075
REMARK UNBOUND:                -0.934
REMARK  Name = 
REMARK  9 active torsions:
REMARK  status: ('A' for Active; 'I' for Inactive)
REMARK    1  A    between atoms: C_1  and  C_2
REMARK    2  A    between atoms: C_2  and  C_3
REMARK    3  A    between atoms: C_2  and  C_14
REMARK    4  A    between atoms: C_3  and  O_4
REMARK    5  A    between atoms: O_4  and  C_5
REMARK    6  A    between atoms: C_8  and  C_9
REMARK    7  A    between atoms: C_18  and  N_19
REMARK    8  A    between atoms: N_19  and  C_20
REMARK    9  A    between atoms: N_22  and  C_23
REMARK                            x       y       z     vdW  Elec       q    Type
REMARK                         _______ _______ _______ _____ _____    ______ ____
ROOT
ATOM      1  C   UNL     1      43.246   3.879  12.971  0.00  0.00    +0.000 C 
ATOM      2  C   UNL     1      43.791   5.107  12.224  0.00  0.00    +0.000 C 
ENDROOT
BRANCH   2   3
ATOM      3  C   UNL     1      45.236   5.425  12.612  0.00  0.00    +0.000 A 
ATOM      4  C   UNL     1      45.904   4.767  13.656  0.00  0.00    +0.000 A 
ATOM      5  C   UNL     1      47.214   5.096  13.999  0.00  0.00    +0.000 A 
ATOM      6  C   UNL     1      47.893   6.079  13.288  0.00  0.00    +0.000 A 
ATOM      7  C   UNL     1      47.289   6.707  12.198  0.00  0.00    +0.000 A 
ATOM      8  C   UNL     1      45.959   6.391  11.882  0.00  0.00    +0.000 A 
BRANCH   7   9
ATOM      9  N   UNL     1      48.039   7.675  11.495  0.00  0.00    +0.000 N 
ATOM     10  H   UNL     1      48.133   7.391  10.519  0.00  0.00    +0.000 HD
BRANCH   9  11
ATOM     11  C   UNL     1      49.214   8.322  12.012  0.00  0.00    +0.000 C 
ATOM     12  C   UNL     1      49.467   9.711  11.380  0.00  0.00    +0.000 C 
ATOM     13  N   UNL     1      50.893   9.354  11.186  0.00  0.00    +0.000 NA
ATOM     14  C   UNL     1      51.689   9.828  12.321  0.00  0.00    +0.000 C 
ATOM     15  C   UNL     1      50.548   7.922  11.353  0.00  0.00    +0.000 C 
ENDBRANCH   9  11
ENDBRANCH   7   9
ENDBRANCH   2   3
BRANCH   2  16
ATOM     16  C   UNL     1      43.532   4.939  10.709  0.00  0.00    +0.000 C 
BRANCH  16  17
ATOM     17  O   UNL     1      43.530   3.547  10.357  0.00  0.00    +0.000 OA
BRANCH  17  18
ATOM     18  C   UNL     1      44.476   3.233   9.408  0.00  0.00    +0.000 A 
ATOM     19  C   UNL     1      45.029   4.286   8.698  0.00  0.00    +0.000 A 
ATOM     20  C   UNL     1      46.035   4.001   7.773  0.00  0.00    +0.000 A 
ATOM     21  C   UNL     1      46.456   2.680   7.590  0.00  0.00    +0.000 A 
ATOM     22  C   UNL     1      45.818   1.698   8.334  0.00  0.00    +0.000 A 
ATOM     23  N   UNL     1      44.841   1.944   9.240  0.00  0.00    +0.000 NA
BRANCH  21  24
ATOM     24  C   UNL     1      47.553   2.390   6.637  0.00  0.00    +0.000 C 
ATOM     25  N   UNL     1      47.559   3.019   5.421  0.00  0.00    +0.000 N 
ATOM     26  O   UNL     1      48.438   1.591   6.916  0.00  0.00    +0.000 OA
ATOM     27  H   UNL     1      46.867   3.661   5.075  0.00  0.00    +0.000 HD
ATOM     28  H   UNL     1      48.314   2.770   4.794  0.00  0.00    +0.000 HD
ENDBRANCH  21  24
ENDBRANCH  17  18
ENDBRANCH  16  17
ENDBRANCH   2  16
TORSDOF 7
ENDMDL
MODEL 4
REMARK VINA RESULT:    -7.159      3.435      5.556
REMARK INTER + INTRA:         -11.023
REMARK INTER:                 -10.214
REMARK INTRA:                  -0.808
REMARK UNBOUND:                -0.934
REMARK  Name = 
REMARK  9 active torsions:
REMARK  status: ('A' for Active; 'I' for Inactive)
REMARK    1  A    between atoms: C_1  and  C_2
REMARK    2  A    between atoms: C_2  and  C_3
REMARK    3  A    between atoms: C_2  and  C_14
REMARK    4  A    between atoms: C_3  and  O_4
REMARK    5  A    between atoms: O_4  and  C_5
REMARK    6  A    between atoms: C_8  and  C_9
REMARK    7  A    between atoms: C_18  and  N_19
REMARK    8  A    between atoms: N_19  and  C_20
REMARK    9  A    between atoms: N_22  and  C_23
REMARK                            x       y       z     vdW  Elec       q    Type
REMARK                         _______ _______ _______ _____ _____    ______ ____
ROOT
ATOM      1  C   UNL     1      44.722   3.673  12.522  0.00  0.00    +0.000 C 
ATOM      2  C   UNL     1      44.171   4.922  11.816  0.00  0.00    +0.000 C 
ENDROOT
BRANCH   2   3
ATOM      3  C   UNL     1      45.124   6.115  11.925  0.00  0.00    +0.000 A 
ATOM      4  C   UNL     1      46.508   5.966  12.104  0.00  0.00    +0.000 A 
ATOM      5  C   UNL     1      47.346   7.074  12.222  0.00  0.00    +0.000 A 
ATOM      6  C   UNL     1      46.817   8.357  12.141  0.00  0.00    +0.000 A 
ATOM      7  C   UNL     1      45.457   8.547  11.892  0.00  0.00    +0.000 A 
ATOM      8  C   UNL     1      44.618   7.426  11.807  0.00  0.00    +0.000 A 
BRANCH   7   9
ATOM      9  N   UNL     1      44.984   9.873  11.789  0.00  0.00    +0.000 N 
ATOM     10  H   UNL     1      45.281  10.406  12.607  0.00  0.00    +0.000 HD
BRANCH   9  11
ATOM     11  C   UNL     1      43.672  10.232  11.325  0.00  0.00    +0.000 C 
ATOM     12  C   UNL     1      43.588  10.360   9.786  0.00  0.00    +0.000 C 
ATOM     13  N   UNL     1      42.858  11.643   9.942  0.00  0.00    +0.000 NA
ATOM     14  C   UNL     1      41.413  11.407   9.908  0.00  0.00    +0.000 C 
ATOM     15  C   UNL     1      43.339  11.736  11.341  0.00  0.00    +0.000 C 
ENDBRANCH   9  11
ENDBRANCH   7   9
ENDBRANCH   2   3
BRANCH   2  16
ATOM     16  C   UNL     1      43.739   4.548  10.380  0.00  0.00    +0.000 C 
BRANCH  16  17
ATOM     17  O   UNL     1      43.860   3.132  10.178  0.00  0.00    +0.000 OA
BRANCH  17  18
ATOM     18  C   UNL     1      44.751   2.807   9.180  0.00  0.00    +0.000 A 
ATOM     19  C   UNL     1      45.171   3.834   8.353  0.00  0.00    +0.000 A 
ATOM     20  C   UNL     1      46.120   3.544   7.371  0.00  0.00    +0.000 A 
ATOM     21  C   UNL     1      46.619   2.242   7.251  0.00  0.00    +0.000 A 
ATOM     22  C   UNL     1      46.111   1.283   8.115  0.00  0.00    +0.000 A 
ATOM     23  N   UNL     1      45.192   1.535   9.077  0.00  0.00    +0.000 NA
BRANCH  21  24
ATOM     24  C   UNL     1      47.657   1.951   6.235  0.00  0.00    +0.000 C 
ATOM     25  N   UNL     1      48.846   2.627   6.287  0.00  0.00    +0.000 N 
ATOM     26  O   UNL     1      47.460   1.128   5.348  0.00  0.00    +0.000 OA
ATOM     27  H   UNL     1      49.099   3.345   6.945  0.00  0.00    +0.000 HD
ATOM     28  H   UNL     1      49.514   2.413   5.557  0.00  0.00    +0.000 HD
ENDBRANCH  21  24
ENDBRANCH  17  18
ENDBRANCH  16  17
ENDBRANCH   2  16
TORSDOF 7
ENDMDL
MODEL 5
REMARK VINA RESULT:    -6.940      3.112      4.868
REMARK INTER + INTRA:         -10.713
REMARK INTER:                  -9.960
REMARK INTRA:                  -0.753
REMARK UNBOUND:                -0.934
REMARK  Name = 
REMARK  9 active torsions:
REMARK  status: ('A' for Active; 'I' for Inactive)
REMARK    1  A    between atoms: C_1  and  C_2
REMARK    2  A    between atoms: C_2  and  C_3
REMARK    3  A    between atoms: C_2  and  C_14
REMARK    4  A    between atoms: C_3  and  O_4
REMARK    5  A    between atoms: O_4  and  C_5
REMARK    6  A    between atoms: C_8  and  C_9
REMARK    7  A    between atoms: C_18  and  N_19
REMARK    8  A    between atoms: N_19  and  C_20
REMARK    9  A    between atoms: N_22  and  C_23
REMARK                            x       y       z     vdW  Elec       q    Type
REMARK                         _______ _______ _______ _____ _____    ______ ____
ROOT
ATOM      1  C   UNL     1      42.892   4.873  13.252  0.00  0.00    +0.000 C 
ATOM      2  C   UNL     1      43.776   5.266  12.057  0.00  0.00    +0.000 C 
ENDROOT
BRANCH   2   3
ATOM      3  C   UNL     1      45.081   5.931  12.497  0.00  0.00    +0.000 A 
ATOM      4  C   UNL     1      46.219   5.199  12.867  0.00  0.00    +0.000 A 
ATOM      5  C   UNL     1      47.386   5.836  13.285  0.00  0.00    +0.000 A 
ATOM      6  C   UNL     1      47.446   7.225  13.320  0.00  0.00    +0.000 A 
ATOM      7  C   UNL     1      46.360   7.990  12.892  0.00  0.00    +0.000 A 
ATOM      8  C   UNL     1      45.179   7.338  12.504  0.00  0.00    +0.000 A 
BRANCH   7   9
ATOM      9  N   UNL     1      46.491   9.395  12.920  0.00  0.00    +0.000 N 
ATOM     10  H   UNL     1      45.786   9.791  13.543  0.00  0.00    +0.000 HD
BRANCH   9  11
ATOM     11  C   UNL     1      46.745  10.209  11.763  0.00  0.00    +0.000 C 
ATOM     12  C   UNL     1      48.225  10.639  11.639  0.00  0.00    +0.000 C 
ATOM     13  N   UNL     1      47.789  12.029  11.358  0.00  0.00    +0.000 NA
ATOM     14  C   UNL     1      47.701  12.247   9.912  0.00  0.00    +0.000 C 
ATOM     15  C   UNL     1      46.453  11.714  11.921  0.00  0.00    +0.000 C 
ENDBRANCH   9  11
ENDBRANCH   7   9
ENDBRANCH   2   3
BRANCH   2  16
ATOM     16  C   UNL     1      43.935   4.048  11.118  0.00  0.00    +0.000 C 
BRANCH  16  17
ATOM     17  O   UNL     1      43.873   4.466   9.747  0.00  0.00    +0.000 OA
BRANCH  17  18
ATOM     18  C   UNL     1      44.873   3.920   8.974  0.00  0.00    +0.000 A 
ATOM     19  C   UNL     1      45.008   2.542   9.003  0.00  0.00    +0.000 A 
ATOM     20  C   UNL     1      45.974   1.957   8.182  0.00  0.00    +0.000 A 
ATOM     21  C   UNL     1      46.768   2.765   7.360  0.00  0.00    +0.000 A 
ATOM     22  C   UNL     1      46.567   4.135   7.427  0.00  0.00    +0.000 A 
ATOM     23  N   UNL     1      45.637   4.731   8.212  0.00  0.00    +0.000 NA
BRANCH  21  24
ATOM     24  C   UNL     1      47.762   2.134   6.460  0.00  0.00    +0.000 C 
ATOM     25  N   UNL     1      48.180   2.816   5.350  0.00  0.00    +0.000 N 
ATOM     26  O   UNL     1      48.200   1.013   6.689  0.00  0.00    +0.000 OA
ATOM     27  H   UNL     1      47.861   3.721   5.047  0.00  0.00    +0.000 HD
ATOM     28  H   UNL     1      48.840   2.334   4.752  0.00  0.00    +0.000 HD
ENDBRANCH  21  24
ENDBRANCH  17  18
ENDBRANCH  16  17
ENDBRANCH   2  16
TORSDOF 7
ENDMDL
MODEL 6
REMARK VINA RESULT:    -6.881      2.643      3.173
REMARK INTER + INTRA:         -10.630
REMARK INTER:                  -9.804
REMARK INTRA:                  -0.826
REMARK UNBOUND:                -0.934
REMARK  Name = 
REMARK  9 active torsions:
REMARK  status: ('A' for Active; 'I' for Inactive)
REMARK    1  A    between atoms: C_1  and  C_2
REMARK    2  A    between atoms: C_2  and  C_3
REMARK    3  A    between atoms: C_2  and  C_14
REMARK    4  A    between atoms: C_3  and  O_4
REMARK    5  A    between atoms: O_4  and  C_5
REMARK    6  A    between atoms: C_8  and  C_9
REMARK    7  A    between atoms: C_18  and  N_19
REMARK    8  A    between atoms: N_19  and  C_20
REMARK    9  A    between atoms: N_22  and  C_23
REMARK                            x       y       z     vdW  Elec       q    Type
REMARK                         _______ _______ _______ _____ _____    ______ ____
ROOT
ATOM      1  C   UNL     1      45.569   3.478  12.801  0.00  0.00    +0.000 C 
ATOM      2  C   UNL     1      44.554   4.520  12.302  0.00  0.00    +0.000 C 
ENDROOT
BRANCH   2   3
ATOM      3  C   UNL     1      45.176   5.910  12.158  0.00  0.00    +0.000 A 
ATOM      4  C   UNL     1      44.408   7.068  11.964  0.00  0.00    +0.000 A 
ATOM      5  C   UNL     1      45.008   8.318  11.815  0.00  0.00    +0.000 A 
ATOM      6  C   UNL     1      46.391   8.437  11.878  0.00  0.00    +0.000 A 
ATOM      7  C   UNL     1      47.186   7.320  12.140  0.00  0.00    +0.000 A 
ATOM      8  C   UNL     1      46.574   6.062  12.257  0.00  0.00    +0.000 A 
BRANCH   7   9
ATOM      9  N   UNL     1      48.582   7.509  12.224  0.00  0.00    +0.000 N 
ATOM     10  H   UNL     1      49.016   7.249  11.338  0.00  0.00    +0.000 HD
BRANCH   9  11
ATOM     11  C   UNL     1      49.380   7.159  13.367  0.00  0.00    +0.000 C 
ATOM     12  C   UNL     1      48.778   7.659  14.702  0.00  0.00    +0.000 C 
ATOM     13  N   UNL     1      50.112   8.167  15.103  0.00  0.00    +0.000 NA
ATOM     14  C   UNL     1      50.814   7.162  15.904  0.00  0.00    +0.000 C 
ATOM     15  C   UNL     1      50.551   8.107  13.688  0.00  0.00    +0.000 C 
ENDBRANCH   9  11
ENDBRANCH   7   9
ENDBRANCH   2   3
BRANCH   2  16
ATOM     16  C   UNL     1      43.844   3.976  11.041  0.00  0.00    +0.000 C 
BRANCH  16  17
ATOM     17  O   UNL     1      44.263   4.709   9.880  0.00  0.00    +0.000 OA
BRANCH  17  18
ATOM     18  C   UNL     1      45.105   3.987   9.065  0.00  0.00    +0.000 A 
ATOM     19  C   UNL     1      45.083   2.609   9.200  0.00  0.00    +0.000 A 
ATOM     20  C   UNL     1      45.881   1.850   8.344  0.00  0.00    +0.000 A 
ATOM     21  C   UNL     1      46.671   2.489   7.382  0.00  0.00    +0.000 A 
ATOM     22  C   UNL     1      46.638   3.875   7.349  0.00  0.00    +0.000 A 
ATOM     23  N   UNL     1      45.872   4.638   8.165  0.00  0.00    +0.000 NA
BRANCH  21  24
ATOM     24  C   UNL     1      47.485   1.674   6.449  0.00  0.00    +0.000 C 
ATOM     25  N   UNL     1      48.595   2.233   5.875  0.00  0.00    +0.000 N 
ATOM     26  O   UNL     1      47.171   0.522   6.178  0.00  0.00    +0.000 OA
ATOM     27  H   UNL     1      48.923   3.176   5.997  0.00  0.00    +0.000 HD
ATOM     28  H   UNL     1      49.104   1.647   5.225  0.00  0.00    +0.000 HD
ENDBRANCH  21  24
ENDBRANCH  17  18
ENDBRANCH  16  17
ENDBRANCH   2  16
TORSDOF 7
ENDMDL
MODEL 7
REMARK VINA RESULT:    -6.570      3.090      3.782
REMARK INTER + INTRA:         -10.192
REMARK INTER:                  -9.581
REMARK INTRA:                  -0.611
REMARK UNBOUND:                -0.934
REMARK  Name = 
REMARK  9 active torsions:
REMARK  status: ('A' for Active; 'I' for Inactive)
REMARK    1  A    between atoms: C_1  and  C_2
REMARK    2  A    between atoms: C_2  and  C_3
REMARK    3  A    between atoms: C_2  and  C_14
REMARK    4  A    between atoms: C_3  and  O_4
REMARK    5  A    between atoms: O_4  and  C_5
REMARK    6  A    between atoms: C_8  and  C_9
REMARK    7  A    between atoms: C_18  and  N_19
REMARK    8  A    between atoms: N_19  and  C_20
REMARK    9  A    between atoms: N_22  and  C_23
REMARK                            x       y       z     vdW  Elec       q    Type
REMARK                         _______ _______ _______ _____ _____    ______ ____
ROOT
ATOM      1  C   UNL     1      44.844   4.387  12.451  0.00  0.00    +0.000 C 
ATOM      2  C   UNL     1      43.928   5.408  11.756  0.00  0.00    +0.000 C 
ENDROOT
BRANCH   2   3
ATOM      3  C   UNL     1      44.441   6.841  11.905  0.00  0.00    +0.000 A 
ATOM      4  C   UNL     1      43.994   7.896  11.095  0.00  0.00    +0.000 A 
ATOM      5  C   UNL     1      44.499   9.187  11.242  0.00  0.00    +0.000 A 
ATOM      6  C   UNL     1      45.450   9.454  12.221  0.00  0.00    +0.000 A 
ATOM      7  C   UNL     1      45.868   8.448  13.093  0.00  0.00    +0.000 A 
ATOM      8  C   UNL     1      45.377   7.146  12.915  0.00  0.00    +0.000 A 
BRANCH   7   9
ATOM      9  N   UNL     1      46.812   8.787  14.087  0.00  0.00    +0.000 N 
ATOM     10  H   UNL     1      46.557   9.681  14.509  0.00  0.00    +0.000 HD
BRANCH   9  11
ATOM     11  C   UNL     1      48.232   8.610  13.951  0.00  0.00    +0.000 C 
ATOM     12  C   UNL     1      48.924   9.796  13.238  0.00  0.00    +0.000 C 
ATOM     13  N   UNL     1      49.670   8.837  12.387  0.00  0.00    +0.000 NA
ATOM     14  C   UNL     1      50.979   8.551  12.980  0.00  0.00    +0.000 C 
ATOM     15  C   UNL     1      48.694   7.778  12.740  0.00  0.00    +0.000 C 
ENDBRANCH   9  11
ENDBRANCH   7   9
ENDBRANCH   2   3
BRANCH   2  16
ATOM     16  C   UNL     1      43.658   4.947  10.306  0.00  0.00    +0.000 C 
BRANCH  16  17
ATOM     17  O   UNL     1      43.721   3.516  10.220  0.00  0.00    +0.000 OA
BRANCH  17  18
ATOM     18  C   UNL     1      44.627   3.074   9.282  0.00  0.00    +0.000 A 
ATOM     19  C   UNL     1      45.226   4.035   8.484  0.00  0.00    +0.000 A 
ATOM     20  C   UNL     1      46.193   3.621   7.567  0.00  0.00    +0.000 A 
ATOM     21  C   UNL     1      46.531   2.266   7.479  0.00  0.00    +0.000 A 
ATOM     22  C   UNL     1      45.853   1.384   8.308  0.00  0.00    +0.000 A 
ATOM     23  N   UNL     1      44.912   1.756   9.207  0.00  0.00    +0.000 NA
BRANCH  21  24
ATOM     24  C   UNL     1      47.589   1.839   6.533  0.00  0.00    +0.000 C 
ATOM     25  N   UNL     1      47.328   0.815   5.663  0.00  0.00    +0.000 N 
ATOM     26  O   UNL     1      48.689   2.379   6.529  0.00  0.00    +0.000 OA
ATOM     27  H   UNL     1      46.478   0.280   5.605  0.00  0.00    +0.000 HD
ATOM     28  H   UNL     1      48.089   0.542   5.054  0.00  0.00    +0.000 HD
ENDBRANCH  21  24
ENDBRANCH  17  18
ENDBRANCH  16  17
ENDBRANCH   2  16
TORSDOF 7
ENDMDL
MODEL 8
REMARK VINA RESULT:    -6.479      2.535      3.333
REMARK INTER + INTRA:         -10.064
REMARK INTER:                  -9.311
REMARK INTRA:                  -0.753
REMARK UNBOUND:                -0.934
REMARK  Name = 
REMARK  9 active torsions:
REMARK  status: ('A' for Active; 'I' for Inactive)
REMARK    1  A    between atoms: C_1  and  C_2
REMARK    2  A    between atoms: C_2  and  C_3
REMARK    3  A    between atoms: C_2  and  C_14
REMARK    4  A    between atoms: C_3  and  O_4
REMARK    5  A    between atoms: O_4  and  C_5
REMARK    6  A    between atoms: C_8  and  C_9
REMARK    7  A    between atoms: C_18  and  N_19
REMARK    8  A    between atoms: N_19  and  C_20
REMARK    9  A    between atoms: N_22  and  C_23
REMARK                            x       y       z     vdW  Elec       q    Type
REMARK                         _______ _______ _______ _____ _____    ______ ____
ROOT
ATOM      1  C   UNL     1      44.958   7.182  11.408  0.00  0.00    +0.000 C 
ATOM      2  C   UNL     1      45.341   5.694  11.468  0.00  0.00    +0.000 C 
ENDROOT
BRANCH   2   3
ATOM      3  C   UNL     1      46.170   5.361  12.709  0.00  0.00    +0.000 A 
ATOM      4  C   UNL     1      46.223   4.073  13.263  0.00  0.00    +0.000 A 
ATOM      5  C   UNL     1      46.972   3.807  14.409  0.00  0.00    +0.000 A 
ATOM      6  C   UNL     1      47.703   4.824  15.013  0.00  0.00    +0.000 A 
ATOM      7  C   UNL     1      47.733   6.101  14.452  0.00  0.00    +0.000 A 
ATOM      8  C   UNL     1      46.950   6.365  13.318  0.00  0.00    +0.000 A 
BRANCH   7   9
ATOM      9  N   UNL     1      48.519   7.084  15.092  0.00  0.00    +0.000 N 
ATOM     10  H   UNL     1      47.985   7.951  15.170  0.00  0.00    +0.000 HD
BRANCH   9  11
ATOM     11  C   UNL     1      49.915   7.302  14.832  0.00  0.00    +0.000 C 
ATOM     12  C   UNL     1      50.475   8.557  15.541  0.00  0.00    +0.000 C 
ATOM     13  N   UNL     1      51.139   8.964  14.279  0.00  0.00    +0.000 NA
ATOM     14  C   UNL     1      52.520   8.476  14.257  0.00  0.00    +0.000 C 
ATOM     15  C   UNL     1      50.249   8.048  13.526  0.00  0.00    +0.000 C 
ENDBRANCH   9  11
ENDBRANCH   7   9
ENDBRANCH   2   3
BRANCH   2  16
ATOM     16  C   UNL     1      44.073   4.832  11.266  0.00  0.00    +0.000 C 
BRANCH  16  17
ATOM     17  O   UNL     1      43.757   4.735   9.869  0.00  0.00    +0.000 OA
BRANCH  17  18
ATOM     18  C   UNL     1      44.544   3.822   9.203  0.00  0.00    +0.000 A 
ATOM     19  C   UNL     1      45.470   4.326   8.307  0.00  0.00    +0.000 A 
ATOM     20  C   UNL     1      46.323   3.427   7.664  0.00  0.00    +0.000 A 
ATOM     21  C   UNL     1      46.224   2.059   7.939  0.00  0.00    +0.000 A 
ATOM     22  C   UNL     1      45.244   1.658   8.836  0.00  0.00    +0.000 A 
ATOM     23  N   UNL     1      44.405   2.507   9.476  0.00  0.00    +0.000 NA
BRANCH  21  24
ATOM     24  C   UNL     1      47.160   1.115   7.285  0.00  0.00    +0.000 C 
ATOM     25  N   UNL     1      46.973  -0.230   7.455  0.00  0.00    +0.000 N 
ATOM     26  O   UNL     1      48.098   1.521   6.610  0.00  0.00    +0.000 OA
ATOM     27  H   UNL     1      46.262  -0.671   8.014  0.00  0.00    +0.000 HD
ATOM     28  H   UNL     1      47.652  -0.835   7.010  0.00  0.00    +0.000 HD
ENDBRANCH  21  24
ENDBRANCH  17  18
ENDBRANCH  16  17
ENDBRANCH   2  16
TORSDOF 7
ENDMDL
MODEL 9
REMARK VINA RESULT:    -6.451      3.875      7.740
REMARK INTER + INTRA:         -10.025
REMARK INTER:                  -9.090
REMARK INTRA:                  -0.935
REMARK UNBOUND:                -0.934
REMARK  Name = 
REMARK  9 active torsions:
REMARK  status: ('A' for Active; 'I' for Inactive)
REMARK    1  A    between atoms: C_1  and  C_2
REMARK    2  A    between atoms: C_2  and  C_3
REMARK    3  A    between atoms: C_2  and  C_14
REMARK    4  A    between atoms: C_3  and  O_4
REMARK    5  A    between atoms: O_4  and  C_5
REMARK    6  A    between atoms: C_8  and  C_9
REMARK    7  A    between atoms: C_18  and  N_19
REMARK    8  A    between atoms: N_19  and  C_20
REMARK    9  A    between atoms: N_22  and  C_23
REMARK                            x       y       z     vdW  Elec       q    Type
REMARK                         _______ _______ _______ _____ _____    ______ ____
ROOT
ATOM      1  C   UNL     1      49.018   8.369  11.696  0.00  0.00    +0.000 C 
ATOM      2  C   UNL     1      48.052   9.040  12.687  0.00  0.00    +0.000 C 
ENDROOT
BRANCH   2   3
ATOM      3  C   UNL     1      46.661   9.249  12.086  0.00  0.00    +0.000 A 
ATOM      4  C   UNL     1      46.219  10.492  11.609  0.00  0.00    +0.000 A 
ATOM      5  C   UNL     1      44.936  10.653  11.087  0.00  0.00    +0.000 A 
ATOM      6  C   UNL     1      44.074   9.565  11.013  0.00  0.00    +0.000 A 
ATOM      7  C   UNL     1      44.500   8.298  11.412  0.00  0.00    +0.000 A 
ATOM      8  C   UNL     1      45.781   8.153  11.965  0.00  0.00    +0.000 A 
BRANCH   7   9
ATOM      9  N   UNL     1      43.590   7.226  11.284  0.00  0.00    +0.000 N 
ATOM     10  H   UNL     1      42.662   7.528  11.581  0.00  0.00    +0.000 HD
BRANCH   9  11
ATOM     11  C   UNL     1      43.884   5.866  11.644  0.00  0.00    +0.000 C 
ATOM     12  C   UNL     1      43.592   4.861  10.505  0.00  0.00    +0.000 C 
ATOM     13  N   UNL     1      42.897   3.978  11.473  0.00  0.00    +0.000 NA
ATOM     14  C   UNL     1      43.826   2.973  11.995  0.00  0.00    +0.000 C 
ATOM     15  C   UNL     1      42.778   5.118  12.413  0.00  0.00    +0.000 C 
ENDBRANCH   9  11
ENDBRANCH   7   9
ENDBRANCH   2   3
BRANCH   2  16
ATOM     16  C   UNL     1      48.088   8.276  14.030  0.00  0.00    +0.000 C 
BRANCH  16  17
ATOM     17  O   UNL     1      48.718   6.998  13.858  0.00  0.00    +0.000 OA
BRANCH  17  18
ATOM     18  C   UNL     1      48.415   6.111  14.866  0.00  0.00    +0.000 A 
ATOM     19  C   UNL     1      47.388   5.214  14.627  0.00  0.00    +0.000 A 
ATOM     20  C   UNL     1      47.101   4.263  15.608  0.00  0.00    +0.000 A 
ATOM     21  C   UNL     1      47.849   4.239  16.791  0.00  0.00    +0.000 A 
ATOM     22  C   UNL     1      48.840   5.198  16.939  0.00  0.00    +0.000 A 
ATOM     23  N   UNL     1      49.141   6.131  16.004  0.00  0.00    +0.000 NA
BRANCH  21  24
ATOM     24  C   UNL     1      47.566   3.201  17.810  0.00  0.00    +0.000 C 
ATOM     25  N   UNL     1      48.388   3.099  18.900  0.00  0.00    +0.000 N 
ATOM     26  O   UNL     1      46.622   2.430  17.682  0.00  0.00    +0.000 OA
ATOM     27  H   UNL     1      49.208   3.651  19.086  0.00  0.00    +0.000 HD
ATOM     28  H   UNL     1      48.170   2.359  19.555  0.00  0.00    +0.000 HD
ENDBRANCH  21  24
ENDBRANCH  17  18
ENDBRANCH  16  17
ENDBRANCH   2  16
TORSDOF 7
ENDMDL
