MODEL 1
REMARK VINA RESULT:    -8.187      0.000      0.000
REMARK INTER + INTRA:         -13.799
REMARK INTER:                 -12.494
REMARK INTRA:                  -1.304
REMARK UNBOUND:                -1.304
REMARK  Name = 
REMARK  10 active torsions:
REMARK  status: ('A' for Active; 'I' for Inactive)
REMARK    1  A    between atoms: C_1  and  C_2
REMARK    2  A    between atoms: C_2  and  C_3
REMARK    3  A    between atoms: C_3  and  C_4
REMARK    4  A    between atoms: C_4  and  N_5
REMARK    5  A    between atoms: C_4  and  C_13
REMARK    6  A    between atoms: N_5  and  C_6
REMARK    7  A    between atoms: C_6  and  C_7
REMARK    8  A    between atoms: C_16  and  C_17
REMARK    9  A    between atoms: C_17  and  N_18
REMARK   10  A    between atoms: C_19  and  C_21
REMARK                            x       y       z     vdW  Elec       q    Type
REMARK                         _______ _______ _______ _____ _____    ______ ____
ROOT
ATOM      1  C   UNL     1      45.621   4.458  12.026  0.00  0.00    +0.000 A 
ATOM      2  C   UNL     1      45.914   5.639  11.320  0.00  0.00    +0.000 A 
ATOM      3  C   UNL     1      46.735   6.629  11.872  0.00  0.00    +0.000 A 
ATOM      4  C   UNL     1      47.346   6.427  13.114  0.00  0.00    +0.000 A 
ATOM      5  C   UNL     1      47.051   5.262  13.828  0.00  0.00    +0.000 A 
ATOM      6  C   UNL     1      46.187   4.303  13.301  0.00  0.00    +0.000 A 
ENDROOT
BRANCH   1   7
ATOM      7  C   UNL     1      44.651   3.420  11.436  0.00  0.00    +0.000 C 
BRANCH   7   8
ATOM      8  N   UNL     1      44.520   3.562   9.964  0.00  0.00    +0.000 NA
ATOM      9  H   UNL     1      45.183   4.266   9.643  0.00  0.00    +0.000 HD
BRANCH   8  10
ATOM     10  C   UNL     1      44.829   2.292   9.285  0.00  0.00    +0.000 C 
BRANCH  10  11
ATOM     11  C   UNL     1      45.856   2.343   8.178  0.00  0.00    +0.000 A 
ATOM     12  C   UNL     1      46.586   1.175   7.883  0.00  0.00    +0.000 A 
ATOM     13  C   UNL     1      47.410   1.103   6.761  0.00  0.00    +0.000 A 
ATOM     14  C   UNL     1      47.516   2.203   5.916  0.00  0.00    +0.000 A 
ATOM     15  C   UNL     1      46.818   3.375   6.207  0.00  0.00    +0.000 A 
ATOM     16  C   UNL     1      45.991   3.448   7.333  0.00  0.00    +0.000 A 
ENDBRANCH  10  11
ENDBRANCH   8  10
ENDBRANCH   7   8
BRANCH   7  17
ATOM     17  C   UNL     1      43.280   3.509  12.164  0.00  0.00    +0.000 C 
BRANCH  17  19
ATOM     18  C   UNL     1      42.270   5.763  11.777  0.00  0.00    +0.000 C 
ATOM     19  C   UNL     1      42.912   4.843  12.817  0.00  0.00    +0.000 C 
ENDBRANCH  17  19
ENDBRANCH   7  17
ENDBRANCH   1   7
BRANCH   4  20
ATOM     20  C   UNL     1      48.283   7.444  13.703  0.00  0.00    +0.000 C 
BRANCH  20  21
ATOM     21  N   UNL     1      48.274   7.385  15.140  0.00  0.00    +0.000 N 
ATOM     22  C   UNL     1      49.412   7.059  15.834  0.00  0.00    +0.000 C 
ATOM     23  O   UNL     1      50.483   6.855  15.268  0.00  0.00    +0.000 OA
ATOM     24  H   UNL     1      47.371   7.289  15.592  0.00  0.00    +0.000 HD
BRANCH  22  25
ATOM     25  C   UNL     1      49.299   7.034  17.296  0.00  0.00    +0.000 A 
ATOM     26  C   UNL     1      49.330   8.224  18.008  0.00  0.00    +0.000 A 
ATOM     27  S   UNL     1      49.101   8.020  19.686  0.00  0.00    +0.000 S 
ATOM     28  C   UNL     1      49.012   6.330  19.522  0.00  0.00    +0.000 A 
ATOM     29  N   UNL     1      48.830   5.529  20.608  0.00  0.00    +0.000 NA
ATOM     30  C   UNL     1      48.811   4.268  20.342  0.00  0.00    +0.000 A 
ATOM     31  N   UNL     1      48.954   3.727  19.091  0.00  0.00    +0.000 N 
ATOM     32  C   UNL     1      49.121   4.496  17.962  0.00  0.00    +0.000 A 
ATOM     33  O   UNL     1      49.225   3.984  16.853  0.00  0.00    +0.000 OA
ATOM     34  C   UNL     1      49.146   5.924  18.209  0.00  0.00    +0.000 A 
ATOM     35  H   UNL     1      48.929   2.728  18.950  0.00  0.00    +0.000 HD
ENDBRANCH  22  25
ENDBRANCH  20  21
ENDBRANCH   4  20
TORSDOF 9
ENDMDL
MODEL 2
REMARK VINA RESULT:    -8.108      1.553      2.240
REMARK INTER + INTRA:         -13.678
REMARK INTER:                 -12.100
REMARK INTRA:                  -1.578
REMARK UNBOUND:                -1.304
REMARK  Name = 
REMARK  10 active torsions:
REMARK  status: ('A' for Active; 'I' for Inactive)
REMARK    1  A    between atoms: C_1  and  C_2
REMARK    2  A    between atoms: C_2  and  C_3
REMARK    3  A    between atoms: C_3  and  C_4
REMARK    4  A    between atoms: C_4  and  N_5
REMARK    5  A    between atoms: C_4  and  C_13
REMARK    6  A    between atoms: N_5  and  C_6
REMARK    7  A    between atoms: C_6  and  C_7
REMARK    8  A    between atoms: C_16  and  C_17
REMARK    9  A    between atoms: C_17  and  N_18
REMARK   10  A    between atoms: C_19  and  C_21
REMARK                            x       y       z     vdW  Elec       q    Type
REMARK                         _______ _______ _______ _____ _____    ______ ____
ROOT
ATOM      1  C   UNL     1      46.061   5.469  11.593  0.00  0.00    +0.000 A 
ATOM      2  C   UNL     1      46.811   6.596  11.211  0.00  0.00    +0.000 A 
ATOM      3  C   UNL     1      47.676   7.229  12.111  0.00  0.00    +0.000 A 
ATOM      4  C   UNL     1      47.870   6.703  13.392  0.00  0.00    +0.000 A 
ATOM      5  C   UNL     1      47.120   5.592  13.785  0.00  0.00    +0.000 A 
ATOM      6  C   UNL     1      46.216   4.996  12.906  0.00  0.00    +0.000 A 
ENDROOT
BRANCH   1   7
ATOM      7  C   UNL     1      45.054   4.837  10.616  0.00  0.00    +0.000 C 
BRANCH   7   8
ATOM      8  N   UNL     1      45.390   5.145   9.203  0.00  0.00    +0.000 NA
ATOM      9  H   UNL     1      46.403   5.192   9.110  0.00  0.00    +0.000 HD
BRANCH   8  10
ATOM     10  C   UNL     1      44.890   4.093   8.304  0.00  0.00    +0.000 C 
BRANCH  10  11
ATOM     11  C   UNL     1      45.915   3.136   7.739  0.00  0.00    +0.000 A 
ATOM     12  C   UNL     1      46.007   1.845   8.294  0.00  0.00    +0.000 A 
ATOM     13  C   UNL     1      46.797   0.860   7.702  0.00  0.00    +0.000 A 
ATOM     14  C   UNL     1      47.508   1.154   6.543  0.00  0.00    +0.000 A 
ATOM     15  C   UNL     1      47.445   2.436   5.994  0.00  0.00    +0.000 A 
ATOM     16  C   UNL     1      46.653   3.424   6.587  0.00  0.00    +0.000 A 
ENDBRANCH  10  11
ENDBRANCH   8  10
ENDBRANCH   7   8
BRANCH   7  17
ATOM     17  C   UNL     1      43.610   5.275  10.992  0.00  0.00    +0.000 C 
BRANCH  17  19
ATOM     18  C   UNL     1      43.350   2.894  11.707  0.00  0.00    +0.000 C 
ATOM     19  C   UNL     1      42.773   4.306  11.828  0.00  0.00    +0.000 C 
ENDBRANCH  17  19
ENDBRANCH   7  17
ENDBRANCH   1   7
BRANCH   4  20
ATOM     20  C   UNL     1      48.841   7.326  14.357  0.00  0.00    +0.000 C 
BRANCH  20  21
ATOM     21  N   UNL     1      48.530   6.958  15.713  0.00  0.00    +0.000 N 
ATOM     22  C   UNL     1      49.479   6.375  16.514  0.00  0.00    +0.000 C 
ATOM     23  O   UNL     1      50.631   6.190  16.130  0.00  0.00    +0.000 OA
ATOM     24  H   UNL     1      47.549   6.859  15.950  0.00  0.00    +0.000 HD
BRANCH  22  25
ATOM     25  C   UNL     1      49.063   6.045  17.882  0.00  0.00    +0.000 A 
ATOM     26  C   UNL     1      49.260   4.761  18.368  0.00  0.00    +0.000 A 
ATOM     27  S   UNL     1      48.798   4.573  20.000  0.00  0.00    +0.000 S 
ATOM     28  C   UNL     1      48.266   6.185  20.090  0.00  0.00    +0.000 A 
ATOM     29  N   UNL     1      47.732   6.684  21.239  0.00  0.00    +0.000 NA
ATOM     30  C   UNL     1      47.344   7.910  21.158  0.00  0.00    +0.000 A 
ATOM     31  N   UNL     1      47.439   8.691  20.035  0.00  0.00    +0.000 N 
ATOM     32  C   UNL     1      47.987   8.237  18.858  0.00  0.00    +0.000 A 
ATOM     33  O   UNL     1      48.078   8.966  17.876  0.00  0.00    +0.000 OA
ATOM     34  C   UNL     1      48.443   6.862  18.900  0.00  0.00    +0.000 A 
ATOM     35  H   UNL     1      47.115   9.646  20.038  0.00  0.00    +0.000 HD
ENDBRANCH  22  25
ENDBRANCH  20  21
ENDBRANCH   4  20
TORSDOF 9
ENDMDL
MODEL 3
REMARK VINA RESULT:    -7.198      3.841      5.881
REMARK INTER + INTRA:         -12.289
REMARK INTER:                 -10.534
REMARK INTRA:                  -1.755
REMARK UNBOUND:                -1.304
REMARK  Name = 
REMARK  10 active torsions:
REMARK  status: ('A' for Active; 'I' for Inactive)
REMARK    1  A    between atoms: C_1  and  C_2
REMARK    2  A    between atoms: C_2  and  C_3
REMARK    3  A    between atoms: C_3  and  C_4
REMARK    4  A    between atoms: C_4  and  N_5
REMARK    5  A    between atoms: C_4  and  C_13
REMARK    6  A    between atoms: N_5  and  C_6
REMARK    7  A    between atoms: C_6  and  C_7
REMARK    8  A    between atoms: C_16  and  C_17
REMARK    9  A    between atoms: C_17  and  N_18
REMARK   10  A    between atoms: C_19  and  C_21
REMARK                            x       y       z     vdW  Elec       q    Type
REMARK                         _______ _______ _______ _____ _____    ______ ____
ROOT
ATOM      1  C   UNL     1      45.602   4.621  12.214  0.00  0.00    +0.000 A 
ATOM      2  C   UNL     1      46.071   5.672  11.406  0.00  0.00    +0.000 A 
ATOM      3  C   UNL     1      47.043   6.566  11.871  0.00  0.00    +0.000 A 
ATOM      4  C   UNL     1      47.624   6.383  13.130  0.00  0.00    +0.000 A 
ATOM      5  C   UNL     1      47.156   5.349  13.945  0.00  0.00    +0.000 A 
ATOM      6  C   UNL     1      46.147   4.494  13.501  0.00  0.00    +0.000 A 
ENDROOT
BRANCH   1   7
ATOM      7  C   UNL     1      44.475   3.699  11.714  0.00  0.00    +0.000 C 
BRANCH   7   8
ATOM      8  N   UNL     1      45.007   2.537  10.960  0.00  0.00    +0.000 NA
ATOM      9  H   UNL     1      44.731   1.681  11.439  0.00  0.00    +0.000 HD
BRANCH   8  10
ATOM     10  C   UNL     1      44.456   2.502   9.595  0.00  0.00    +0.000 C 
BRANCH  10  11
ATOM     11  C   UNL     1      45.452   2.435   8.460  0.00  0.00    +0.000 A 
ATOM     12  C   UNL     1      45.774   3.624   7.777  0.00  0.00    +0.000 A 
ATOM     13  C   UNL     1      46.814   3.664   6.849  0.00  0.00    +0.000 A 
ATOM     14  C   UNL     1      47.548   2.511   6.591  0.00  0.00    +0.000 A 
ATOM     15  C   UNL     1      47.226   1.320   7.242  0.00  0.00    +0.000 A 
ATOM     16  C   UNL     1      46.183   1.279   8.173  0.00  0.00    +0.000 A 
ENDBRANCH  10  11
ENDBRANCH   8  10
ENDBRANCH   7   8
BRANCH   7  17
ATOM     17  C   UNL     1      43.450   4.525  10.887  0.00  0.00    +0.000 C 
BRANCH  17  19
ATOM     18  C   UNL     1      42.728   6.862  11.404  0.00  0.00    +0.000 C 
ATOM     19  C   UNL     1      42.444   5.381  11.659  0.00  0.00    +0.000 C 
ENDBRANCH  17  19
ENDBRANCH   7  17
ENDBRANCH   1   7
BRANCH   4  20
ATOM     20  C   UNL     1      48.715   7.289  13.630  0.00  0.00    +0.000 C 
BRANCH  20  21
ATOM     21  N   UNL     1      49.156   8.187  12.595  0.00  0.00    +0.000 N 
ATOM     22  C   UNL     1      49.795   9.359  12.913  0.00  0.00    +0.000 C 
ATOM     23  O   UNL     1      50.058   9.663  14.073  0.00  0.00    +0.000 OA
ATOM     24  H   UNL     1      48.724   8.086  11.683  0.00  0.00    +0.000 HD
BRANCH  22  25
ATOM     25  C   UNL     1      50.210  10.200  11.785  0.00  0.00    +0.000 A 
ATOM     26  C   UNL     1      49.607  11.434  11.592  0.00  0.00    +0.000 A 
ATOM     27  S   UNL     1      50.266  12.317  10.289  0.00  0.00    +0.000 S 
ATOM     28  C   UNL     1      51.338  11.054   9.906  0.00  0.00    +0.000 A 
ATOM     29  N   UNL     1      52.200  11.160   8.858  0.00  0.00    +0.000 NA
ATOM     30  C   UNL     1      52.933  10.118   8.664  0.00  0.00    +0.000 A 
ATOM     31  N   UNL     1      52.889   8.975   9.420  0.00  0.00    +0.000 N 
ATOM     32  C   UNL     1      52.048   8.829  10.498  0.00  0.00    +0.000 A 
ATOM     33  O   UNL     1      52.046   7.802  11.169  0.00  0.00    +0.000 OA
ATOM     34  C   UNL     1      51.204   9.978  10.760  0.00  0.00    +0.000 A 
ATOM     35  H   UNL     1      53.492   8.193   9.214  0.00  0.00    +0.000 HD
ENDBRANCH  22  25
ENDBRANCH  20  21
ENDBRANCH   4  20
TORSDOF 9
ENDMDL
MODEL 4
REMARK VINA RESULT:    -7.187      3.164      9.000
REMARK INTER + INTRA:         -12.272
REMARK INTER:                 -10.094
REMARK INTRA:                  -2.179
REMARK UNBOUND:                -1.304
REMARK  Name = 
REMARK  10 active torsions:
REMARK  status: ('A' for Active; 'I' for Inactive)
REMARK    1  A    between atoms: C_1  and  C_2
REMARK    2  A    between atoms: C_2  and  C_3
REMARK    3  A    between atoms: C_3  and  C_4
REMARK    4  A    between atoms: C_4  and  N_5
REMARK    5  A    between atoms: C_4  and  C_13
REMARK    6  A    between atoms: N_5  and  C_6
REMARK    7  A    between atoms: C_6  and  C_7
REMARK    8  A    between atoms: C_16  and  C_17
REMARK    9  A    between atoms: C_17  and  N_18
REMARK   10  A    between atoms: C_19  and  C_21
REMARK                            x       y       z     vdW  Elec       q    Type
REMARK                         _______ _______ _______ _____ _____    ______ ____
ROOT
ATOM      1  C   UNL     1      48.718   8.082  16.539  0.00  0.00    +0.000 A 
ATOM      2  C   UNL     1      48.997   6.893  15.842  0.00  0.00    +0.000 A 
ATOM      3  C   UNL     1      48.667   6.752  14.489  0.00  0.00    +0.000 A 
ATOM      4  C   UNL     1      48.119   7.826  13.781  0.00  0.00    +0.000 A 
ATOM      5  C   UNL     1      47.827   9.007  14.469  0.00  0.00    +0.000 A 
ATOM      6  C   UNL     1      48.104   9.126  15.830  0.00  0.00    +0.000 A 
ENDROOT
BRANCH   1   7
ATOM      7  C   UNL     1      49.015   8.187  18.046  0.00  0.00    +0.000 C 
BRANCH   7   8
ATOM      8  N   UNL     1      49.910   7.097  18.509  0.00  0.00    +0.000 NA
ATOM      9  H   UNL     1      50.616   7.494  19.127  0.00  0.00    +0.000 HD
BRANCH   8  10
ATOM     10  C   UNL     1      49.154   6.082  19.261  0.00  0.00    +0.000 C 
BRANCH  10  11
ATOM     11  C   UNL     1      48.847   4.789  18.542  0.00  0.00    +0.000 A 
ATOM     12  C   UNL     1      47.528   4.561  18.103  0.00  0.00    +0.000 A 
ATOM     13  C   UNL     1      47.220   3.480  17.278  0.00  0.00    +0.000 A 
ATOM     14  C   UNL     1      48.229   2.610  16.879  0.00  0.00    +0.000 A 
ATOM     15  C   UNL     1      49.537   2.810  17.325  0.00  0.00    +0.000 A 
ATOM     16  C   UNL     1      49.847   3.894  18.153  0.00  0.00    +0.000 A 
ENDBRANCH  10  11
ENDBRANCH   8  10
ENDBRANCH   7   8
BRANCH   7  17
ATOM     17  C   UNL     1      47.680   8.237  18.842  0.00  0.00    +0.000 C 
BRANCH  17  19
ATOM     18  C   UNL     1      47.434  10.719  19.007  0.00  0.00    +0.000 C 
ATOM     19  C   UNL     1      47.472   9.411  19.799  0.00  0.00    +0.000 C 
ENDBRANCH  17  19
ENDBRANCH   7  17
ENDBRANCH   1   7
BRANCH   4  20
ATOM     20  C   UNL     1      47.813   7.725  12.312  0.00  0.00    +0.000 C 
BRANCH  20  21
ATOM     21  N   UNL     1      47.102   6.509  12.016  0.00  0.00    +0.000 N 
ATOM     22  C   UNL     1      45.733   6.460  12.109  0.00  0.00    +0.000 C 
ATOM     23  O   UNL     1      45.065   7.449  12.399  0.00  0.00    +0.000 OA
ATOM     24  H   UNL     1      47.634   5.647  12.038  0.00  0.00    +0.000 HD
BRANCH  22  25
ATOM     25  C   UNL     1      45.104   5.177  11.779  0.00  0.00    +0.000 A 
ATOM     26  C   UNL     1      44.436   4.466  12.765  0.00  0.00    +0.000 A 
ATOM     27  S   UNL     1      43.692   3.042  12.192  0.00  0.00    +0.000 S 
ATOM     28  C   UNL     1      44.289   3.299  10.621  0.00  0.00    +0.000 A 
ATOM     29  N   UNL     1      44.021   2.419   9.617  0.00  0.00    +0.000 NA
ATOM     30  C   UNL     1      44.559   2.723   8.486  0.00  0.00    +0.000 A 
ATOM     31  N   UNL     1      45.342   3.826   8.259  0.00  0.00    +0.000 N 
ATOM     32  C   UNL     1      45.624   4.751   9.236  0.00  0.00    +0.000 A 
ATOM     33  O   UNL     1      46.310   5.740   8.998  0.00  0.00    +0.000 OA
ATOM     34  C   UNL     1      45.036   4.456  10.528  0.00  0.00    +0.000 A 
ATOM     35  H   UNL     1      45.734   4.006   7.347  0.00  0.00    +0.000 HD
ENDBRANCH  22  25
ENDBRANCH  20  21
ENDBRANCH   4  20
TORSDOF 9
ENDMDL
MODEL 5
REMARK VINA RESULT:    -6.890      4.345      5.388
REMARK INTER + INTRA:         -11.819
REMARK INTER:                 -10.337
REMARK INTRA:                  -1.482
REMARK UNBOUND:                -1.304
REMARK  Name = 
REMARK  10 active torsions:
REMARK  status: ('A' for Active; 'I' for Inactive)
REMARK    1  A    between atoms: C_1  and  C_2
REMARK    2  A    between atoms: C_2  and  C_3
REMARK    3  A    between atoms: C_3  and  C_4
REMARK    4  A    between atoms: C_4  and  N_5
REMARK    5  A    between atoms: C_4  and  C_13
REMARK    6  A    between atoms: N_5  and  C_6
REMARK    7  A    between atoms: C_6  and  C_7
REMARK    8  A    between atoms: C_16  and  C_17
REMARK    9  A    between atoms: C_17  and  N_18
REMARK   10  A    between atoms: C_19  and  C_21
REMARK                            x       y       z     vdW  Elec       q    Type
REMARK                         _______ _______ _______ _____ _____    ______ ____
ROOT
ATOM      1  C   UNL     1      45.718   6.240  11.213  0.00  0.00    +0.000 A 
ATOM      2  C   UNL     1      46.969   6.175  11.853  0.00  0.00    +0.000 A 
ATOM      3  C   UNL     1      47.512   7.293  12.496  0.00  0.00    +0.000 A 
ATOM      4  C   UNL     1      46.782   8.483  12.580  0.00  0.00    +0.000 A 
ATOM      5  C   UNL     1      45.544   8.561  11.936  0.00  0.00    +0.000 A 
ATOM      6  C   UNL     1      45.030   7.463  11.248  0.00  0.00    +0.000 A 
ENDROOT
BRANCH   1   7
ATOM      7  C   UNL     1      45.176   5.023  10.441  0.00  0.00    +0.000 C 
BRANCH   7   8
ATOM      8  N   UNL     1      45.387   5.159   8.978  0.00  0.00    +0.000 NA
ATOM      9  H   UNL     1      46.388   5.129   8.788  0.00  0.00    +0.000 HD
BRANCH   8  10
ATOM     10  C   UNL     1      44.744   4.053   8.251  0.00  0.00    +0.000 C 
BRANCH  10  11
ATOM     11  C   UNL     1      45.658   3.013   7.645  0.00  0.00    +0.000 A 
ATOM     12  C   UNL     1      46.425   3.366   6.518  0.00  0.00    +0.000 A 
ATOM     13  C   UNL     1      47.418   2.519   6.027  0.00  0.00    +0.000 A 
ATOM     14  C   UNL     1      47.658   1.303   6.658  0.00  0.00    +0.000 A 
ATOM     15  C   UNL     1      46.890   0.929   7.763  0.00  0.00    +0.000 A 
ATOM     16  C   UNL     1      45.894   1.778   8.256  0.00  0.00    +0.000 A 
ENDBRANCH  10  11
ENDBRANCH   8  10
ENDBRANCH   7   8
BRANCH   7  17
ATOM     17  C   UNL     1      43.682   4.794  10.806  0.00  0.00    +0.000 C 
BRANCH  17  19
ATOM     18  C   UNL     1      42.931   4.978  13.184  0.00  0.00    +0.000 C 
ATOM     19  C   UNL     1      43.380   4.012  12.086  0.00  0.00    +0.000 C 
ENDBRANCH  17  19
ENDBRANCH   7  17
ENDBRANCH   1   7
BRANCH   4  20
ATOM     20  C   UNL     1      47.313   9.680  13.320  0.00  0.00    +0.000 C 
BRANCH  20  21
ATOM     21  N   UNL     1      48.745   9.762  13.209  0.00  0.00    +0.000 N 
ATOM     22  C   UNL     1      49.329  10.331  12.105  0.00  0.00    +0.000 C 
ATOM     23  O   UNL     1      48.664  10.830  11.201  0.00  0.00    +0.000 OA
ATOM     24  H   UNL     1      49.290   9.138  13.794  0.00  0.00    +0.000 HD
BRANCH  22  25
ATOM     25  C   UNL     1      50.796  10.372  12.092  0.00  0.00    +0.000 A 
ATOM     26  C   UNL     1      51.453  11.525  12.496  0.00  0.00    +0.000 A 
ATOM     27  S   UNL     1      53.152  11.373  12.501  0.00  0.00    +0.000 S 
ATOM     28  C   UNL     1      53.065   9.782  11.906  0.00  0.00    +0.000 A 
ATOM     29  N   UNL     1      54.194   9.060  11.667  0.00  0.00    +0.000 NA
ATOM     30  C   UNL     1      53.982   7.882  11.191  0.00  0.00    +0.000 A 
ATOM     31  N   UNL     1      52.745   7.351  10.931  0.00  0.00    +0.000 N 
ATOM     32  C   UNL     1      51.576   8.035  11.173  0.00  0.00    +0.000 A 
ATOM     33  O   UNL     1      50.483   7.526  10.950  0.00  0.00    +0.000 OA
ATOM     34  C   UNL     1      51.762   9.367  11.714  0.00  0.00    +0.000 A 
ATOM     35  H   UNL     1      52.647   6.420  10.557  0.00  0.00    +0.000 HD
ENDBRANCH  22  25
ENDBRANCH  20  21
ENDBRANCH   4  20
TORSDOF 9
ENDMDL
MODEL 6
REMARK VINA RESULT:    -6.790      3.569      9.010
REMARK INTER + INTRA:         -11.667
REMARK INTER:                  -8.977
REMARK INTRA:                  -2.689
REMARK UNBOUND:                -1.304
REMARK  Name = 
REMARK  10 active torsions:
REMARK  status: ('A' for Active; 'I' for Inactive)
REMARK    1  A    between atoms: C_1  and  C_2
REMARK    2  A    between atoms: C_2  and  C_3
REMARK    3  A    between atoms: C_3  and  C_4
REMARK    4  A    between atoms: C_4  and  N_5
REMARK    5  A    between atoms: C_4  and  C_13
REMARK    6  A    between atoms: N_5  and  C_6
REMARK    7  A    between atoms: C_6  and  C_7
REMARK    8  A    between atoms: C_16  and  C_17
REMARK    9  A    between atoms: C_17  and  N_18
REMARK   10  A    between atoms: C_19  and  C_21
REMARK                            x       y       z     vdW  Elec       q    Type
REMARK                         _______ _______ _______ _____ _____    ______ ____
ROOT
ATOM      1  C   UNL     1      49.942   7.349  18.358  0.00  0.00    +0.000 A 
ATOM      2  C   UNL     1      48.904   8.287  18.211  0.00  0.00    +0.000 A 
ATOM      3  C   UNL     1      48.452   8.675  16.945  0.00  0.00    +0.000 A 
ATOM      4  C   UNL     1      48.977   8.077  15.795  0.00  0.00    +0.000 A 
ATOM      5  C   UNL     1      50.017   7.154  15.930  0.00  0.00    +0.000 A 
ATOM      6  C   UNL     1      50.504   6.810  17.190  0.00  0.00    +0.000 A 
ENDROOT
BRANCH   1   7
ATOM      7  C   UNL     1      50.479   6.996  19.757  0.00  0.00    +0.000 C 
BRANCH   7   8
ATOM      8  N   UNL     1      50.401   5.539  20.026  0.00  0.00    +0.000 NA
ATOM      9  H   UNL     1      50.784   5.356  20.953  0.00  0.00    +0.000 HD
BRANCH   8  10
ATOM     10  C   UNL     1      49.004   5.076  20.003  0.00  0.00    +0.000 C 
BRANCH  10  11
ATOM     11  C   UNL     1      48.564   4.295  18.786  0.00  0.00    +0.000 A 
ATOM     12  C   UNL     1      47.431   4.737  18.076  0.00  0.00    +0.000 A 
ATOM     13  C   UNL     1      47.084   4.175  16.848  0.00  0.00    +0.000 A 
ATOM     14  C   UNL     1      47.869   3.160  16.312  0.00  0.00    +0.000 A 
ATOM     15  C   UNL     1      48.982   2.695  17.014  0.00  0.00    +0.000 A 
ATOM     16  C   UNL     1      49.330   3.258  18.246  0.00  0.00    +0.000 A 
ENDBRANCH  10  11
ENDBRANCH   8  10
ENDBRANCH   7   8
BRANCH   7  17
ATOM     17  C   UNL     1      49.737   7.839  20.832  0.00  0.00    +0.000 C 
BRANCH  17  19
ATOM     18  C   UNL     1      52.034   8.628  21.424  0.00  0.00    +0.000 C 
ATOM     19  C   UNL     1      50.587   8.519  21.907  0.00  0.00    +0.000 C 
ENDBRANCH  17  19
ENDBRANCH   7  17
ENDBRANCH   1   7
BRANCH   4  20
ATOM     20  C   UNL     1      48.466   8.429  14.425  0.00  0.00    +0.000 C 
BRANCH  20  21
ATOM     21  N   UNL     1      47.424   7.526  14.014  0.00  0.00    +0.000 N 
ATOM     22  C   UNL     1      47.711   6.442  13.223  0.00  0.00    +0.000 C 
ATOM     23  O   UNL     1      48.858   6.173  12.878  0.00  0.00    +0.000 OA
ATOM     24  H   UNL     1      46.471   7.869  14.062  0.00  0.00    +0.000 HD
BRANCH  22  25
ATOM     25  C   UNL     1      46.579   5.579  12.866  0.00  0.00    +0.000 A 
ATOM     26  C   UNL     1      46.661   4.213  13.088  0.00  0.00    +0.000 A 
ATOM     27  S   UNL     1      45.229   3.372  12.696  0.00  0.00    +0.000 S 
ATOM     28  C   UNL     1      44.476   4.799  12.160  0.00  0.00    +0.000 A 
ATOM     29  N   UNL     1      43.204   4.779  11.673  0.00  0.00    +0.000 NA
ATOM     30  C   UNL     1      42.769   5.925  11.277  0.00  0.00    +0.000 A 
ATOM     31  N   UNL     1      43.482   7.095  11.321  0.00  0.00    +0.000 N 
ATOM     32  C   UNL     1      44.762   7.167  11.821  0.00  0.00    +0.000 A 
ATOM     33  O   UNL     1      45.368   8.232  11.868  0.00  0.00    +0.000 OA
ATOM     34  C   UNL     1      45.296   5.902  12.285  0.00  0.00    +0.000 A 
ATOM     35  H   UNL     1      43.082   7.961  10.994  0.00  0.00    +0.000 HD
ENDBRANCH  22  25
ENDBRANCH  20  21
ENDBRANCH   4  20
TORSDOF 9
ENDMDL
MODEL 7
REMARK VINA RESULT:    -6.467      3.493      8.890
REMARK INTER + INTRA:         -11.174
REMARK INTER:                  -8.605
REMARK INTRA:                  -2.568
REMARK UNBOUND:                -1.304
REMARK  Name = 
REMARK  10 active torsions:
REMARK  status: ('A' for Active; 'I' for Inactive)
REMARK    1  A    between atoms: C_1  and  C_2
REMARK    2  A    between atoms: C_2  and  C_3
REMARK    3  A    between atoms: C_3  and  C_4
REMARK    4  A    between atoms: C_4  and  N_5
REMARK    5  A    between atoms: C_4  and  C_13
REMARK    6  A    between atoms: N_5  and  C_6
REMARK    7  A    between atoms: C_6  and  C_7
REMARK    8  A    between atoms: C_16  and  C_17
REMARK    9  A    between atoms: C_17  and  N_18
REMARK   10  A    between atoms: C_19  and  C_21
REMARK                            x       y       z     vdW  Elec       q    Type
REMARK                         _______ _______ _______ _____ _____    ______ ____
ROOT
ATOM      1  C   UNL     1      49.375   8.013  18.473  0.00  0.00    +0.000 A 
ATOM      2  C   UNL     1      50.350   7.393  17.671  0.00  0.00    +0.000 A 
ATOM      3  C   UNL     1      50.293   7.465  16.274  0.00  0.00    +0.000 A 
ATOM      4  C   UNL     1      49.301   8.225  15.648  0.00  0.00    +0.000 A 
ATOM      5  C   UNL     1      48.320   8.834  16.435  0.00  0.00    +0.000 A 
ATOM      6  C   UNL     1      48.347   8.714  17.824  0.00  0.00    +0.000 A 
ENDROOT
BRANCH   1   7
ATOM      7  C   UNL     1      49.410   7.853  20.003  0.00  0.00    +0.000 C 
BRANCH   7   8
ATOM      8  N   UNL     1      48.154   7.258  20.524  0.00  0.00    +0.000 NA
ATOM      9  H   UNL     1      47.404   7.445  19.861  0.00  0.00    +0.000 HD
BRANCH   8  10
ATOM     10  C   UNL     1      48.287   5.800  20.674  0.00  0.00    +0.000 C 
BRANCH  10  11
ATOM     11  C   UNL     1      48.282   4.980  19.404  0.00  0.00    +0.000 A 
ATOM     12  C   UNL     1      47.227   5.166  18.489  0.00  0.00    +0.000 A 
ATOM     13  C   UNL     1      47.259   4.582  17.223  0.00  0.00    +0.000 A 
ATOM     14  C   UNL     1      48.350   3.801  16.855  0.00  0.00    +0.000 A 
ATOM     15  C   UNL     1      49.391   3.589  17.759  0.00  0.00    +0.000 A 
ATOM     16  C   UNL     1      49.360   4.174  19.029  0.00  0.00    +0.000 A 
ENDBRANCH  10  11
ENDBRANCH   8  10
ENDBRANCH   7   8
BRANCH   7  17
ATOM     17  C   UNL     1      49.739   9.220  20.667  0.00  0.00    +0.000 C 
BRANCH  17  19
ATOM     18  C   UNL     1      50.718  11.195  19.486  0.00  0.00    +0.000 C 
ATOM     19  C   UNL     1      51.040   9.911  20.254  0.00  0.00    +0.000 C 
ENDBRANCH  17  19
ENDBRANCH   7  17
ENDBRANCH   1   7
BRANCH   4  20
ATOM     20  C   UNL     1      49.252   8.373  14.152  0.00  0.00    +0.000 C 
BRANCH  20  21
ATOM     21  N   UNL     1      47.984   7.936  13.630  0.00  0.00    +0.000 N 
ATOM     22  C   UNL     1      47.865   6.715  13.016  0.00  0.00    +0.000 C 
ATOM     23  O   UNL     1      48.810   5.934  12.930  0.00  0.00    +0.000 OA
ATOM     24  H   UNL     1      47.286   8.651  13.457  0.00  0.00    +0.000 HD
BRANCH  22  25
ATOM     25  C   UNL     1      46.529   6.361  12.525  0.00  0.00    +0.000 A 
ATOM     26  C   UNL     1      45.719   7.342  11.973  0.00  0.00    +0.000 A 
ATOM     27  S   UNL     1      44.236   6.744  11.377  0.00  0.00    +0.000 S 
ATOM     28  C   UNL     1      44.605   5.166  11.891  0.00  0.00    +0.000 A 
ATOM     29  N   UNL     1      43.729   4.142  11.693  0.00  0.00    +0.000 NA
ATOM     30  C   UNL     1      44.125   3.007  12.158  0.00  0.00    +0.000 A 
ATOM     31  N   UNL     1      45.315   2.794  12.804  0.00  0.00    +0.000 N 
ATOM     32  C   UNL     1      46.238   3.793  13.010  0.00  0.00    +0.000 A 
ATOM     33  O   UNL     1      47.305   3.567  13.572  0.00  0.00    +0.000 OA
ATOM     34  C   UNL     1      45.841   5.090  12.500  0.00  0.00    +0.000 A 
ATOM     35  H   UNL     1      45.565   1.878  13.145  0.00  0.00    +0.000 HD
ENDBRANCH  22  25
ENDBRANCH  20  21
ENDBRANCH   4  20
TORSDOF 9
ENDMDL
MODEL 8
REMARK VINA RESULT:    -6.460      3.620      8.703
REMARK INTER + INTRA:         -11.163
REMARK INTER:                  -8.366
REMARK INTRA:                  -2.797
REMARK UNBOUND:                -1.304
REMARK  Name = 
REMARK  10 active torsions:
REMARK  status: ('A' for Active; 'I' for Inactive)
REMARK    1  A    between atoms: C_1  and  C_2
REMARK    2  A    between atoms: C_2  and  C_3
REMARK    3  A    between atoms: C_3  and  C_4
REMARK    4  A    between atoms: C_4  and  N_5
REMARK    5  A    between atoms: C_4  and  C_13
REMARK    6  A    between atoms: N_5  and  C_6
REMARK    7  A    between atoms: C_6  and  C_7
REMARK    8  A    between atoms: C_16  and  C_17
REMARK    9  A    between atoms: C_17  and  N_18
REMARK   10  A    between atoms: C_19  and  C_21
REMARK                            x       y       z     vdW  Elec       q    Type
REMARK                         _______ _______ _______ _____ _____    ______ ____
ROOT
ATOM      1  C   UNL     1      51.350   6.915  17.363  0.00  0.00    +0.000 A 
ATOM      2  C   UNL     1      50.432   7.725  18.057  0.00  0.00    +0.000 A 
ATOM      3  C   UNL     1      49.486   8.498  17.374  0.00  0.00    +0.000 A 
ATOM      4  C   UNL     1      49.385   8.419  15.981  0.00  0.00    +0.000 A 
ATOM      5  C   UNL     1      50.300   7.628  15.282  0.00  0.00    +0.000 A 
ATOM      6  C   UNL     1      51.279   6.903  15.962  0.00  0.00    +0.000 A 
ENDROOT
BRANCH   1   7
ATOM      7  C   UNL     1      52.434   6.138  18.129  0.00  0.00    +0.000 C 
BRANCH   7   8
ATOM      8  N   UNL     1      51.852   5.059  18.966  0.00  0.00    +0.000 NA
ATOM      9  H   UNL     1      50.960   5.380  19.340  0.00  0.00    +0.000 HD
BRANCH   8  10
ATOM     10  C   UNL     1      51.610   3.847  18.166  0.00  0.00    +0.000 C 
BRANCH  10  11
ATOM     11  C   UNL     1      50.168   3.500  17.873  0.00  0.00    +0.000 A 
ATOM     12  C   UNL     1      49.157   4.322  18.408  0.00  0.00    +0.000 A 
ATOM     13  C   UNL     1      47.825   4.167  18.026  0.00  0.00    +0.000 A 
ATOM     14  C   UNL     1      47.485   3.184  17.103  0.00  0.00    +0.000 A 
ATOM     15  C   UNL     1      48.473   2.346  16.582  0.00  0.00    +0.000 A 
ATOM     16  C   UNL     1      49.809   2.501  16.965  0.00  0.00    +0.000 A 
ENDBRANCH  10  11
ENDBRANCH   8  10
ENDBRANCH   7   8
BRANCH   7  17
ATOM     17  C   UNL     1      53.304   7.126  18.957  0.00  0.00    +0.000 C 
BRANCH  17  19
ATOM     18  C   UNL     1      53.765   9.508  18.352  0.00  0.00    +0.000 C 
ATOM     19  C   UNL     1      54.237   8.062  18.185  0.00  0.00    +0.000 C 
ENDBRANCH  17  19
ENDBRANCH   7  17
ENDBRANCH   1   7
BRANCH   4  20
ATOM     20  C   UNL     1      48.337   9.189  15.226  0.00  0.00    +0.000 C 
BRANCH  20  21
ATOM     21  N   UNL     1      47.380   8.302  14.620  0.00  0.00    +0.000 N 
ATOM     22  C   UNL     1      47.299   8.187  13.255  0.00  0.00    +0.000 C 
ATOM     23  O   UNL     1      48.062   8.791  12.505  0.00  0.00    +0.000 OA
ATOM     24  H   UNL     1      46.593   8.012  15.192  0.00  0.00    +0.000 HD
BRANCH  22  25
ATOM     25  C   UNL     1      46.296   7.250  12.738  0.00  0.00    +0.000 A 
ATOM     26  C   UNL     1      45.236   7.728  11.982  0.00  0.00    +0.000 A 
ATOM     27  S   UNL     1      44.212   6.499  11.391  0.00  0.00    +0.000 S 
ATOM     28  C   UNL     1      45.119   5.293  12.176  0.00  0.00    +0.000 A 
ATOM     29  N   UNL     1      44.766   3.981  12.086  0.00  0.00    +0.000 NA
ATOM     30  C   UNL     1      45.524   3.180  12.752  0.00  0.00    +0.000 A 
ATOM     31  N   UNL     1      46.605   3.564  13.503  0.00  0.00    +0.000 N 
ATOM     32  C   UNL     1      47.010   4.874  13.608  0.00  0.00    +0.000 A 
ATOM     33  O   UNL     1      47.995   5.184  14.270  0.00  0.00    +0.000 OA
ATOM     34  C   UNL     1      46.191   5.815  12.871  0.00  0.00    +0.000 A 
ATOM     35  H   UNL     1      47.159   2.884  14.002  0.00  0.00    +0.000 HD
ENDBRANCH  22  25
ENDBRANCH  20  21
ENDBRANCH   4  20
TORSDOF 9
ENDMDL
MODEL 9
REMARK VINA RESULT:    -6.337      5.637      7.935
REMARK INTER + INTRA:         -10.976
REMARK INTER:                  -9.212
REMARK INTRA:                  -1.764
REMARK UNBOUND:                -1.304
REMARK  Name = 
REMARK  10 active torsions:
REMARK  status: ('A' for Active; 'I' for Inactive)
REMARK    1  A    between atoms: C_1  and  C_2
REMARK    2  A    between atoms: C_2  and  C_3
REMARK    3  A    between atoms: C_3  and  C_4
REMARK    4  A    between atoms: C_4  and  N_5
REMARK    5  A    between atoms: C_4  and  C_13
REMARK    6  A    between atoms: N_5  and  C_6
REMARK    7  A    between atoms: C_6  and  C_7
REMARK    8  A    between atoms: C_16  and  C_17
REMARK    9  A    between atoms: C_17  and  N_18
REMARK   10  A    between atoms: C_19  and  C_21
REMARK                            x       y       z     vdW  Elec       q    Type
REMARK                         _______ _______ _______ _____ _____    ______ ____
ROOT
ATOM      1  C   UNL     1      47.317   7.997  12.655  0.00  0.00    +0.000 A 
ATOM      2  C   UNL     1      48.087   8.885  13.427  0.00  0.00    +0.000 A 
ATOM      3  C   UNL     1      49.460   9.041  13.200  0.00  0.00    +0.000 A 
ATOM      4  C   UNL     1      50.080   8.368  12.142  0.00  0.00    +0.000 A 
ATOM      5  C   UNL     1      49.326   7.474  11.378  0.00  0.00    +0.000 A 
ATOM      6  C   UNL     1      47.971   7.278  11.642  0.00  0.00    +0.000 A 
ENDROOT
BRANCH   1   7
ATOM      7  C   UNL     1      45.828   7.779  12.975  0.00  0.00    +0.000 C 
BRANCH   7   8
ATOM      8  N   UNL     1      45.493   6.338  13.090  0.00  0.00    +0.000 NA
ATOM      9  H   UNL     1      45.180   6.150  14.041  0.00  0.00    +0.000 HD
BRANCH   8  10
ATOM     10  C   UNL     1      44.407   5.976  12.165  0.00  0.00    +0.000 C 
BRANCH  10  11
ATOM     11  C   UNL     1      44.749   5.002  11.060  0.00  0.00    +0.000 A 
ATOM     12  C   UNL     1      44.214   3.700  11.122  0.00  0.00    +0.000 A 
ATOM     13  C   UNL     1      44.339   2.818  10.049  0.00  0.00    +0.000 A 
ATOM     14  C   UNL     1      45.002   3.227   8.897  0.00  0.00    +0.000 A 
ATOM     15  C   UNL     1      45.558   4.506   8.830  0.00  0.00    +0.000 A 
ATOM     16  C   UNL     1      45.433   5.391   9.905  0.00  0.00    +0.000 A 
ENDBRANCH  10  11
ENDBRANCH   8  10
ENDBRANCH   7   8
BRANCH   7  17
ATOM     17  C   UNL     1      44.952   8.509  11.917  0.00  0.00    +0.000 C 
BRANCH  17  19
ATOM     18  C   UNL     1      44.557  10.654  10.694  0.00  0.00    +0.000 C 
ATOM     19  C   UNL     1      44.771  10.020  12.070  0.00  0.00    +0.000 C 
ENDBRANCH  17  19
ENDBRANCH   7  17
ENDBRANCH   1   7
BRANCH   4  20
ATOM     20  C   UNL     1      51.539   8.565  11.835  0.00  0.00    +0.000 C 
BRANCH  20  21
ATOM     21  N   UNL     1      51.850   8.125  10.501  0.00  0.00    +0.000 N 
ATOM     22  C   UNL     1      52.811   8.765   9.760  0.00  0.00    +0.000 C 
ATOM     23  O   UNL     1      53.470   9.696  10.214  0.00  0.00    +0.000 OA
ATOM     24  H   UNL     1      51.156   7.554  10.030  0.00  0.00    +0.000 HD
BRANCH  22  25
ATOM     25  C   UNL     1      53.058   8.234   8.415  0.00  0.00    +0.000 A 
ATOM     26  C   UNL     1      52.975   9.079   7.318  0.00  0.00    +0.000 A 
ATOM     27  S   UNL     1      53.373   8.320   5.842  0.00  0.00    +0.000 S 
ATOM     28  C   UNL     1      53.611   6.824   6.616  0.00  0.00    +0.000 A 
ATOM     29  N   UNL     1      53.967   5.718   5.906  0.00  0.00    +0.000 NA
ATOM     30  C   UNL     1      54.085   4.647   6.614  0.00  0.00    +0.000 A 
ATOM     31  N   UNL     1      53.882   4.574   7.968  0.00  0.00    +0.000 N 
ATOM     32  C   UNL     1      53.540   5.668   8.729  0.00  0.00    +0.000 A 
ATOM     33  O   UNL     1      53.387   5.577   9.942  0.00  0.00    +0.000 OA
ATOM     34  C   UNL     1      53.399   6.900   7.977  0.00  0.00    +0.000 A 
ATOM     35  H   UNL     1      53.991   3.703   8.464  0.00  0.00    +0.000 HD
ENDBRANCH  22  25
ENDBRANCH  20  21
ENDBRANCH   4  20
TORSDOF 9
ENDMDL
