MODEL 1
REMARK VINA RESULT:    -7.426      0.000      0.000
REMARK INTER + INTRA:         -12.114
REMARK INTER:                 -11.117
REMARK INTRA:                  -0.998
REMARK UNBOUND:                -0.998
REMARK  Name = 
REMARK  11 active torsions:
REMARK  status: ('A' for Active; 'I' for Inactive)
REMARK    1  A    between atoms: C_1  and  C_2
REMARK    2  A    between atoms: C_4  and  C_5
REMARK    3  A    between atoms: C_5  and  C_6
REMARK    4  A    between atoms: C_6  and  N_7
REMARK    5  A    between atoms: C_11  and  C_12
REMARK    6  A    between atoms: C_18  and  C_19
REMARK    7  A    between atoms: C_20  and  O_21
REMARK    8  A    between atoms: O_21  and  C_22
REMARK    9  A    between atoms: N_24  and  C_25
REMARK   10  A    between atoms: C_25  and  C_26
REMARK   11  A    between atoms: C_26  and  O_27
REMARK                            x       y       z     vdW  Elec       q    Type
REMARK                         _______ _______ _______ _____ _____    ______ ____
ROOT
ATOM      1  C   UNL     1      47.312   4.329  15.182  0.00  0.00    +0.000 C 
ATOM      2  C   UNL     1      47.016   5.153  13.960  0.00  0.00    +0.000 A 
ATOM      3  C   UNL     1      45.683   5.042  13.510  0.00  0.00    +0.000 A 
ATOM      4  C   UNL     1      45.162   5.724  12.404  0.00  0.00    +0.000 A 
ATOM      5  C   UNL     1      46.036   6.550  11.704  0.00  0.00    +0.000 A 
ATOM      6  C   UNL     1      47.379   6.696  12.118  0.00  0.00    +0.000 A 
ATOM      7  C   UNL     1      48.290   7.593  11.315  0.00  0.00    +0.000 C 
ATOM      8  C   UNL     1      47.875   6.009  13.261  0.00  0.00    +0.000 A 
ENDROOT
BRANCH   4   9
ATOM      9  C   UNL     1      43.702   5.570  11.987  0.00  0.00    +0.000 C 
BRANCH   9  10
ATOM     10  C   UNL     1      43.540   4.923  10.603  0.00  0.00    +0.000 C 
BRANCH  10  11
ATOM     11  N   UNL     1      43.893   3.503  10.541  0.00  0.00    +0.000 N 
ATOM     12  C   UNL     1      44.791   3.275   9.464  0.00  0.00    +0.000 A 
ATOM     13  C   UNL     1      45.245   1.981   9.240  0.00  0.00    +0.000 A 
ATOM     14  C   UNL     1      46.115   1.732   8.165  0.00  0.00    +0.000 A 
ATOM     15  C   UNL     1      46.508   2.785   7.342  0.00  0.00    +0.000 A 
ATOM     16  C   UNL     1      46.019   4.046   7.635  0.00  0.00    +0.000 A 
ATOM     17  N   UNL     1      45.191   4.303   8.681  0.00  0.00    +0.000 NA
ATOM     18  H   UNL     1      43.075   2.915  10.397  0.00  0.00    +0.000 HD
BRANCH  15  19
ATOM     19  C   UNL     1      47.373   2.613   6.156  0.00  0.00    +0.000 C 
ATOM     20  N   UNL     1      48.722   2.504   6.376  0.00  0.00    +0.000 N 
ATOM     21  O   UNL     1      46.914   2.577   5.030  0.00  0.00    +0.000 OA
ATOM     22  H   UNL     1      49.159   2.710   7.263  0.00  0.00    +0.000 HD
ATOM     23  H   UNL     1      49.311   2.444   5.557  0.00  0.00    +0.000 HD
ENDBRANCH  15  19
ENDBRANCH  10  11
ENDBRANCH   9  10
ENDBRANCH   4   9
BRANCH   8  24
ATOM     24  O   UNL     1      49.156   6.390  13.596  0.00  0.00    +0.000 OA
BRANCH  24  25
ATOM     25  C   UNL     1      49.467   7.402  14.575  0.00  0.00    +0.000 C 
ATOM     26  C   UNL     1      49.653   6.855  16.017  0.00  0.00    +0.000 C 
ATOM     27  N   UNL     1      48.569   7.717  16.519  0.00  0.00    +0.000 NA
ATOM     28  C   UNL     1      48.324   8.248  15.164  0.00  0.00    +0.000 C 
BRANCH  27  29
ATOM     29  C   UNL     1      49.115   8.758  17.412  0.00  0.00    +0.000 C 
BRANCH  29  30
ATOM     30  C   UNL     1      48.221   8.963  18.647  0.00  0.00    +0.000 C 
BRANCH  30  31
ATOM     31  O   UNL     1      47.119   8.061  18.642  0.00  0.00    +0.000 OA
ATOM     32  H   UNL     1      47.513   7.167  18.664  0.00  0.00    +0.000 HD
ENDBRANCH  30  31
ENDBRANCH  29  30
ENDBRANCH  27  29
ENDBRANCH  24  25
ENDBRANCH   8  24
TORSDOF 9
ENDMDL
MODEL 2
REMARK VINA RESULT:    -7.049      1.295      2.237
REMARK INTER + INTRA:         -11.549
REMARK INTER:                 -10.797
REMARK INTRA:                  -0.752
REMARK UNBOUND:                -0.998
REMARK  Name = 
REMARK  11 active torsions:
REMARK  status: ('A' for Active; 'I' for Inactive)
REMARK    1  A    between atoms: C_1  and  C_2
REMARK    2  A    between atoms: C_4  and  C_5
REMARK    3  A    between atoms: C_5  and  C_6
REMARK    4  A    between atoms: C_6  and  N_7
REMARK    5  A    between atoms: C_11  and  C_12
REMARK    6  A    between atoms: C_18  and  C_19
REMARK    7  A    between atoms: C_20  and  O_21
REMARK    8  A    between atoms: O_21  and  C_22
REMARK    9  A    between atoms: N_24  and  C_25
REMARK   10  A    between atoms: C_25  and  C_26
REMARK   11  A    between atoms: C_26  and  O_27
REMARK                            x       y       z     vdW  Elec       q    Type
REMARK                         _______ _______ _______ _____ _____    ______ ____
ROOT
ATOM      1  C   UNL     1      47.297   8.147  11.834  0.00  0.00    +0.000 C 
ATOM      2  C   UNL     1      46.739   6.954  12.560  0.00  0.00    +0.000 A 
ATOM      3  C   UNL     1      45.410   6.644  12.204  0.00  0.00    +0.000 A 
ATOM      4  C   UNL     1      44.680   5.570  12.729  0.00  0.00    +0.000 A 
ATOM      5  C   UNL     1      45.319   4.777  13.677  0.00  0.00    +0.000 A 
ATOM      6  C   UNL     1      46.652   5.047  14.064  0.00  0.00    +0.000 A 
ATOM      7  C   UNL     1      47.294   4.166  15.107  0.00  0.00    +0.000 C 
ATOM      8  C   UNL     1      47.377   6.131  13.495  0.00  0.00    +0.000 A 
ENDROOT
BRANCH   4   9
ATOM      9  C   UNL     1      43.249   5.283  12.281  0.00  0.00    +0.000 C 
BRANCH   9  10
ATOM     10  C   UNL     1      43.183   4.444  10.996  0.00  0.00    +0.000 C 
BRANCH  10  11
ATOM     11  N   UNL     1      43.911   5.003   9.855  0.00  0.00    +0.000 N 
ATOM     12  C   UNL     1      44.663   3.982   9.215  0.00  0.00    +0.000 A 
ATOM     13  C   UNL     1      45.427   4.318   8.103  0.00  0.00    +0.000 A 
ATOM     14  C   UNL     1      46.196   3.326   7.470  0.00  0.00    +0.000 A 
ATOM     15  C   UNL     1      46.182   2.025   7.967  0.00  0.00    +0.000 A 
ATOM     16  C   UNL     1      45.391   1.769   9.074  0.00  0.00    +0.000 A 
ATOM     17  N   UNL     1      44.629   2.714   9.684  0.00  0.00    +0.000 NA
ATOM     18  H   UNL     1      44.557   5.736  10.140  0.00  0.00    +0.000 HD
BRANCH  15  19
ATOM     19  C   UNL     1      46.999   0.930   7.406  0.00  0.00    +0.000 C 
ATOM     20  N   UNL     1      47.911   1.262   6.436  0.00  0.00    +0.000 N 
ATOM     21  O   UNL     1      46.869  -0.221   7.778  0.00  0.00    +0.000 OA
ATOM     22  H   UNL     1      47.925   2.159   5.971  0.00  0.00    +0.000 HD
ATOM     23  H   UNL     1      48.424   0.500   6.017  0.00  0.00    +0.000 HD
ENDBRANCH  15  19
ENDBRANCH  10  11
ENDBRANCH   9  10
ENDBRANCH   4   9
BRANCH   8  24
ATOM     24  O   UNL     1      48.701   6.145  13.880  0.00  0.00    +0.000 OA
BRANCH  24  25
ATOM     25  C   UNL     1      49.338   7.259  14.536  0.00  0.00    +0.000 C 
ATOM     26  C   UNL     1      50.184   6.866  15.779  0.00  0.00    +0.000 C 
ATOM     27  N   UNL     1      49.374   7.739  16.646  0.00  0.00    +0.000 NA
ATOM     28  C   UNL     1      48.517   8.124  15.509  0.00  0.00    +0.000 C 
BRANCH  27  29
ATOM     29  C   UNL     1      50.183   8.881  17.118  0.00  0.00    +0.000 C 
BRANCH  29  30
ATOM     30  C   UNL     1      50.215   8.948  18.655  0.00  0.00    +0.000 C 
BRANCH  30  31
ATOM     31  O   UNL     1      49.109   9.690  19.162  0.00  0.00    +0.000 OA
ATOM     32  H   UNL     1      48.875  10.323  18.456  0.00  0.00    +0.000 HD
ENDBRANCH  30  31
ENDBRANCH  29  30
ENDBRANCH  27  29
ENDBRANCH  24  25
ENDBRANCH   8  24
TORSDOF 9
ENDMDL
MODEL 3
REMARK VINA RESULT:    -6.513      1.682      2.309
REMARK INTER + INTRA:         -10.746
REMARK INTER:                  -9.975
REMARK INTRA:                  -0.771
REMARK UNBOUND:                -0.998
REMARK  Name = 
REMARK  11 active torsions:
REMARK  status: ('A' for Active; 'I' for Inactive)
REMARK    1  A    between atoms: C_1  and  C_2
REMARK    2  A    between atoms: C_4  and  C_5
REMARK    3  A    between atoms: C_5  and  C_6
REMARK    4  A    between atoms: C_6  and  N_7
REMARK    5  A    between atoms: C_11  and  C_12
REMARK    6  A    between atoms: C_18  and  C_19
REMARK    7  A    between atoms: C_20  and  O_21
REMARK    8  A    between atoms: O_21  and  C_22
REMARK    9  A    between atoms: N_24  and  C_25
REMARK   10  A    between atoms: C_25  and  C_26
REMARK   11  A    between atoms: C_26  and  O_27
REMARK                            x       y       z     vdW  Elec       q    Type
REMARK                         _______ _______ _______ _____ _____    ______ ____
ROOT
ATOM      1  C   UNL     1      47.919   8.735  13.154  0.00  0.00    +0.000 C 
ATOM      2  C   UNL     1      47.259   7.390  13.283  0.00  0.00    +0.000 A 
ATOM      3  C   UNL     1      46.047   7.281  12.570  0.00  0.00    +0.000 A 
ATOM      4  C   UNL     1      45.258   6.125  12.521  0.00  0.00    +0.000 A 
ATOM      5  C   UNL     1      45.707   5.024  13.243  0.00  0.00    +0.000 A 
ATOM      6  C   UNL     1      46.918   5.084  13.971  0.00  0.00    +0.000 A 
ATOM      7  C   UNL     1      47.353   3.867  14.750  0.00  0.00    +0.000 C 
ATOM      8  C   UNL     1      47.712   6.265  13.983  0.00  0.00    +0.000 A 
ENDROOT
BRANCH   4   9
ATOM      9  C   UNL     1      43.966   6.076  11.710  0.00  0.00    +0.000 C 
BRANCH   9  10
ATOM     10  C   UNL     1      44.144   5.400  10.342  0.00  0.00    +0.000 C 
BRANCH  10  11
ATOM     11  N   UNL     1      44.141   3.936  10.371  0.00  0.00    +0.000 N 
ATOM     12  C   UNL     1      44.983   3.431   9.344  0.00  0.00    +0.000 A 
ATOM     13  C   UNL     1      45.113   2.054   9.209  0.00  0.00    +0.000 A 
ATOM     14  C   UNL     1      45.923   1.535   8.184  0.00  0.00    +0.000 A 
ATOM     15  C   UNL     1      46.580   2.408   7.322  0.00  0.00    +0.000 A 
ATOM     16  C   UNL     1      46.406   3.766   7.526  0.00  0.00    +0.000 A 
ATOM     17  N   UNL     1      45.641   4.280   8.522  0.00  0.00    +0.000 NA
ATOM     18  H   UNL     1      43.208   3.556  10.227  0.00  0.00    +0.000 HD
BRANCH  15  19
ATOM     19  C   UNL     1      47.407   1.958   6.182  0.00  0.00    +0.000 C 
ATOM     20  N   UNL     1      48.132   2.915   5.518  0.00  0.00    +0.000 N 
ATOM     21  O   UNL     1      47.439   0.793   5.837  0.00  0.00    +0.000 OA
ATOM     22  H   UNL     1      47.996   3.907   5.650  0.00  0.00    +0.000 HD
ATOM     23  H   UNL     1      48.649   2.608   4.705  0.00  0.00    +0.000 HD
ENDBRANCH  15  19
ENDBRANCH  10  11
ENDBRANCH   9  10
ENDBRANCH   4   9
BRANCH   8  24
ATOM     24  O   UNL     1      48.922   6.085  14.617  0.00  0.00    +0.000 OA
BRANCH  24  25
ATOM     25  C   UNL     1      49.254   6.660  15.897  0.00  0.00    +0.000 C 
ATOM     26  C   UNL     1      50.122   5.740  16.800  0.00  0.00    +0.000 C 
ATOM     27  N   UNL     1      49.098   5.761  17.859  0.00  0.00    +0.000 NA
ATOM     28  C   UNL     1      48.217   6.608  17.033  0.00  0.00    +0.000 C 
BRANCH  27  29
ATOM     29  C   UNL     1      49.597   6.497  19.038  0.00  0.00    +0.000 C 
BRANCH  29  30
ATOM     30  C   UNL     1      49.603   5.607  20.294  0.00  0.00    +0.000 C 
BRANCH  30  31
ATOM     31  O   UNL     1      50.408   4.448  20.101  0.00  0.00    +0.000 OA
ATOM     32  H   UNL     1      50.427   3.998  20.968  0.00  0.00    +0.000 HD
ENDBRANCH  30  31
ENDBRANCH  29  30
ENDBRANCH  27  29
ENDBRANCH  24  25
ENDBRANCH   8  24
TORSDOF 9
ENDMDL
MODEL 4
REMARK VINA RESULT:    -6.228      2.347      8.920
REMARK INTER + INTRA:         -10.321
REMARK INTER:                  -9.363
REMARK INTRA:                  -0.957
REMARK UNBOUND:                -0.998
REMARK  Name = 
REMARK  11 active torsions:
REMARK  status: ('A' for Active; 'I' for Inactive)
REMARK    1  A    between atoms: C_1  and  C_2
REMARK    2  A    between atoms: C_4  and  C_5
REMARK    3  A    between atoms: C_5  and  C_6
REMARK    4  A    between atoms: C_6  and  N_7
REMARK    5  A    between atoms: C_11  and  C_12
REMARK    6  A    between atoms: C_18  and  C_19
REMARK    7  A    between atoms: C_20  and  O_21
REMARK    8  A    between atoms: O_21  and  C_22
REMARK    9  A    between atoms: N_24  and  C_25
REMARK   10  A    between atoms: C_25  and  C_26
REMARK   11  A    between atoms: C_26  and  O_27
REMARK                            x       y       z     vdW  Elec       q    Type
REMARK                         _______ _______ _______ _____ _____    ______ ____
ROOT
ATOM      1  C   UNL     1      46.447   3.971  13.569  0.00  0.00    +0.000 C 
ATOM      2  C   UNL     1      46.463   5.388  13.064  0.00  0.00    +0.000 A 
ATOM      3  C   UNL     1      47.707   6.034  13.226  0.00  0.00    +0.000 A 
ATOM      4  C   UNL     1      47.975   7.347  12.820  0.00  0.00    +0.000 A 
ATOM      5  C   UNL     1      46.929   8.052  12.234  0.00  0.00    +0.000 A 
ATOM      6  C   UNL     1      45.665   7.445  12.047  0.00  0.00    +0.000 A 
ATOM      7  C   UNL     1      44.559   8.258  11.420  0.00  0.00    +0.000 C 
ATOM      8  C   UNL     1      45.428   6.101  12.448  0.00  0.00    +0.000 A 
ENDROOT
BRANCH   4   9
ATOM      9  C   UNL     1      49.353   7.974  13.010  0.00  0.00    +0.000 C 
BRANCH   9  10
ATOM     10  C   UNL     1      49.999   7.603  14.354  0.00  0.00    +0.000 C 
BRANCH  10  11
ATOM     11  N   UNL     1      49.380   8.222  15.528  0.00  0.00    +0.000 N 
ATOM     12  C   UNL     1      49.230   7.257  16.560  0.00  0.00    +0.000 A 
ATOM     13  C   UNL     1      48.658   7.655  17.763  0.00  0.00    +0.000 A 
ATOM     14  C   UNL     1      48.479   6.709  18.787  0.00  0.00    +0.000 A 
ATOM     15  C   UNL     1      48.877   5.391  18.580  0.00  0.00    +0.000 A 
ATOM     16  C   UNL     1      49.446   5.076  17.358  0.00  0.00    +0.000 A 
ATOM     17  N   UNL     1      49.639   5.983  16.367  0.00  0.00    +0.000 NA
ATOM     18  H   UNL     1      48.459   8.600  15.316  0.00  0.00    +0.000 HD
BRANCH  15  19
ATOM     19  C   UNL     1      48.679   4.315  19.574  0.00  0.00    +0.000 C 
ATOM     20  N   UNL     1      48.420   3.057  19.092  0.00  0.00    +0.000 N 
ATOM     21  O   UNL     1      48.735   4.531  20.769  0.00  0.00    +0.000 OA
ATOM     22  H   UNL     1      48.185   2.869  18.128  0.00  0.00    +0.000 HD
ATOM     23  H   UNL     1      48.229   2.340  19.778  0.00  0.00    +0.000 HD
ENDBRANCH  15  19
ENDBRANCH  10  11
ENDBRANCH   9  10
ENDBRANCH   4   9
BRANCH   8  24
ATOM     24  O   UNL     1      44.193   5.638  12.051  0.00  0.00    +0.000 OA
BRANCH  24  25
ATOM     25  C   UNL     1      43.970   4.849  10.865  0.00  0.00    +0.000 C 
ATOM     26  C   UNL     1      43.949   3.316  11.117  0.00  0.00    +0.000 C 
ATOM     27  N   UNL     1      45.065   3.113  10.177  0.00  0.00    +0.000 NA
ATOM     28  C   UNL     1      45.153   4.564   9.923  0.00  0.00    +0.000 C 
BRANCH  27  29
ATOM     29  C   UNL     1      44.598   2.387   8.979  0.00  0.00    +0.000 C 
BRANCH  29  30
ATOM     30  C   UNL     1      45.689   1.453   8.429  0.00  0.00    +0.000 C 
BRANCH  30  31
ATOM     31  O   UNL     1      46.674   2.182   7.701  0.00  0.00    +0.000 OA
ATOM     32  H   UNL     1      46.425   2.088   6.761  0.00  0.00    +0.000 HD
ENDBRANCH  30  31
ENDBRANCH  29  30
ENDBRANCH  27  29
ENDBRANCH  24  25
ENDBRANCH   8  24
TORSDOF 9
ENDMDL
MODEL 5
REMARK VINA RESULT:    -6.143      1.762      2.168
REMARK INTER + INTRA:         -10.193
REMARK INTER:                  -9.327
REMARK INTRA:                  -0.866
REMARK UNBOUND:                -0.998
REMARK  Name = 
REMARK  11 active torsions:
REMARK  status: ('A' for Active; 'I' for Inactive)
REMARK    1  A    between atoms: C_1  and  C_2
REMARK    2  A    between atoms: C_4  and  C_5
REMARK    3  A    between atoms: C_5  and  C_6
REMARK    4  A    between atoms: C_6  and  N_7
REMARK    5  A    between atoms: C_11  and  C_12
REMARK    6  A    between atoms: C_18  and  C_19
REMARK    7  A    between atoms: C_20  and  O_21
REMARK    8  A    between atoms: O_21  and  C_22
REMARK    9  A    between atoms: N_24  and  C_25
REMARK   10  A    between atoms: C_25  and  C_26
REMARK   11  A    between atoms: C_26  and  O_27
REMARK                            x       y       z     vdW  Elec       q    Type
REMARK                         _______ _______ _______ _____ _____    ______ ____
ROOT
ATOM      1  C   UNL     1      48.718   6.499  12.520  0.00  0.00    +0.000 C 
ATOM      2  C   UNL     1      47.397   7.183  12.301  0.00  0.00    +0.000 A 
ATOM      3  C   UNL     1      46.300   6.296  12.253  0.00  0.00    +0.000 A 
ATOM      4  C   UNL     1      44.969   6.693  12.077  0.00  0.00    +0.000 A 
ATOM      5  C   UNL     1      44.732   8.056  11.923  0.00  0.00    +0.000 A 
ATOM      6  C   UNL     1      45.799   8.983  11.967  0.00  0.00    +0.000 A 
ATOM      7  C   UNL     1      45.490  10.448  11.780  0.00  0.00    +0.000 C 
ATOM      8  C   UNL     1      47.139   8.553  12.172  0.00  0.00    +0.000 A 
ENDROOT
BRANCH   4   9
ATOM      9  C   UNL     1      43.830   5.677  12.056  0.00  0.00    +0.000 C 
BRANCH   9  10
ATOM     10  C   UNL     1      43.546   5.127  10.650  0.00  0.00    +0.000 C 
BRANCH  10  11
ATOM     11  N   UNL     1      43.665   3.673  10.520  0.00  0.00    +0.000 N 
ATOM     12  C   UNL     1      44.659   3.354   9.557  0.00  0.00    +0.000 A 
ATOM     13  C   UNL     1      44.920   2.015   9.291  0.00  0.00    +0.000 A 
ATOM     14  C   UNL     1      45.884   1.679   8.325  0.00  0.00    +0.000 A 
ATOM     15  C   UNL     1      46.561   2.692   7.650  0.00  0.00    +0.000 A 
ATOM     16  C   UNL     1      46.249   4.001   7.977  0.00  0.00    +0.000 A 
ATOM     17  N   UNL     1      45.333   4.339   8.920  0.00  0.00    +0.000 NA
ATOM     18  H   UNL     1      42.791   3.247  10.220  0.00  0.00    +0.000 HD
BRANCH  15  19
ATOM     19  C   UNL     1      47.548   2.440   6.580  0.00  0.00    +0.000 C 
ATOM     20  N   UNL     1      47.391   3.133   5.406  0.00  0.00    +0.000 N 
ATOM     21  O   UNL     1      48.458   1.646   6.724  0.00  0.00    +0.000 OA
ATOM     22  H   UNL     1      46.558   3.655   5.177  0.00  0.00    +0.000 HD
ATOM     23  H   UNL     1      48.036   2.912   4.660  0.00  0.00    +0.000 HD
ENDBRANCH  15  19
ENDBRANCH  10  11
ENDBRANCH   9  10
ENDBRANCH   4   9
BRANCH   8  24
ATOM     24  O   UNL     1      48.016   9.604  12.335  0.00  0.00    +0.000 OA
BRANCH  24  25
ATOM     25  C   UNL     1      48.510  10.051  13.613  0.00  0.00    +0.000 C 
ATOM     26  C   UNL     1      49.969   9.611  13.919  0.00  0.00    +0.000 C 
ATOM     27  N   UNL     1      49.535   8.905  15.137  0.00  0.00    +0.000 NA
ATOM     28  C   UNL     1      48.127   9.265  14.880  0.00  0.00    +0.000 C 
BRANCH  27  29
ATOM     29  C   UNL     1      50.053   9.591  16.337  0.00  0.00    +0.000 C 
BRANCH  29  30
ATOM     30  C   UNL     1      50.666   8.592  17.334  0.00  0.00    +0.000 C 
BRANCH  30  31
ATOM     31  O   UNL     1      49.900   7.392  17.398  0.00  0.00    +0.000 OA
ATOM     32  H   UNL     1      50.377   6.812  18.023  0.00  0.00    +0.000 HD
ENDBRANCH  30  31
ENDBRANCH  29  30
ENDBRANCH  27  29
ENDBRANCH  24  25
ENDBRANCH   8  24
TORSDOF 9
ENDMDL
MODEL 6
REMARK VINA RESULT:    -5.954      3.959      5.918
REMARK INTER + INTRA:          -9.910
REMARK INTER:                  -8.621
REMARK INTRA:                  -1.288
REMARK UNBOUND:                -0.998
REMARK  Name = 
REMARK  11 active torsions:
REMARK  status: ('A' for Active; 'I' for Inactive)
REMARK    1  A    between atoms: C_1  and  C_2
REMARK    2  A    between atoms: C_4  and  C_5
REMARK    3  A    between atoms: C_5  and  C_6
REMARK    4  A    between atoms: C_6  and  N_7
REMARK    5  A    between atoms: C_11  and  C_12
REMARK    6  A    between atoms: C_18  and  C_19
REMARK    7  A    between atoms: C_20  and  O_21
REMARK    8  A    between atoms: O_21  and  C_22
REMARK    9  A    between atoms: N_24  and  C_25
REMARK   10  A    between atoms: C_25  and  C_26
REMARK   11  A    between atoms: C_26  and  O_27
REMARK                            x       y       z     vdW  Elec       q    Type
REMARK                         _______ _______ _______ _____ _____    ______ ____
ROOT
ATOM      1  C   UNL     1      47.747   8.837  17.771  0.00  0.00    +0.000 C 
ATOM      2  C   UNL     1      48.740   8.817  16.641  0.00  0.00    +0.000 A 
ATOM      3  C   UNL     1      48.320   9.537  15.503  0.00  0.00    +0.000 A 
ATOM      4  C   UNL     1      49.075   9.679  14.333  0.00  0.00    +0.000 A 
ATOM      5  C   UNL     1      50.315   9.048  14.303  0.00  0.00    +0.000 A 
ATOM      6  C   UNL     1      50.781   8.317  15.420  0.00  0.00    +0.000 A 
ATOM      7  C   UNL     1      52.126   7.638  15.331  0.00  0.00    +0.000 C 
ATOM      8  C   UNL     1      50.001   8.210  16.605  0.00  0.00    +0.000 A 
ENDROOT
BRANCH   4   9
ATOM      9  C   UNL     1      48.564  10.491  13.147  0.00  0.00    +0.000 C 
BRANCH   9  10
ATOM     10  C   UNL     1      47.990   9.613  12.025  0.00  0.00    +0.000 C 
BRANCH  10  11
ATOM     11  N   UNL     1      46.609   9.171  12.232  0.00  0.00    +0.000 N 
ATOM     12  C   UNL     1      46.590   7.790  12.565  0.00  0.00    +0.000 A 
ATOM     13  C   UNL     1      45.363   7.181  12.801  0.00  0.00    +0.000 A 
ATOM     14  C   UNL     1      45.321   5.811  13.109  0.00  0.00    +0.000 A 
ATOM     15  C   UNL     1      46.509   5.086  13.173  0.00  0.00    +0.000 A 
ATOM     16  C   UNL     1      47.690   5.765  12.932  0.00  0.00    +0.000 A 
ATOM     17  N   UNL     1      47.745   7.092  12.651  0.00  0.00    +0.000 NA
ATOM     18  H   UNL     1      46.041   9.300  11.397  0.00  0.00    +0.000 HD
BRANCH  15  19
ATOM     19  C   UNL     1      46.562   3.632  13.433  0.00  0.00    +0.000 C 
ATOM     20  N   UNL     1      45.711   2.834  12.711  0.00  0.00    +0.000 N 
ATOM     21  O   UNL     1      47.321   3.157  14.257  0.00  0.00    +0.000 OA
ATOM     22  H   UNL     1      44.946   3.195  12.159  0.00  0.00    +0.000 HD
ATOM     23  H   UNL     1      45.713   1.849  12.936  0.00  0.00    +0.000 HD
ENDBRANCH  15  19
ENDBRANCH  10  11
ENDBRANCH   9  10
ENDBRANCH   4   9
BRANCH   8  24
ATOM     24  O   UNL     1      50.679   7.591  17.634  0.00  0.00    +0.000 OA
BRANCH  24  25
ATOM     25  C   UNL     1      50.361   6.277  18.133  0.00  0.00    +0.000 C 
ATOM     26  C   UNL     1      51.307   5.156  17.618  0.00  0.00    +0.000 C 
ATOM     27  N   UNL     1      50.172   4.425  17.028  0.00  0.00    +0.000 NA
ATOM     28  C   UNL     1      49.231   5.475  17.464  0.00  0.00    +0.000 C 
BRANCH  27  29
ATOM     29  C   UNL     1      49.942   3.163  17.759  0.00  0.00    +0.000 C 
BRANCH  29  30
ATOM     30  C   UNL     1      50.390   1.946  16.931  0.00  0.00    +0.000 C 
BRANCH  30  31
ATOM     31  O   UNL     1      49.468   1.670  15.880  0.00  0.00    +0.000 OA
ATOM     32  H   UNL     1      49.964   1.825  15.052  0.00  0.00    +0.000 HD
ENDBRANCH  30  31
ENDBRANCH  29  30
ENDBRANCH  27  29
ENDBRANCH  24  25
ENDBRANCH   8  24
TORSDOF 9
ENDMDL
MODEL 7
REMARK VINA RESULT:    -5.755      2.295      9.250
REMARK INTER + INTRA:          -9.612
REMARK INTER:                  -8.617
REMARK INTRA:                  -0.995
REMARK UNBOUND:                -0.998
REMARK  Name = 
REMARK  11 active torsions:
REMARK  status: ('A' for Active; 'I' for Inactive)
REMARK    1  A    between atoms: C_1  and  C_2
REMARK    2  A    between atoms: C_4  and  C_5
REMARK    3  A    between atoms: C_5  and  C_6
REMARK    4  A    between atoms: C_6  and  N_7
REMARK    5  A    between atoms: C_11  and  C_12
REMARK    6  A    between atoms: C_18  and  C_19
REMARK    7  A    between atoms: C_20  and  O_21
REMARK    8  A    between atoms: O_21  and  C_22
REMARK    9  A    between atoms: N_24  and  C_25
REMARK   10  A    between atoms: C_25  and  C_26
REMARK   11  A    between atoms: C_26  and  O_27
REMARK                            x       y       z     vdW  Elec       q    Type
REMARK                         _______ _______ _______ _____ _____    ______ ____
ROOT
ATOM      1  C   UNL     1      44.126   8.914  11.052  0.00  0.00    +0.000 C 
ATOM      2  C   UNL     1      45.179   8.250  11.895  0.00  0.00    +0.000 A 
ATOM      3  C   UNL     1      46.244   9.104  12.251  0.00  0.00    +0.000 A 
ATOM      4  C   UNL     1      47.333   8.722  13.045  0.00  0.00    +0.000 A 
ATOM      5  C   UNL     1      47.358   7.404  13.489  0.00  0.00    +0.000 A 
ATOM      6  C   UNL     1      46.312   6.511  13.160  0.00  0.00    +0.000 A 
ATOM      7  C   UNL     1      46.395   5.087  13.653  0.00  0.00    +0.000 C 
ATOM      8  C   UNL     1      45.206   6.933  12.372  0.00  0.00    +0.000 A 
ENDROOT
BRANCH   4   9
ATOM      9  C   UNL     1      48.440   9.709  13.407  0.00  0.00    +0.000 C 
BRANCH   9  10
ATOM     10  C   UNL     1      49.104   9.392  14.756  0.00  0.00    +0.000 C 
BRANCH  10  11
ATOM     11  N   UNL     1      48.375   9.873  15.931  0.00  0.00    +0.000 N 
ATOM     12  C   UNL     1      48.281   8.837  16.899  0.00  0.00    +0.000 A 
ATOM     13  C   UNL     1      47.620   9.100  18.092  0.00  0.00    +0.000 A 
ATOM     14  C   UNL     1      47.498   8.081  19.052  0.00  0.00    +0.000 A 
ATOM     15  C   UNL     1      48.039   6.825  18.791  0.00  0.00    +0.000 A 
ATOM     16  C   UNL     1      48.689   6.643  17.583  0.00  0.00    +0.000 A 
ATOM     17  N   UNL     1      48.829   7.624  16.654  0.00  0.00    +0.000 NA
ATOM     18  H   UNL     1      47.430  10.168  15.696  0.00  0.00    +0.000 HD
BRANCH  15  19
ATOM     19  C   UNL     1      47.912   5.676  19.712  0.00  0.00    +0.000 C 
ATOM     20  N   UNL     1      47.138   5.853  20.831  0.00  0.00    +0.000 N 
ATOM     21  O   UNL     1      48.474   4.619  19.497  0.00  0.00    +0.000 OA
ATOM     22  H   UNL     1      46.808   6.755  21.141  0.00  0.00    +0.000 HD
ATOM     23  H   UNL     1      47.103   5.082  21.483  0.00  0.00    +0.000 HD
ENDBRANCH  15  19
ENDBRANCH  10  11
ENDBRANCH   9  10
ENDBRANCH   4   9
BRANCH   8  24
ATOM     24  O   UNL     1      44.220   5.975  12.283  0.00  0.00    +0.000 OA
BRANCH  24  25
ATOM     25  C   UNL     1      43.956   5.197  11.098  0.00  0.00    +0.000 C 
ATOM     26  C   UNL     1      43.884   3.665  11.347  0.00  0.00    +0.000 C 
ATOM     27  N   UNL     1      44.981   3.425  10.393  0.00  0.00    +0.000 NA
ATOM     28  C   UNL     1      45.117   4.873  10.141  0.00  0.00    +0.000 C 
BRANCH  27  29
ATOM     29  C   UNL     1      44.475   2.719   9.200  0.00  0.00    +0.000 C 
BRANCH  29  30
ATOM     30  C   UNL     1      45.505   1.708   8.667  0.00  0.00    +0.000 C 
BRANCH  30  31
ATOM     31  O   UNL     1      46.457   2.341   7.817  0.00  0.00    +0.000 OA
ATOM     32  H   UNL     1      46.919   1.613   7.357  0.00  0.00    +0.000 HD
ENDBRANCH  30  31
ENDBRANCH  29  30
ENDBRANCH  27  29
ENDBRANCH  24  25
ENDBRANCH   8  24
TORSDOF 9
ENDMDL
MODEL 8
REMARK VINA RESULT:    -5.636      5.497      7.991
REMARK INTER + INTRA:          -9.435
REMARK INTER:                  -8.927
REMARK INTRA:                  -0.508
REMARK UNBOUND:                -0.998
REMARK  Name = 
REMARK  11 active torsions:
REMARK  status: ('A' for Active; 'I' for Inactive)
REMARK    1  A    between atoms: C_1  and  C_2
REMARK    2  A    between atoms: C_4  and  C_5
REMARK    3  A    between atoms: C_5  and  C_6
REMARK    4  A    between atoms: C_6  and  N_7
REMARK    5  A    between atoms: C_11  and  C_12
REMARK    6  A    between atoms: C_18  and  C_19
REMARK    7  A    between atoms: C_20  and  O_21
REMARK    8  A    between atoms: O_21  and  C_22
REMARK    9  A    between atoms: N_24  and  C_25
REMARK   10  A    between atoms: C_25  and  C_26
REMARK   11  A    between atoms: C_26  and  O_27
REMARK                            x       y       z     vdW  Elec       q    Type
REMARK                         _______ _______ _______ _____ _____    ______ ____
ROOT
ATOM      1  C   UNL     1      48.362   8.179  13.130  0.00  0.00    +0.000 C 
ATOM      2  C   UNL     1      46.976   8.161  12.549  0.00  0.00    +0.000 A 
ATOM      3  C   UNL     1      46.505   9.433  12.164  0.00  0.00    +0.000 A 
ATOM      4  C   UNL     1      45.253   9.672  11.582  0.00  0.00    +0.000 A 
ATOM      5  C   UNL     1      44.425   8.569  11.394  0.00  0.00    +0.000 A 
ATOM      6  C   UNL     1      44.855   7.273  11.762  0.00  0.00    +0.000 A 
ATOM      7  C   UNL     1      43.912   6.113  11.551  0.00  0.00    +0.000 C 
ATOM      8  C   UNL     1      46.142   7.058  12.328  0.00  0.00    +0.000 A 
ENDROOT
BRANCH   4   9
ATOM      9  C   UNL     1      44.819  11.076  11.172  0.00  0.00    +0.000 C 
BRANCH   9  10
ATOM     10  C   UNL     1      43.306  11.187  10.931  0.00  0.00    +0.000 C 
BRANCH  10  11
ATOM     11  N   UNL     1      42.547  11.784  12.032  0.00  0.00    +0.000 N 
ATOM     12  C   UNL     1      41.185  11.387  11.952  0.00  0.00    +0.000 A 
ATOM     13  C   UNL     1      40.299  11.853  12.915  0.00  0.00    +0.000 A 
ATOM     14  C   UNL     1      38.943  11.490  12.839  0.00  0.00    +0.000 A 
ATOM     15  C   UNL     1      38.511  10.671  11.799  0.00  0.00    +0.000 A 
ATOM     16  C   UNL     1      39.455  10.242  10.883  0.00  0.00    +0.000 A 
ATOM     17  N   UNL     1      40.771  10.570  10.956  0.00  0.00    +0.000 NA
ATOM     18  H   UNL     1      42.579  12.800  12.007  0.00  0.00    +0.000 HD
BRANCH  15  19
ATOM     19  C   UNL     1      37.098  10.282  11.602  0.00  0.00    +0.000 C 
ATOM     20  N   UNL     1      36.817   9.459  10.541  0.00  0.00    +0.000 N 
ATOM     21  O   UNL     1      36.217  10.679  12.341  0.00  0.00    +0.000 OA
ATOM     22  H   UNL     1      37.477   9.257   9.805  0.00  0.00    +0.000 HD
ATOM     23  H   UNL     1      35.843   9.245  10.381  0.00  0.00    +0.000 HD
ENDBRANCH  15  19
ENDBRANCH  10  11
ENDBRANCH   9  10
ENDBRANCH   4   9
BRANCH   8  24
ATOM     24  O   UNL     1      46.439   5.721  12.480  0.00  0.00    +0.000 OA
BRANCH  24  25
ATOM     25  C   UNL     1      46.281   4.995  13.715  0.00  0.00    +0.000 C 
ATOM     26  C   UNL     1      47.360   5.320  14.785  0.00  0.00    +0.000 C 
ATOM     27  N   UNL     1      47.778   3.908  14.840  0.00  0.00    +0.000 NA
ATOM     28  C   UNL     1      46.794   3.546  13.802  0.00  0.00    +0.000 C 
BRANCH  27  29
ATOM     29  C   UNL     1      47.421   3.320  16.146  0.00  0.00    +0.000 C 
BRANCH  29  30
ATOM     30  C   UNL     1      48.635   2.645  16.808  0.00  0.00    +0.000 C 
BRANCH  30  31
ATOM     31  O   UNL     1      49.300   1.773  15.898  0.00  0.00    +0.000 OA
ATOM     32  H   UNL     1      49.340   0.907  16.349  0.00  0.00    +0.000 HD
ENDBRANCH  30  31
ENDBRANCH  29  30
ENDBRANCH  27  29
ENDBRANCH  24  25
ENDBRANCH   8  24
TORSDOF 9
ENDMDL
MODEL 9
REMARK VINA RESULT:    -5.506      3.163      5.615
REMARK INTER + INTRA:          -9.240
REMARK INTER:                  -9.050
REMARK INTRA:                  -0.190
REMARK UNBOUND:                -0.998
REMARK  Name = 
REMARK  11 active torsions:
REMARK  status: ('A' for Active; 'I' for Inactive)
REMARK    1  A    between atoms: C_1  and  C_2
REMARK    2  A    between atoms: C_4  and  C_5
REMARK    3  A    between atoms: C_5  and  C_6
REMARK    4  A    between atoms: C_6  and  N_7
REMARK    5  A    between atoms: C_11  and  C_12
REMARK    6  A    between atoms: C_18  and  C_19
REMARK    7  A    between atoms: C_20  and  O_21
REMARK    8  A    between atoms: O_21  and  C_22
REMARK    9  A    between atoms: N_24  and  C_25
REMARK   10  A    between atoms: C_25  and  C_26
REMARK   11  A    between atoms: C_26  and  O_27
REMARK                            x       y       z     vdW  Elec       q    Type
REMARK                         _______ _______ _______ _____ _____    ______ ____
ROOT
ATOM      1  C   UNL     1      52.228   6.883  15.898  0.00  0.00    +0.000 C 
ATOM      2  C   UNL     1      50.853   7.444  16.133  0.00  0.00    +0.000 A 
ATOM      3  C   UNL     1      50.304   8.094  15.008  0.00  0.00    +0.000 A 
ATOM      4  C   UNL     1      49.033   8.680  14.974  0.00  0.00    +0.000 A 
ATOM      5  C   UNL     1      48.281   8.623  16.144  0.00  0.00    +0.000 A 
ATOM      6  C   UNL     1      48.787   7.980  17.296  0.00  0.00    +0.000 A 
ATOM      7  C   UNL     1      47.938   7.958  18.544  0.00  0.00    +0.000 C 
ATOM      8  C   UNL     1      50.073   7.371  17.294  0.00  0.00    +0.000 A 
ENDROOT
BRANCH   4   9
ATOM      9  C   UNL     1      48.496   9.350  13.712  0.00  0.00    +0.000 C 
BRANCH   9  10
ATOM     10  C   UNL     1      47.508   8.463  12.939  0.00  0.00    +0.000 C 
BRANCH  10  11
ATOM     11  N   UNL     1      47.051   7.274  13.661  0.00  0.00    +0.000 N 
ATOM     12  C   UNL     1      46.366   6.403  12.771  0.00  0.00    +0.000 A 
ATOM     13  C   UNL     1      45.853   5.212  13.272  0.00  0.00    +0.000 A 
ATOM     14  C   UNL     1      45.152   4.348  12.413  0.00  0.00    +0.000 A 
ATOM     15  C   UNL     1      44.982   4.701  11.076  0.00  0.00    +0.000 A 
ATOM     16  C   UNL     1      45.528   5.900  10.653  0.00  0.00    +0.000 A 
ATOM     17  N   UNL     1      46.223   6.734  11.468  0.00  0.00    +0.000 NA
ATOM     18  H   UNL     1      46.415   7.511  14.418  0.00  0.00    +0.000 HD
BRANCH  15  19
ATOM     19  C   UNL     1      44.212   3.887  10.111  0.00  0.00    +0.000 C 
ATOM     20  N   UNL     1      44.116   4.363   8.828  0.00  0.00    +0.000 N 
ATOM     21  O   UNL     1      43.679   2.844  10.437  0.00  0.00    +0.000 OA
ATOM     22  H   UNL     1      44.382   5.300   8.561  0.00  0.00    +0.000 HD
ATOM     23  H   UNL     1      43.540   3.830   8.190  0.00  0.00    +0.000 HD
ENDBRANCH  15  19
ENDBRANCH  10  11
ENDBRANCH   9  10
ENDBRANCH   4   9
BRANCH   8  24
ATOM     24  O   UNL     1      50.330   6.667  18.451  0.00  0.00    +0.000 OA
BRANCH  24  25
ATOM     25  C   UNL     1      50.106   5.251  18.600  0.00  0.00    +0.000 C 
ATOM     26  C   UNL     1      51.353   4.375  18.296  0.00  0.00    +0.000 C 
ATOM     27  N   UNL     1      50.627   3.653  17.236  0.00  0.00    +0.000 NA
ATOM     28  C   UNL     1      49.424   4.477  17.458  0.00  0.00    +0.000 C 
BRANCH  27  29
ATOM     29  C   UNL     1      50.399   2.251  17.638  0.00  0.00    +0.000 C 
BRANCH  29  30
ATOM     30  C   UNL     1      51.650   1.388  17.400  0.00  0.00    +0.000 C 
BRANCH  30  31
ATOM     31  O   UNL     1      51.592   0.178  18.150  0.00  0.00    +0.000 OA
ATOM     32  H   UNL     1      51.920  -0.517  17.548  0.00  0.00    +0.000 HD
ENDBRANCH  30  31
ENDBRANCH  29  30
ENDBRANCH  27  29
ENDBRANCH  24  25
ENDBRANCH   8  24
TORSDOF 9
ENDMDL
