MODEL 1
REMARK VINA RESULT:    -8.224      0.000      0.000
REMARK INTER + INTRA:         -12.702
REMARK INTER:                 -11.590
REMARK INTRA:                  -1.112
REMARK UNBOUND:                -1.112
REMARK  Name = 
REMARK  8 active torsions:
REMARK  status: ('A' for Active; 'I' for Inactive)
REMARK    1  A    between atoms: C_1  and  C_2
REMARK    2  A    between atoms: C_2  and  C_3
REMARK    3  A    between atoms: C_2  and  C_14
REMARK    4  A    between atoms: C_3  and  O_4
REMARK    5  A    between atoms: O_4  and  C_5
REMARK    6  A    between atoms: C_8  and  C_9
REMARK    7  A    between atoms: C_18  and  O_19
REMARK    8  A    between atoms: O_19  and  C_20
REMARK                            x       y       z     vdW  Elec       q    Type
REMARK                         _______ _______ _______ _____ _____    ______ ____
ROOT
ATOM      1  C   UNL     1      42.799   5.318  12.203  0.00  0.00    +0.000 C 
ATOM      2  C   UNL     1      43.859   4.304  12.637  0.00  0.00    +0.000 C 
ENDROOT
BRANCH   2   3
ATOM      3  C   UNL     1      45.218   4.975  12.806  0.00  0.00    +0.000 A 
ATOM      4  C   UNL     1      45.620   5.969  11.907  0.00  0.00    +0.000 A 
ATOM      5  C   UNL     1      46.875   6.565  12.031  0.00  0.00    +0.000 A 
ATOM      6  C   UNL     1      47.722   6.214  13.083  0.00  0.00    +0.000 A 
ATOM      7  C   UNL     1      47.305   5.293  14.044  0.00  0.00    +0.000 A 
ATOM      8  C   UNL     1      46.080   4.642  13.871  0.00  0.00    +0.000 A 
BRANCH   7   9
ATOM      9  O   UNL     1      47.983   4.984  15.199  0.00  0.00    +0.000 OA
BRANCH   9  10
ATOM     10  C   UNL     1      47.307   4.107  16.116  0.00  0.00    +0.000 C 
ATOM     11  C   UNL     1      47.274   4.734  17.497  0.00  0.00    +0.000 C 
ATOM     12  C   UNL     1      48.502   4.182  18.187  0.00  0.00    +0.000 C 
ATOM     13  O   UNL     1      48.796   2.917  17.595  0.00  0.00    +0.000 OA
ATOM     14  C   UNL     1      48.070   2.804  16.363  0.00  0.00    +0.000 C 
ENDBRANCH   9  10
ENDBRANCH   7   9
ENDBRANCH   2   3
BRANCH   2  15
ATOM     15  C   UNL     1      43.971   3.120  11.661  0.00  0.00    +0.000 C 
BRANCH  15  16
ATOM     16  O   UNL     1      43.625   3.493  10.321  0.00  0.00    +0.000 OA
BRANCH  16  17
ATOM     17  C   UNL     1      44.572   3.179   9.378  0.00  0.00    +0.000 A 
ATOM     18  C   UNL     1      45.196   4.085   8.522  0.00  0.00    +0.000 A 
ATOM     19  C   UNL     1      46.161   3.644   7.621  0.00  0.00    +0.000 A 
ATOM     20  C   UNL     1      46.476   2.294   7.604  0.00  0.00    +0.000 A 
ATOM     21  N   UNL     1      45.884   1.368   8.409  0.00  0.00    +0.000 NA
ATOM     22  C   UNL     1      44.946   1.840   9.271  0.00  0.00    +0.000 A 
BRANCH  20  23
ATOM     23  C   UNL     1      47.537   1.808   6.666  0.00  0.00    +0.000 C 
ATOM     24  N   UNL     1      48.574   2.669   6.449  0.00  0.00    +0.000 N 
ATOM     25  O   UNL     1      47.479   0.715   6.116  0.00  0.00    +0.000 OA
ATOM     26  H   UNL     1      48.579   3.573   6.907  0.00  0.00    +0.000 HD
ATOM     27  H   UNL     1      49.308   2.411   5.805  0.00  0.00    +0.000 HD
ENDBRANCH  20  23
ENDBRANCH  16  17
ENDBRANCH  15  16
ENDBRANCH   2  15
TORSDOF 7
ENDMDL
MODEL 2
REMARK VINA RESULT:    -7.364      2.195      3.588
REMARK INTER + INTRA:         -11.490
REMARK INTER:                 -10.562
REMARK INTRA:                  -0.929
REMARK UNBOUND:                -1.112
REMARK  Name = 
REMARK  8 active torsions:
REMARK  status: ('A' for Active; 'I' for Inactive)
REMARK    1  A    between atoms: C_1  and  C_2
REMARK    2  A    between atoms: C_2  and  C_3
REMARK    3  A    between atoms: C_2  and  C_14
REMARK    4  A    between atoms: C_3  and  O_4
REMARK    5  A    between atoms: O_4  and  C_5
REMARK    6  A    between atoms: C_8  and  C_9
REMARK    7  A    between atoms: C_18  and  O_19
REMARK    8  A    between atoms: O_19  and  C_20
REMARK                            x       y       z     vdW  Elec       q    Type
REMARK                         _______ _______ _______ _____ _____    ______ ____
ROOT
ATOM      1  C   UNL     1      42.510   5.365  12.069  0.00  0.00    +0.000 C 
ATOM      2  C   UNL     1      43.381   4.162  12.434  0.00  0.00    +0.000 C 
ENDROOT
BRANCH   2   3
ATOM      3  C   UNL     1      44.765   4.610  12.892  0.00  0.00    +0.000 A 
ATOM      4  C   UNL     1      45.746   3.654  13.180  0.00  0.00    +0.000 A 
ATOM      5  C   UNL     1      47.004   4.050  13.632  0.00  0.00    +0.000 A 
ATOM      6  C   UNL     1      47.317   5.405  13.753  0.00  0.00    +0.000 A 
ATOM      7  C   UNL     1      46.386   6.376  13.384  0.00  0.00    +0.000 A 
ATOM      8  C   UNL     1      45.101   5.974  13.006  0.00  0.00    +0.000 A 
BRANCH   7   9
ATOM      9  O   UNL     1      46.629   7.727  13.315  0.00  0.00    +0.000 OA
BRANCH   9  10
ATOM     10  C   UNL     1      46.974   8.245  12.019  0.00  0.00    +0.000 C 
ATOM     11  C   UNL     1      48.281   7.633  11.553  0.00  0.00    +0.000 C 
ATOM     12  C   UNL     1      49.337   8.618  12.006  0.00  0.00    +0.000 C 
ATOM     13  O   UNL     1      48.724   9.905  12.073  0.00  0.00    +0.000 OA
ATOM     14  C   UNL     1      47.299   9.740  12.044  0.00  0.00    +0.000 C 
ENDBRANCH   9  10
ENDBRANCH   7   9
ENDBRANCH   2   3
BRANCH   2  15
ATOM     15  C   UNL     1      43.506   3.156  11.278  0.00  0.00    +0.000 C 
BRANCH  15  16
ATOM     16  O   UNL     1      43.508   3.804   9.998  0.00  0.00    +0.000 OA
BRANCH  16  17
ATOM     17  C   UNL     1      44.491   3.376   9.143  0.00  0.00    +0.000 A 
ATOM     18  C   UNL     1      45.132   4.161   8.185  0.00  0.00    +0.000 A 
ATOM     19  C   UNL     1      46.134   3.614   7.389  0.00  0.00    +0.000 A 
ATOM     20  C   UNL     1      46.470   2.282   7.577  0.00  0.00    +0.000 A 
ATOM     21  N   UNL     1      45.863   1.470   8.489  0.00  0.00    +0.000 NA
ATOM     22  C   UNL     1      44.888   2.044   9.243  0.00  0.00    +0.000 A 
BRANCH  20  23
ATOM     23  C   UNL     1      47.569   1.687   6.755  0.00  0.00    +0.000 C 
ATOM     24  N   UNL     1      48.642   2.498   6.525  0.00  0.00    +0.000 N 
ATOM     25  O   UNL     1      47.512   0.549   6.304  0.00  0.00    +0.000 OA
ATOM     26  H   UNL     1      48.646   3.441   6.898  0.00  0.00    +0.000 HD
ATOM     27  H   UNL     1      49.404   2.166   5.953  0.00  0.00    +0.000 HD
ENDBRANCH  20  23
ENDBRANCH  16  17
ENDBRANCH  15  16
ENDBRANCH   2  15
TORSDOF 7
ENDMDL
MODEL 3
REMARK VINA RESULT:    -6.998      3.373      5.581
REMARK INTER + INTRA:         -10.974
REMARK INTER:                 -10.045
REMARK INTRA:                  -0.929
REMARK UNBOUND:                -1.112
REMARK  Name = 
REMARK  8 active torsions:
REMARK  status: ('A' for Active; 'I' for Inactive)
REMARK    1  A    between atoms: C_1  and  C_2
REMARK    2  A    between atoms: C_2  and  C_3
REMARK    3  A    between atoms: C_2  and  C_14
REMARK    4  A    between atoms: C_3  and  O_4
REMARK    5  A    between atoms: O_4  and  C_5
REMARK    6  A    between atoms: C_8  and  C_9
REMARK    7  A    between atoms: C_18  and  O_19
REMARK    8  A    between atoms: O_19  and  C_20
REMARK                            x       y       z     vdW  Elec       q    Type
REMARK                         _______ _______ _______ _____ _____    ______ ____
ROOT
ATOM      1  C   UNL     1      46.083   4.355  12.962  0.00  0.00    +0.000 C 
ATOM      2  C   UNL     1      45.651   5.148  11.727  0.00  0.00    +0.000 C 
ENDROOT
BRANCH   2   3
ATOM      3  C   UNL     1      46.031   6.618  11.863  0.00  0.00    +0.000 A 
ATOM      4  C   UNL     1      47.380   6.988  11.909  0.00  0.00    +0.000 A 
ATOM      5  C   UNL     1      47.739   8.326  12.069  0.00  0.00    +0.000 A 
ATOM      6  C   UNL     1      46.758   9.318  12.132  0.00  0.00    +0.000 A 
ATOM      7  C   UNL     1      45.411   8.982  11.996  0.00  0.00    +0.000 A 
ATOM      8  C   UNL     1      45.053   7.633  11.915  0.00  0.00    +0.000 A 
BRANCH   7   9
ATOM      9  O   UNL     1      44.373   9.878  11.890  0.00  0.00    +0.000 OA
BRANCH   9  10
ATOM     10  C   UNL     1      43.836  10.074  10.571  0.00  0.00    +0.000 C 
ATOM     11  C   UNL     1      44.271  11.424  10.034  0.00  0.00    +0.000 C 
ATOM     12  C   UNL     1      43.143  12.358  10.415  0.00  0.00    +0.000 C 
ATOM     13  O   UNL     1      41.951  11.578  10.506  0.00  0.00    +0.000 OA
ATOM     14  C   UNL     1      42.311  10.190  10.562  0.00  0.00    +0.000 C 
ENDBRANCH   9  10
ENDBRANCH   7   9
ENDBRANCH   2   3
BRANCH   2  15
ATOM     15  C   UNL     1      44.146   5.015  11.442  0.00  0.00    +0.000 C 
BRANCH  15  16
ATOM     16  O   UNL     1      43.869   4.937  10.037  0.00  0.00    +0.000 OA
BRANCH  16  17
ATOM     17  C   UNL     1      44.652   4.044   9.349  0.00  0.00    +0.000 A 
ATOM     18  C   UNL     1      45.614   4.376   8.396  0.00  0.00    +0.000 A 
ATOM     19  C   UNL     1      46.363   3.377   7.781  0.00  0.00    +0.000 A 
ATOM     20  C   UNL     1      46.124   2.060   8.143  0.00  0.00    +0.000 A 
ATOM     21  N   UNL     1      45.186   1.684   9.057  0.00  0.00    +0.000 NA
ATOM     22  C   UNL     1      44.475   2.691   9.631  0.00  0.00    +0.000 A 
BRANCH  20  23
ATOM     23  C   UNL     1      46.945   0.975   7.518  0.00  0.00    +0.000 C 
ATOM     24  N   UNL     1      47.902   1.390   6.639  0.00  0.00    +0.000 N 
ATOM     25  O   UNL     1      46.767  -0.211   7.768  0.00  0.00    +0.000 OA
ATOM     26  H   UNL     1      48.008   2.379   6.443  0.00  0.00    +0.000 HD
ATOM     27  H   UNL     1      48.470   0.705   6.162  0.00  0.00    +0.000 HD
ENDBRANCH  20  23
ENDBRANCH  16  17
ENDBRANCH  15  16
ENDBRANCH   2  15
TORSDOF 7
ENDMDL
MODEL 4
REMARK VINA RESULT:    -6.860      2.774      4.781
REMARK INTER + INTRA:         -10.779
REMARK INTER:                  -9.974
REMARK INTRA:                  -0.805
REMARK UNBOUND:                -1.112
REMARK  Name = 
REMARK  8 active torsions:
REMARK  status: ('A' for Active; 'I' for Inactive)
REMARK    1  A    between atoms: C_1  and  C_2
REMARK    2  A    between atoms: C_2  and  C_3
REMARK    3  A    between atoms: C_2  and  C_14
REMARK    4  A    between atoms: C_3  and  O_4
REMARK    5  A    between atoms: O_4  and  C_5
REMARK    6  A    between atoms: C_8  and  C_9
REMARK    7  A    between atoms: C_18  and  O_19
REMARK    8  A    between atoms: O_19  and  C_20
REMARK                            x       y       z     vdW  Elec       q    Type
REMARK                         _______ _______ _______ _____ _____    ______ ____
ROOT
ATOM      1  C   UNL     1      42.897   5.147  12.415  0.00  0.00    +0.000 C 
ATOM      2  C   UNL     1      44.215   4.509  12.858  0.00  0.00    +0.000 C 
ENDROOT
BRANCH   2   3
ATOM      3  C   UNL     1      45.335   5.542  12.895  0.00  0.00    +0.000 A 
ATOM      4  C   UNL     1      46.561   5.219  13.489  0.00  0.00    +0.000 A 
ATOM      5  C   UNL     1      47.581   6.167  13.559  0.00  0.00    +0.000 A 
ATOM      6  C   UNL     1      47.411   7.432  12.993  0.00  0.00    +0.000 A 
ATOM      7  C   UNL     1      46.233   7.744  12.315  0.00  0.00    +0.000 A 
ATOM      8  C   UNL     1      45.184   6.819  12.316  0.00  0.00    +0.000 A 
BRANCH   7   9
ATOM      9  O   UNL     1      46.010   8.892  11.592  0.00  0.00    +0.000 OA
BRANCH   9  10
ATOM     10  C   UNL     1      44.826   9.635  11.928  0.00  0.00    +0.000 C 
ATOM     11  C   UNL     1      43.721   9.316  10.940  0.00  0.00    +0.000 C 
ATOM     12  C   UNL     1      43.849  10.386   9.878  0.00  0.00    +0.000 C 
ATOM     13  O   UNL     1      44.433  11.533  10.493  0.00  0.00    +0.000 OA
ATOM     14  C   UNL     1      45.002  11.144  11.751  0.00  0.00    +0.000 C 
ENDBRANCH   9  10
ENDBRANCH   7   9
ENDBRANCH   2   3
BRANCH   2  15
ATOM     15  C   UNL     1      44.619   3.322  11.968  0.00  0.00    +0.000 C 
BRANCH  15  16
ATOM     16  O   UNL     1      43.904   3.314  10.724  0.00  0.00    +0.000 OA
BRANCH  16  17
ATOM     17  C   UNL     1      44.701   3.253   9.609  0.00  0.00    +0.000 A 
ATOM     18  C   UNL     1      45.145   4.348   8.868  0.00  0.00    +0.000 A 
ATOM     19  C   UNL     1      45.972   4.157   7.764  0.00  0.00    +0.000 A 
ATOM     20  C   UNL     1      46.333   2.861   7.431  0.00  0.00    +0.000 A 
ATOM     21  N   UNL     1      45.913   1.758   8.113  0.00  0.00    +0.000 NA
ATOM     22  C   UNL     1      45.106   1.990   9.182  0.00  0.00    +0.000 A 
BRANCH  20  23
ATOM     23  C   UNL     1      47.249   2.639   6.268  0.00  0.00    +0.000 C 
ATOM     24  N   UNL     1      48.570   2.488   6.577  0.00  0.00    +0.000 N 
ATOM     25  O   UNL     1      46.848   2.605   5.111  0.00  0.00    +0.000 OA
ATOM     26  H   UNL     1      48.867   2.541   7.545  0.00  0.00    +0.000 HD
ATOM     27  H   UNL     1      49.243   2.363   5.835  0.00  0.00    +0.000 HD
ENDBRANCH  20  23
ENDBRANCH  16  17
ENDBRANCH  15  16
ENDBRANCH   2  15
TORSDOF 7
ENDMDL
MODEL 5
REMARK VINA RESULT:    -6.829      2.941      7.612
REMARK INTER + INTRA:         -10.736
REMARK INTER:                 -10.155
REMARK INTRA:                  -0.581
REMARK UNBOUND:                -1.112
REMARK  Name = 
REMARK  8 active torsions:
REMARK  status: ('A' for Active; 'I' for Inactive)
REMARK    1  A    between atoms: C_1  and  C_2
REMARK    2  A    between atoms: C_2  and  C_3
REMARK    3  A    between atoms: C_2  and  C_14
REMARK    4  A    between atoms: C_3  and  O_4
REMARK    5  A    between atoms: O_4  and  C_5
REMARK    6  A    between atoms: C_8  and  C_9
REMARK    7  A    between atoms: C_18  and  O_19
REMARK    8  A    between atoms: O_19  and  C_20
REMARK                            x       y       z     vdW  Elec       q    Type
REMARK                         _______ _______ _______ _____ _____    ______ ____
ROOT
ATOM      1  C   UNL     1      45.671   8.429  12.898  0.00  0.00    +0.000 C 
ATOM      2  C   UNL     1      46.139   7.510  11.768  0.00  0.00    +0.000 C 
ENDROOT
BRANCH   2   3
ATOM      3  C   UNL     1      45.120   6.406  11.506  0.00  0.00    +0.000 A 
ATOM      4  C   UNL     1      43.753   6.677  11.627  0.00  0.00    +0.000 A 
ATOM      5  C   UNL     1      42.814   5.667  11.424  0.00  0.00    +0.000 A 
ATOM      6  C   UNL     1      43.224   4.387  11.047  0.00  0.00    +0.000 A 
ATOM      7  C   UNL     1      44.575   4.118  10.830  0.00  0.00    +0.000 A 
ATOM      8  C   UNL     1      45.517   5.112  11.111  0.00  0.00    +0.000 A 
BRANCH   7   9
ATOM      9  O   UNL     1      45.083   2.950  10.313  0.00  0.00    +0.000 OA
BRANCH   9  10
ATOM     10  C   UNL     1      44.686   2.624   8.970  0.00  0.00    +0.000 C 
ATOM     11  C   UNL     1      45.733   1.736   8.326  0.00  0.00    +0.000 C 
ATOM     12  C   UNL     1      46.650   2.701   7.608  0.00  0.00    +0.000 C 
ATOM     13  O   UNL     1      45.883   3.860   7.280  0.00  0.00    +0.000 OA
ATOM     14  C   UNL     1      44.669   3.842   8.044  0.00  0.00    +0.000 C 
ENDBRANCH   9  10
ENDBRANCH   7   9
ENDBRANCH   2   3
BRANCH   2  15
ATOM     15  C   UNL     1      47.522   6.899  12.045  0.00  0.00    +0.000 C 
BRANCH  15  16
ATOM     16  O   UNL     1      48.078   7.364  13.282  0.00  0.00    +0.000 OA
BRANCH  16  17
ATOM     17  C   UNL     1      48.052   6.445  14.301  0.00  0.00    +0.000 A 
ATOM     18  C   UNL     1      48.617   6.618  15.564  0.00  0.00    +0.000 A 
ATOM     19  C   UNL     1      48.504   5.616  16.524  0.00  0.00    +0.000 A 
ATOM     20  C   UNL     1      47.819   4.459  16.188  0.00  0.00    +0.000 A 
ATOM     21  N   UNL     1      47.262   4.236  14.964  0.00  0.00    +0.000 NA
ATOM     22  C   UNL     1      47.399   5.239  14.055  0.00  0.00    +0.000 A 
BRANCH  20  23
ATOM     23  C   UNL     1      47.656   3.386  17.219  0.00  0.00    +0.000 C 
ATOM     24  N   UNL     1      48.806   2.964  17.820  0.00  0.00    +0.000 N 
ATOM     25  O   UNL     1      46.565   2.905  17.502  0.00  0.00    +0.000 OA
ATOM     26  H   UNL     1      49.693   3.372  17.546  0.00  0.00    +0.000 HD
ATOM     27  H   UNL     1      48.767   2.223  18.504  0.00  0.00    +0.000 HD
ENDBRANCH  20  23
ENDBRANCH  16  17
ENDBRANCH  15  16
ENDBRANCH   2  15
TORSDOF 7
ENDMDL
MODEL 6
REMARK VINA RESULT:    -6.507      2.706      3.843
REMARK INTER + INTRA:         -10.281
REMARK INTER:                  -9.538
REMARK INTRA:                  -0.743
REMARK UNBOUND:                -1.112
REMARK  Name = 
REMARK  8 active torsions:
REMARK  status: ('A' for Active; 'I' for Inactive)
REMARK    1  A    between atoms: C_1  and  C_2
REMARK    2  A    between atoms: C_2  and  C_3
REMARK    3  A    between atoms: C_2  and  C_14
REMARK    4  A    between atoms: C_3  and  O_4
REMARK    5  A    between atoms: O_4  and  C_5
REMARK    6  A    between atoms: C_8  and  C_9
REMARK    7  A    between atoms: C_18  and  O_19
REMARK    8  A    between atoms: O_19  and  C_20
REMARK                            x       y       z     vdW  Elec       q    Type
REMARK                         _______ _______ _______ _____ _____    ______ ____
ROOT
ATOM      1  C   UNL     1      45.762   3.950  12.926  0.00  0.00    +0.000 C 
ATOM      2  C   UNL     1      45.361   4.818  11.731  0.00  0.00    +0.000 C 
ENDROOT
BRANCH   2   3
ATOM      3  C   UNL     1      45.683   6.285  11.992  0.00  0.00    +0.000 A 
ATOM      4  C   UNL     1      44.729   7.269  11.705  0.00  0.00    +0.000 A 
ATOM      5  C   UNL     1      45.024   8.616  11.907  0.00  0.00    +0.000 A 
ATOM      6  C   UNL     1      46.255   8.997  12.445  0.00  0.00    +0.000 A 
ATOM      7  C   UNL     1      47.185   8.029  12.824  0.00  0.00    +0.000 A 
ATOM      8  C   UNL     1      46.915   6.685  12.547  0.00  0.00    +0.000 A 
BRANCH   7   9
ATOM      9  O   UNL     1      48.357   8.272  13.499  0.00  0.00    +0.000 OA
BRANCH   9  10
ATOM     10  C   UNL     1      49.228   9.260  12.924  0.00  0.00    +0.000 C 
ATOM     11  C   UNL     1      49.584   8.869  11.504  0.00  0.00    +0.000 C 
ATOM     12  C   UNL     1      50.879   8.098  11.642  0.00  0.00    +0.000 C 
ATOM     13  O   UNL     1      51.538   8.573  12.816  0.00  0.00    +0.000 OA
ATOM     14  C   UNL     1      50.597   9.315  13.605  0.00  0.00    +0.000 C 
ENDBRANCH   9  10
ENDBRANCH   7   9
ENDBRANCH   2   3
BRANCH   2  15
ATOM     15  C   UNL     1      43.877   4.659  11.363  0.00  0.00    +0.000 C 
BRANCH  15  16
ATOM     16  O   UNL     1      43.669   4.670   9.945  0.00  0.00    +0.000 OA
BRANCH  16  17
ATOM     17  C   UNL     1      44.545   3.888   9.234  0.00  0.00    +0.000 A 
ATOM     18  C   UNL     1      45.493   4.354   8.324  0.00  0.00    +0.000 A 
ATOM     19  C   UNL     1      46.343   3.459   7.679  0.00  0.00    +0.000 A 
ATOM     20  C   UNL     1      46.217   2.110   7.969  0.00  0.00    +0.000 A 
ATOM     21  N   UNL     1      45.297   1.604   8.838  0.00  0.00    +0.000 NA
ATOM     22  C   UNL     1      44.486   2.512   9.443  0.00  0.00    +0.000 A 
BRANCH  20  23
ATOM     23  C   UNL     1      47.146   1.137   7.312  0.00  0.00    +0.000 C 
ATOM     24  N   UNL     1      46.816  -0.181   7.450  0.00  0.00    +0.000 N 
ATOM     25  O   UNL     1      48.145   1.492   6.699  0.00  0.00    +0.000 OA
ATOM     26  H   UNL     1      45.991  -0.437   7.980  0.00  0.00    +0.000 HD
ATOM     27  H   UNL     1      47.417  -0.888   7.054  0.00  0.00    +0.000 HD
ENDBRANCH  20  23
ENDBRANCH  16  17
ENDBRANCH  15  16
ENDBRANCH   2  15
TORSDOF 7
ENDMDL
MODEL 7
REMARK VINA RESULT:    -6.366      3.560      7.543
REMARK INTER + INTRA:         -10.083
REMARK INTER:                  -8.910
REMARK INTRA:                  -1.173
REMARK UNBOUND:                -1.112
REMARK  Name = 
REMARK  8 active torsions:
REMARK  status: ('A' for Active; 'I' for Inactive)
REMARK    1  A    between atoms: C_1  and  C_2
REMARK    2  A    between atoms: C_2  and  C_3
REMARK    3  A    between atoms: C_2  and  C_14
REMARK    4  A    between atoms: C_3  and  O_4
REMARK    5  A    between atoms: O_4  and  C_5
REMARK    6  A    between atoms: C_8  and  C_9
REMARK    7  A    between atoms: C_18  and  O_19
REMARK    8  A    between atoms: O_19  and  C_20
REMARK                            x       y       z     vdW  Elec       q    Type
REMARK                         _______ _______ _______ _____ _____    ______ ____
ROOT
ATOM      1  C   UNL     1      49.500   9.447  11.781  0.00  0.00    +0.000 C 
ATOM      2  C   UNL     1      49.033   7.990  11.789  0.00  0.00    +0.000 C 
ENDROOT
BRANCH   2   3
ATOM      3  C   UNL     1      47.510   7.906  11.804  0.00  0.00    +0.000 A 
ATOM      4  C   UNL     1      46.755   9.023  12.181  0.00  0.00    +0.000 A 
ATOM      5  C   UNL     1      45.364   8.947  12.232  0.00  0.00    +0.000 A 
ATOM      6  C   UNL     1      44.706   7.774  11.858  0.00  0.00    +0.000 A 
ATOM      7  C   UNL     1      45.433   6.680  11.391  0.00  0.00    +0.000 A 
ATOM      8  C   UNL     1      46.830   6.734  11.416  0.00  0.00    +0.000 A 
BRANCH   7   9
ATOM      9  O   UNL     1      44.894   5.535  10.854  0.00  0.00    +0.000 OA
BRANCH   9  10
ATOM     10  C   UNL     1      45.277   4.299  11.480  0.00  0.00    +0.000 C 
ATOM     11  C   UNL     1      44.577   3.139  10.800  0.00  0.00    +0.000 C 
ATOM     12  C   UNL     1      43.320   2.931  11.616  0.00  0.00    +0.000 C 
ATOM     13  O   UNL     1      43.589   3.388  12.941  0.00  0.00    +0.000 OA
ATOM     14  C   UNL     1      44.781   4.185  12.923  0.00  0.00    +0.000 C 
ENDBRANCH   9  10
ENDBRANCH   7   9
ENDBRANCH   2   3
BRANCH   2  15
ATOM     15  C   UNL     1      49.618   7.194  12.967  0.00  0.00    +0.000 C 
BRANCH  15  16
ATOM     16  O   UNL     1      49.152   7.682  14.232  0.00  0.00    +0.000 OA
BRANCH  16  17
ATOM     17  C   UNL     1      48.852   6.704  15.146  0.00  0.00    +0.000 A 
ATOM     18  C   UNL     1      49.407   6.587  16.420  0.00  0.00    +0.000 A 
ATOM     19  C   UNL     1      49.002   5.558  17.267  0.00  0.00    +0.000 A 
ATOM     20  C   UNL     1      48.044   4.668  16.809  0.00  0.00    +0.000 A 
ATOM     21  N   UNL     1      47.484   4.731  15.567  0.00  0.00    +0.000 NA
ATOM     22  C   UNL     1      47.909   5.748  14.772  0.00  0.00    +0.000 A 
BRANCH  20  23
ATOM     23  C   UNL     1      47.572   3.577  17.718  0.00  0.00    +0.000 C 
ATOM     24  N   UNL     1      48.263   3.441  18.887  0.00  0.00    +0.000 N 
ATOM     25  O   UNL     1      46.633   2.843  17.434  0.00  0.00    +0.000 OA
ATOM     26  H   UNL     1      49.046   4.055  19.080  0.00  0.00    +0.000 HD
ATOM     27  H   UNL     1      48.012   2.706  19.531  0.00  0.00    +0.000 HD
ENDBRANCH  20  23
ENDBRANCH  16  17
ENDBRANCH  15  16
ENDBRANCH   2  15
TORSDOF 7
ENDMDL
MODEL 8
REMARK VINA RESULT:    -6.351      1.769      2.151
REMARK INTER + INTRA:         -10.062
REMARK INTER:                  -9.445
REMARK INTRA:                  -0.617
REMARK UNBOUND:                -1.112
REMARK  Name = 
REMARK  8 active torsions:
REMARK  status: ('A' for Active; 'I' for Inactive)
REMARK    1  A    between atoms: C_1  and  C_2
REMARK    2  A    between atoms: C_2  and  C_3
REMARK    3  A    between atoms: C_2  and  C_14
REMARK    4  A    between atoms: C_3  and  O_4
REMARK    5  A    between atoms: O_4  and  C_5
REMARK    6  A    between atoms: C_8  and  C_9
REMARK    7  A    between atoms: C_18  and  O_19
REMARK    8  A    between atoms: O_19  and  C_20
REMARK                            x       y       z     vdW  Elec       q    Type
REMARK                         _______ _______ _______ _____ _____    ______ ____
ROOT
ATOM      1  C   UNL     1      45.853   3.132  12.920  0.00  0.00    +0.000 C 
ATOM      2  C   UNL     1      45.614   4.335  12.006  0.00  0.00    +0.000 C 
ENDROOT
BRANCH   2   3
ATOM      3  C   UNL     1      46.267   5.591  12.574  0.00  0.00    +0.000 A 
ATOM      4  C   UNL     1      45.712   6.847  12.304  0.00  0.00    +0.000 A 
ATOM      5  C   UNL     1      46.320   8.004  12.789  0.00  0.00    +0.000 A 
ATOM      6  C   UNL     1      47.459   7.920  13.592  0.00  0.00    +0.000 A 
ATOM      7  C   UNL     1      47.975   6.675  13.950  0.00  0.00    +0.000 A 
ATOM      8  C   UNL     1      47.409   5.522  13.398  0.00  0.00    +0.000 A 
BRANCH   7   9
ATOM      9  O   UNL     1      48.991   6.463  14.852  0.00  0.00    +0.000 OA
BRANCH   9  10
ATOM     10  C   UNL     1      48.604   6.358  16.232  0.00  0.00    +0.000 C 
ATOM     11  C   UNL     1      49.224   7.489  17.028  0.00  0.00    +0.000 C 
ATOM     12  C   UNL     1      50.518   6.910  17.555  0.00  0.00    +0.000 C 
ATOM     13  O   UNL     1      50.343   5.498  17.664  0.00  0.00    +0.000 OA
ATOM     14  C   UNL     1      49.179   5.117  16.917  0.00  0.00    +0.000 C 
ENDBRANCH   9  10
ENDBRANCH   7   9
ENDBRANCH   2   3
BRANCH   2  15
ATOM     15  C   UNL     1      44.119   4.587  11.749  0.00  0.00    +0.000 C 
BRANCH  15  16
ATOM     16  O   UNL     1      43.828   4.724  10.351  0.00  0.00    +0.000 OA
BRANCH  16  17
ATOM     17  C   UNL     1      44.690   4.053   9.521  0.00  0.00    +0.000 A 
ATOM     18  C   UNL     1      44.767   2.668   9.379  0.00  0.00    +0.000 A 
ATOM     19  C   UNL     1      45.672   2.106   8.483  0.00  0.00    +0.000 A 
ATOM     20  C   UNL     1      46.481   2.957   7.746  0.00  0.00    +0.000 A 
ATOM     21  N   UNL     1      46.454   4.315   7.859  0.00  0.00    +0.000 NA
ATOM     22  C   UNL     1      45.558   4.821   8.748  0.00  0.00    +0.000 A 
BRANCH  20  23
ATOM     23  C   UNL     1      47.435   2.372   6.752  0.00  0.00    +0.000 C 
ATOM     24  N   UNL     1      47.490   3.002   5.543  0.00  0.00    +0.000 N 
ATOM     25  O   UNL     1      48.118   1.384   6.997  0.00  0.00    +0.000 OA
ATOM     26  H   UNL     1      46.897   3.806   5.370  0.00  0.00    +0.000 HD
ATOM     27  H   UNL     1      48.093   2.640   4.820  0.00  0.00    +0.000 HD
ENDBRANCH  20  23
ENDBRANCH  16  17
ENDBRANCH  15  16
ENDBRANCH   2  15
TORSDOF 7
ENDMDL
MODEL 9
REMARK VINA RESULT:    -6.350      2.886      4.681
REMARK INTER + INTRA:         -10.061
REMARK INTER:                  -9.042
REMARK INTRA:                  -1.019
REMARK UNBOUND:                -1.112
REMARK  Name = 
REMARK  8 active torsions:
REMARK  status: ('A' for Active; 'I' for Inactive)
REMARK    1  A    between atoms: C_1  and  C_2
REMARK    2  A    between atoms: C_2  and  C_3
REMARK    3  A    between atoms: C_2  and  C_14
REMARK    4  A    between atoms: C_3  and  O_4
REMARK    5  A    between atoms: O_4  and  C_5
REMARK    6  A    between atoms: C_8  and  C_9
REMARK    7  A    between atoms: C_18  and  O_19
REMARK    8  A    between atoms: O_19  and  C_20
REMARK                            x       y       z     vdW  Elec       q    Type
REMARK                         _______ _______ _______ _____ _____    ______ ____
ROOT
ATOM      1  C   UNL     1      49.094   7.490  11.869  0.00  0.00    +0.000 C 
ATOM      2  C   UNL     1      48.267   8.444  12.732  0.00  0.00    +0.000 C 
ENDROOT
BRANCH   2   3
ATOM      3  C   UNL     1      48.518   8.194  14.215  0.00  0.00    +0.000 A 
ATOM      4  C   UNL     1      48.205   9.187  15.151  0.00  0.00    +0.000 A 
ATOM      5  C   UNL     1      48.462   8.983  16.506  0.00  0.00    +0.000 A 
ATOM      6  C   UNL     1      48.987   7.768  16.951  0.00  0.00    +0.000 A 
ATOM      7  C   UNL     1      49.220   6.732  16.048  0.00  0.00    +0.000 A 
ATOM      8  C   UNL     1      49.034   6.968  14.682  0.00  0.00    +0.000 A 
BRANCH   7   9
ATOM      9  O   UNL     1      49.588   5.450  16.383  0.00  0.00    +0.000 OA
BRANCH   9  10
ATOM     10  C   UNL     1      48.765   4.788  17.358  0.00  0.00    +0.000 C 
ATOM     11  C   UNL     1      49.297   3.392  17.618  0.00  0.00    +0.000 C 
ATOM     12  C   UNL     1      48.523   2.513  16.661  0.00  0.00    +0.000 C 
ATOM     13  O   UNL     1      47.269   3.149  16.412  0.00  0.00    +0.000 OA
ATOM     14  C   UNL     1      47.348   4.513  16.851  0.00  0.00    +0.000 C 
ENDBRANCH   9  10
ENDBRANCH   7   9
ENDBRANCH   2   3
BRANCH   2  15
ATOM     15  C   UNL     1      46.762   8.353  12.429  0.00  0.00    +0.000 C 
BRANCH  15  16
ATOM     16  O   UNL     1      46.083   7.467  13.329  0.00  0.00    +0.000 OA
BRANCH  16  17
ATOM     17  C   UNL     1      45.492   6.384  12.728  0.00  0.00    +0.000 A 
ATOM     18  C   UNL     1      44.744   6.417  11.552  0.00  0.00    +0.000 A 
ATOM     19  C   UNL     1      44.212   5.242  11.029  0.00  0.00    +0.000 A 
ATOM     20  C   UNL     1      44.449   4.056  11.705  0.00  0.00    +0.000 A 
ATOM     21  N   UNL     1      45.160   3.973  12.865  0.00  0.00    +0.000 NA
ATOM     22  C   UNL     1      45.658   5.145  13.343  0.00  0.00    +0.000 A 
BRANCH  20  23
ATOM     23  C   UNL     1      43.915   2.777  11.137  0.00  0.00    +0.000 C 
ATOM     24  N   UNL     1      44.629   2.246  10.103  0.00  0.00    +0.000 N 
ATOM     25  O   UNL     1      42.898   2.242  11.562  0.00  0.00    +0.000 OA
ATOM     26  H   UNL     1      45.455   2.727   9.766  0.00  0.00    +0.000 HD
ATOM     27  H   UNL     1      44.305   1.400   9.658  0.00  0.00    +0.000 HD
ENDBRANCH  20  23
ENDBRANCH  16  17
ENDBRANCH  15  16
ENDBRANCH   2  15
TORSDOF 7
ENDMDL
