MODEL 1
REMARK VINA RESULT:    -7.473      0.000      0.000
REMARK INTER + INTRA:         -10.352
REMARK INTER:                  -9.876
REMARK INTRA:                  -0.477
REMARK UNBOUND:                -0.477
REMARK  Name = 
REMARK  6 active torsions:
REMARK  status: ('A' for Active; 'I' for Inactive)
REMARK    1  A    between atoms: N_1  and  C_2
REMARK    2  A    between atoms: C_2  and  C_3
REMARK    3  A    between atoms: C_7  and  C_8
REMARK    4  A    between atoms: C_8  and  C_9
REMARK    5  A    between atoms: C_9  and  N_10
REMARK    6  A    between atoms: C_14  and  C_15
REMARK                            x       y       z     vdW  Elec       q    Type
REMARK                         _______ _______ _______ _____ _____    ______ ____
ROOT
ATOM      1  N   UNL     1      44.283   3.579  10.540  0.00  0.00    +0.000 N 
ATOM      2  C   UNL     1      45.019   3.339   9.384  0.00  0.00    +0.000 A 
ATOM      3  C   UNL     1      45.484   4.341   8.524  0.00  0.00    +0.000 A 
ATOM      4  N   UNL     1      46.242   4.124   7.416  0.00  0.00    +0.000 NA
ATOM      5  C   UNL     1      46.561   2.823   7.207  0.00  0.00    +0.000 A 
ATOM      6  C   UNL     1      46.124   1.811   8.050  0.00  0.00    +0.000 A 
ATOM      7  N   UNL     1      45.341   2.048   9.144  0.00  0.00    +0.000 NA
ATOM      8  H   UNL     1      43.911   2.692  10.868  0.00  0.00    +0.000 HD
ENDROOT
BRANCH   5   9
ATOM      9  C   UNL     1      47.424   2.505   6.039  0.00  0.00    +0.000 C 
ATOM     10  N   UNL     1      48.777   2.509   6.262  0.00  0.00    +0.000 N 
ATOM     11  O   UNL     1      46.959   2.248   4.938  0.00  0.00    +0.000 OA
ATOM     12  H   UNL     1      49.146   2.704   7.184  0.00  0.00    +0.000 HD
ATOM     13  H   UNL     1      49.399   2.275   5.501  0.00  0.00    +0.000 HD
ENDBRANCH   5   9
BRANCH   1  14
ATOM     14  C   UNL     1      43.387   4.731  10.570  0.00  0.00    +0.000 C 
BRANCH  14  15
ATOM     15  C   UNL     1      43.450   5.467  11.915  0.00  0.00    +0.000 C 
BRANCH  15  20
ATOM     16  C   UNL     1      46.812   5.297  13.750  0.00  0.00    +0.000 A 
ATOM     17  C   UNL     1      47.597   6.128  12.943  0.00  0.00    +0.000 A 
ATOM     18  C   UNL     1      47.037   6.778  11.842  0.00  0.00    +0.000 A 
ATOM     19  C   UNL     1      45.690   6.590  11.524  0.00  0.00    +0.000 A 
ATOM     20  C   UNL     1      44.885   5.752  12.306  0.00  0.00    +0.000 A 
ATOM     21  C   UNL     1      45.455   5.122  13.425  0.00  0.00    +0.000 A 
BRANCH  16  22
ATOM     22  C   UNL     1      47.411   4.604  14.948  0.00  0.00    +0.000 C 
BRANCH  22  23
ATOM     23  N   UNL     1      47.518   3.165  14.735  0.00  0.00    +0.000 NA
ATOM     24  H   UNL     1      46.795   2.871  14.081  0.00  0.00    +0.000 HD
ATOM     25  H   UNL     1      47.319   2.692  15.615  0.00  0.00    +0.000 HD
ENDBRANCH  22  23
ENDBRANCH  16  22
ENDBRANCH  15  20
ENDBRANCH  14  15
ENDBRANCH   1  14
TORSDOF 6
ENDMDL
MODEL 2
REMARK VINA RESULT:    -7.415      2.962      6.521
REMARK INTER + INTRA:         -10.276
REMARK INTER:                  -9.758
REMARK INTRA:                  -0.518
REMARK UNBOUND:                -0.477
REMARK  Name = 
REMARK  6 active torsions:
REMARK  status: ('A' for Active; 'I' for Inactive)
REMARK    1  A    between atoms: N_1  and  C_2
REMARK    2  A    between atoms: C_2  and  C_3
REMARK    3  A    between atoms: C_7  and  C_8
REMARK    4  A    between atoms: C_8  and  C_9
REMARK    5  A    between atoms: C_9  and  N_10
REMARK    6  A    between atoms: C_14  and  C_15
REMARK                            x       y       z     vdW  Elec       q    Type
REMARK                         _______ _______ _______ _____ _____    ______ ____
ROOT
ATOM      1  N   UNL     1      44.195   3.410  12.452  0.00  0.00    +0.000 N 
ATOM      2  C   UNL     1      45.207   4.294  12.812  0.00  0.00    +0.000 A 
ATOM      3  C   UNL     1      45.339   5.591  12.300  0.00  0.00    +0.000 A 
ATOM      4  N   UNL     1      46.295   6.481  12.677  0.00  0.00    +0.000 NA
ATOM      5  C   UNL     1      47.126   6.026  13.645  0.00  0.00    +0.000 A 
ATOM      6  C   UNL     1      47.011   4.751  14.180  0.00  0.00    +0.000 A 
ATOM      7  N   UNL     1      46.059   3.862  13.768  0.00  0.00    +0.000 NA
ATOM      8  H   UNL     1      44.436   2.489  12.810  0.00  0.00    +0.000 HD
ENDROOT
BRANCH   5   9
ATOM      9  C   UNL     1      48.175   6.955  14.143  0.00  0.00    +0.000 C 
ATOM     10  N   UNL     1      47.747   8.188  14.565  0.00  0.00    +0.000 N 
ATOM     11  O   UNL     1      49.356   6.642  14.184  0.00  0.00    +0.000 OA
ATOM     12  H   UNL     1      46.764   8.425  14.544  0.00  0.00    +0.000 HD
ATOM     13  H   UNL     1      48.423   8.842  14.932  0.00  0.00    +0.000 HD
ENDBRANCH   5   9
BRANCH   1  14
ATOM     14  C   UNL     1      43.659   3.477  11.096  0.00  0.00    +0.000 C 
BRANCH  14  15
ATOM     15  C   UNL     1      44.112   2.285  10.243  0.00  0.00    +0.000 C 
BRANCH  15  20
ATOM     16  C   UNL     1      46.690   2.152   7.409  0.00  0.00    +0.000 A 
ATOM     17  C   UNL     1      46.815   3.511   7.099  0.00  0.00    +0.000 A 
ATOM     18  C   UNL     1      46.109   4.469   7.829  0.00  0.00    +0.000 A 
ATOM     19  C   UNL     1      45.257   4.078   8.865  0.00  0.00    +0.000 A 
ATOM     20  C   UNL     1      45.104   2.724   9.186  0.00  0.00    +0.000 A 
ATOM     21  C   UNL     1      45.837   1.771   8.460  0.00  0.00    +0.000 A 
BRANCH  16  22
ATOM     22  C   UNL     1      47.462   1.116   6.632  0.00  0.00    +0.000 C 
BRANCH  22  23
ATOM     23  N   UNL     1      48.498   1.728   5.807  0.00  0.00    +0.000 NA
ATOM     24  H   UNL     1      48.297   1.541   4.827  0.00  0.00    +0.000 HD
ATOM     25  H   UNL     1      49.386   1.272   6.011  0.00  0.00    +0.000 HD
ENDBRANCH  22  23
ENDBRANCH  16  22
ENDBRANCH  15  20
ENDBRANCH  14  15
ENDBRANCH   1  14
TORSDOF 6
ENDMDL
MODEL 3
REMARK VINA RESULT:    -7.026      3.117      7.069
REMARK INTER + INTRA:          -9.762
REMARK INTER:                  -9.343
REMARK INTRA:                  -0.419
REMARK UNBOUND:                -0.477
REMARK  Name = 
REMARK  6 active torsions:
REMARK  status: ('A' for Active; 'I' for Inactive)
REMARK    1  A    between atoms: N_1  and  C_2
REMARK    2  A    between atoms: C_2  and  C_3
REMARK    3  A    between atoms: C_7  and  C_8
REMARK    4  A    between atoms: C_8  and  C_9
REMARK    5  A    between atoms: C_9  and  N_10
REMARK    6  A    between atoms: C_14  and  C_15
REMARK                            x       y       z     vdW  Elec       q    Type
REMARK                         _______ _______ _______ _____ _____    ______ ____
ROOT
ATOM      1  N   UNL     1      45.408   5.319  10.818  0.00  0.00    +0.000 N 
ATOM      2  C   UNL     1      45.902   5.054  12.091  0.00  0.00    +0.000 A 
ATOM      3  C   UNL     1      45.885   3.791  12.696  0.00  0.00    +0.000 A 
ATOM      4  N   UNL     1      46.405   3.508  13.920  0.00  0.00    +0.000 NA
ATOM      5  C   UNL     1      46.997   4.565  14.529  0.00  0.00    +0.000 A 
ATOM      6  C   UNL     1      47.040   5.824  13.948  0.00  0.00    +0.000 A 
ATOM      7  N   UNL     1      46.488   6.093  12.728  0.00  0.00    +0.000 NA
ATOM      8  H   UNL     1      45.363   6.328  10.699  0.00  0.00    +0.000 HD
ENDROOT
BRANCH   5   9
ATOM      9  C   UNL     1      47.628   4.329  15.855  0.00  0.00    +0.000 C 
ATOM     10  N   UNL     1      46.967   3.475  16.701  0.00  0.00    +0.000 N 
ATOM     11  O   UNL     1      48.681   4.859  16.177  0.00  0.00    +0.000 OA
ATOM     12  H   UNL     1      46.107   3.028  16.411  0.00  0.00    +0.000 HD
ATOM     13  H   UNL     1      47.373   3.269  17.602  0.00  0.00    +0.000 HD
ENDBRANCH   5   9
BRANCH   1  14
ATOM     14  C   UNL     1      44.273   4.540  10.334  0.00  0.00    +0.000 C 
BRANCH  14  15
ATOM     15  C   UNL     1      44.270   4.427   8.803  0.00  0.00    +0.000 C 
BRANCH  15  20
ATOM     16  C   UNL     1      47.001   2.381   7.058  0.00  0.00    +0.000 A 
ATOM     17  C   UNL     1      46.792   1.119   7.627  0.00  0.00    +0.000 A 
ATOM     18  C   UNL     1      45.748   0.917   8.531  0.00  0.00    +0.000 A 
ATOM     19  C   UNL     1      44.913   1.976   8.891  0.00  0.00    +0.000 A 
ATOM     20  C   UNL     1      45.109   3.252   8.348  0.00  0.00    +0.000 A 
ATOM     21  C   UNL     1      46.148   3.438   7.421  0.00  0.00    +0.000 A 
BRANCH  16  22
ATOM     22  C   UNL     1      48.120   2.599   6.071  0.00  0.00    +0.000 C 
BRANCH  22  23
ATOM     23  N   UNL     1      48.246   1.476   5.149  0.00  0.00    +0.000 NA
ATOM     24  H   UNL     1      48.824   0.757   5.579  0.00  0.00    +0.000 HD
ATOM     25  H   UNL     1      48.748   1.791   4.320  0.00  0.00    +0.000 HD
ENDBRANCH  22  23
ENDBRANCH  16  22
ENDBRANCH  15  20
ENDBRANCH  14  15
ENDBRANCH   1  14
TORSDOF 6
ENDMDL
MODEL 4
REMARK VINA RESULT:    -6.682      3.818      6.390
REMARK INTER + INTRA:          -9.307
REMARK INTER:                  -8.996
REMARK INTRA:                  -0.311
REMARK UNBOUND:                -0.477
REMARK  Name = 
REMARK  6 active torsions:
REMARK  status: ('A' for Active; 'I' for Inactive)
REMARK    1  A    between atoms: N_1  and  C_2
REMARK    2  A    between atoms: C_2  and  C_3
REMARK    3  A    between atoms: C_7  and  C_8
REMARK    4  A    between atoms: C_8  and  C_9
REMARK    5  A    between atoms: C_9  and  N_10
REMARK    6  A    between atoms: C_14  and  C_15
REMARK                            x       y       z     vdW  Elec       q    Type
REMARK                         _______ _______ _______ _____ _____    ______ ____
ROOT
ATOM      1  N   UNL     1      47.240   3.535  14.668  0.00  0.00    +0.000 N 
ATOM      2  C   UNL     1      46.279   3.987  13.769  0.00  0.00    +0.000 A 
ATOM      3  C   UNL     1      45.867   5.321  13.662  0.00  0.00    +0.000 A 
ATOM      4  N   UNL     1      44.963   5.785  12.758  0.00  0.00    +0.000 NA
ATOM      5  C   UNL     1      44.491   4.839  11.909  0.00  0.00    +0.000 A 
ATOM      6  C   UNL     1      44.891   3.512  11.985  0.00  0.00    +0.000 A 
ATOM      7  N   UNL     1      45.782   3.063  12.918  0.00  0.00    +0.000 NA
ATOM      8  H   UNL     1      47.212   2.518  14.677  0.00  0.00    +0.000 HD
ENDROOT
BRANCH   5   9
ATOM      9  C   UNL     1      43.529   5.273  10.862  0.00  0.00    +0.000 C 
ATOM     10  N   UNL     1      42.776   6.384  11.149  0.00  0.00    +0.000 N 
ATOM     11  O   UNL     1      43.413   4.682   9.800  0.00  0.00    +0.000 OA
ATOM     12  H   UNL     1      42.899   6.875  12.026  0.00  0.00    +0.000 HD
ATOM     13  H   UNL     1      42.127   6.727  10.457  0.00  0.00    +0.000 HD
ENDBRANCH   5   9
BRANCH   1  14
ATOM     14  C   UNL     1      47.363   4.210  15.956  0.00  0.00    +0.000 C 
BRANCH  14  15
ATOM     15  C   UNL     1      47.817   3.248  17.063  0.00  0.00    +0.000 C 
BRANCH  15  20
ATOM     16  C   UNL     1      51.527   2.442  17.598  0.00  0.00    +0.000 A 
ATOM     17  C   UNL     1      52.064   3.729  17.714  0.00  0.00    +0.000 A 
ATOM     18  C   UNL     1      51.232   4.848  17.667  0.00  0.00    +0.000 A 
ATOM     19  C   UNL     1      49.856   4.695  17.486  0.00  0.00    +0.000 A 
ATOM     20  C   UNL     1      49.294   3.419  17.353  0.00  0.00    +0.000 A 
ATOM     21  C   UNL     1      50.138   2.299  17.426  0.00  0.00    +0.000 A 
BRANCH  16  22
ATOM     22  C   UNL     1      52.422   1.230  17.662  0.00  0.00    +0.000 C 
BRANCH  22  23
ATOM     23  N   UNL     1      51.708   0.065  18.175  0.00  0.00    +0.000 NA
ATOM     24  H   UNL     1      51.301   0.296  19.079  0.00  0.00    +0.000 HD
ATOM     25  H   UNL     1      52.383  -0.679  18.345  0.00  0.00    +0.000 HD
ENDBRANCH  22  23
ENDBRANCH  16  22
ENDBRANCH  15  20
ENDBRANCH  14  15
ENDBRANCH   1  14
TORSDOF 6
ENDMDL
MODEL 5
REMARK VINA RESULT:    -6.412      4.060      7.176
REMARK INTER + INTRA:          -8.951
REMARK INTER:                  -8.462
REMARK INTRA:                  -0.489
REMARK UNBOUND:                -0.477
REMARK  Name = 
REMARK  6 active torsions:
REMARK  status: ('A' for Active; 'I' for Inactive)
REMARK    1  A    between atoms: N_1  and  C_2
REMARK    2  A    between atoms: C_2  and  C_3
REMARK    3  A    between atoms: C_7  and  C_8
REMARK    4  A    between atoms: C_8  and  C_9
REMARK    5  A    between atoms: C_9  and  N_10
REMARK    6  A    between atoms: C_14  and  C_15
REMARK                            x       y       z     vdW  Elec       q    Type
REMARK                         _______ _______ _______ _____ _____    ______ ____
ROOT
ATOM      1  N   UNL     1      47.554   6.868  13.372  0.00  0.00    +0.000 N 
ATOM      2  C   UNL     1      47.612   5.941  14.408  0.00  0.00    +0.000 A 
ATOM      3  C   UNL     1      46.884   4.745  14.435  0.00  0.00    +0.000 A 
ATOM      4  N   UNL     1      46.965   3.808  15.418  0.00  0.00    +0.000 NA
ATOM      5  C   UNL     1      47.858   4.104  16.394  0.00  0.00    +0.000 A 
ATOM      6  C   UNL     1      48.601   5.276  16.387  0.00  0.00    +0.000 A 
ATOM      7  N   UNL     1      48.485   6.216  15.402  0.00  0.00    +0.000 NA
ATOM      8  H   UNL     1      48.015   7.719  13.683  0.00  0.00    +0.000 HD
ENDROOT
BRANCH   5   9
ATOM      9  C   UNL     1      48.036   3.111  17.487  0.00  0.00    +0.000 C 
ATOM     10  N   UNL     1      46.898   2.499  17.946  0.00  0.00    +0.000 N 
ATOM     11  O   UNL     1      49.135   2.845  17.950  0.00  0.00    +0.000 OA
ATOM     12  H   UNL     1      45.998   2.715  17.538  0.00  0.00    +0.000 HD
ATOM     13  H   UNL     1      46.976   1.801  18.671  0.00  0.00    +0.000 HD
ENDBRANCH   5   9
BRANCH   1  14
ATOM     14  C   UNL     1      46.302   7.018  12.638  0.00  0.00    +0.000 C 
BRANCH  14  15
ATOM     15  C   UNL     1      46.504   6.858  11.125  0.00  0.00    +0.000 C 
BRANCH  15  20
ATOM     16  C   UNL     1      44.114   3.866  10.965  0.00  0.00    +0.000 A 
ATOM     17  C   UNL     1      44.220   3.513   9.614  0.00  0.00    +0.000 A 
ATOM     18  C   UNL     1      45.091   4.204   8.771  0.00  0.00    +0.000 A 
ATOM     19  C   UNL     1      45.853   5.266   9.262  0.00  0.00    +0.000 A 
ATOM     20  C   UNL     1      45.755   5.649  10.606  0.00  0.00    +0.000 A 
ATOM     21  C   UNL     1      44.893   4.931  11.451  0.00  0.00    +0.000 A 
BRANCH  16  22
ATOM     22  C   UNL     1      43.184   3.112  11.882  0.00  0.00    +0.000 C 
BRANCH  22  23
ATOM     23  N   UNL     1      43.148   1.691  11.556  0.00  0.00    +0.000 NA
ATOM     24  H   UNL     1      42.925   1.582  10.569  0.00  0.00    +0.000 HD
ATOM     25  H   UNL     1      42.383   1.259  12.073  0.00  0.00    +0.000 HD
ENDBRANCH  22  23
ENDBRANCH  16  22
ENDBRANCH  15  20
ENDBRANCH  14  15
ENDBRANCH   1  14
TORSDOF 6
ENDMDL
MODEL 6
REMARK VINA RESULT:    -6.265      3.875      6.007
REMARK INTER + INTRA:          -8.756
REMARK INTER:                  -8.238
REMARK INTRA:                  -0.518
REMARK UNBOUND:                -0.477
REMARK  Name = 
REMARK  6 active torsions:
REMARK  status: ('A' for Active; 'I' for Inactive)
REMARK    1  A    between atoms: N_1  and  C_2
REMARK    2  A    between atoms: C_2  and  C_3
REMARK    3  A    between atoms: C_7  and  C_8
REMARK    4  A    between atoms: C_8  and  C_9
REMARK    5  A    between atoms: C_9  and  N_10
REMARK    6  A    between atoms: C_14  and  C_15
REMARK                            x       y       z     vdW  Elec       q    Type
REMARK                         _______ _______ _______ _____ _____    ______ ____
ROOT
ATOM      1  N   UNL     1      47.251   7.226  13.975  0.00  0.00    +0.000 N 
ATOM      2  C   UNL     1      46.452   6.244  13.400  0.00  0.00    +0.000 A 
ATOM      3  C   UNL     1      46.614   4.870  13.618  0.00  0.00    +0.000 A 
ATOM      4  N   UNL     1      45.812   3.901  13.099  0.00  0.00    +0.000 NA
ATOM      5  C   UNL     1      44.783   4.373  12.354  0.00  0.00    +0.000 A 
ATOM      6  C   UNL     1      44.591   5.729  12.132  0.00  0.00    +0.000 A 
ATOM      7  N   UNL     1      45.424   6.684  12.642  0.00  0.00    +0.000 NA
ATOM      8  H   UNL     1      47.053   8.108  13.511  0.00  0.00    +0.000 HD
ENDROOT
BRANCH   5   9
ATOM      9  C   UNL     1      43.835   3.379  11.784  0.00  0.00    +0.000 C 
ATOM     10  N   UNL     1      43.689   2.206  12.481  0.00  0.00    +0.000 N 
ATOM     11  O   UNL     1      43.211   3.591  10.755  0.00  0.00    +0.000 OA
ATOM     12  H   UNL     1      44.197   2.054  13.342  0.00  0.00    +0.000 HD
ATOM     13  H   UNL     1      43.037   1.514  12.142  0.00  0.00    +0.000 HD
ENDBRANCH   5   9
BRANCH   1  14
ATOM     14  C   UNL     1      48.651   6.916  14.247  0.00  0.00    +0.000 C 
BRANCH  14  15
ATOM     15  C   UNL     1      49.057   7.312  15.674  0.00  0.00    +0.000 C 
BRANCH  15  20
ATOM     16  C   UNL     1      48.971   3.915  17.448  0.00  0.00    +0.000 A 
ATOM     17  C   UNL     1      50.321   3.756  17.781  0.00  0.00    +0.000 A 
ATOM     18  C   UNL     1      51.246   4.756  17.479  0.00  0.00    +0.000 A 
ATOM     19  C   UNL     1      50.836   5.920  16.825  0.00  0.00    +0.000 A 
ATOM     20  C   UNL     1      49.494   6.098  16.467  0.00  0.00    +0.000 A 
ATOM     21  C   UNL     1      48.568   5.095  16.797  0.00  0.00    +0.000 A 
BRANCH  16  22
ATOM     22  C   UNL     1      47.968   2.842  17.785  0.00  0.00    +0.000 C 
BRANCH  22  23
ATOM     23  N   UNL     1      46.604   3.276  17.499  0.00  0.00    +0.000 NA
ATOM     24  H   UNL     1      46.587   3.741  16.594  0.00  0.00    +0.000 HD
ATOM     25  H   UNL     1      46.336   3.977  18.188  0.00  0.00    +0.000 HD
ENDBRANCH  22  23
ENDBRANCH  16  22
ENDBRANCH  15  20
ENDBRANCH  14  15
ENDBRANCH   1  14
TORSDOF 6
ENDMDL
MODEL 7
REMARK VINA RESULT:    -6.168      3.513      7.205
REMARK INTER + INTRA:          -8.628
REMARK INTER:                  -8.457
REMARK INTRA:                  -0.171
REMARK UNBOUND:                -0.477
REMARK  Name = 
REMARK  6 active torsions:
REMARK  status: ('A' for Active; 'I' for Inactive)
REMARK    1  A    between atoms: N_1  and  C_2
REMARK    2  A    between atoms: C_2  and  C_3
REMARK    3  A    between atoms: C_7  and  C_8
REMARK    4  A    between atoms: C_8  and  C_9
REMARK    5  A    between atoms: C_9  and  N_10
REMARK    6  A    between atoms: C_14  and  C_15
REMARK                            x       y       z     vdW  Elec       q    Type
REMARK                         _______ _______ _______ _____ _____    ______ ____
ROOT
ATOM      1  N   UNL     1      48.266   6.992  13.056  0.00  0.00    +0.000 N 
ATOM      2  C   UNL     1      48.021   6.118  14.109  0.00  0.00    +0.000 A 
ATOM      3  C   UNL     1      47.333   4.904  13.983  0.00  0.00    +0.000 A 
ATOM      4  N   UNL     1      47.126   4.019  14.994  0.00  0.00    +0.000 NA
ATOM      5  C   UNL     1      47.681   4.385  16.175  0.00  0.00    +0.000 A 
ATOM      6  C   UNL     1      48.378   5.576  16.327  0.00  0.00    +0.000 A 
ATOM      7  N   UNL     1      48.553   6.463  15.303  0.00  0.00    +0.000 NA
ATOM      8  H   UNL     1      48.602   7.869  13.444  0.00  0.00    +0.000 HD
ENDROOT
BRANCH   5   9
ATOM      9  C   UNL     1      47.536   3.451  17.322  0.00  0.00    +0.000 C 
ATOM     10  N   UNL     1      48.592   3.390  18.196  0.00  0.00    +0.000 N 
ATOM     11  O   UNL     1      46.531   2.776  17.489  0.00  0.00    +0.000 OA
ATOM     12  H   UNL     1      49.409   3.971  18.056  0.00  0.00    +0.000 HD
ATOM     13  H   UNL     1      48.526   2.786  19.002  0.00  0.00    +0.000 HD
ENDBRANCH   5   9
BRANCH   1  14
ATOM     14  C   UNL     1      47.289   7.072  11.974  0.00  0.00    +0.000 C 
BRANCH  14  15
ATOM     15  C   UNL     1      45.879   7.371  12.500  0.00  0.00    +0.000 C 
BRANCH  15  20
ATOM     16  C   UNL     1      44.190   4.670  10.367  0.00  0.00    +0.000 A 
ATOM     17  C   UNL     1      43.197   4.221  11.245  0.00  0.00    +0.000 A 
ATOM     18  C   UNL     1      43.041   4.815  12.498  0.00  0.00    +0.000 A 
ATOM     19  C   UNL     1      43.886   5.853  12.895  0.00  0.00    +0.000 A 
ATOM     20  C   UNL     1      44.898   6.312  12.042  0.00  0.00    +0.000 A 
ATOM     21  C   UNL     1      45.029   5.722  10.774  0.00  0.00    +0.000 A 
BRANCH  16  22
ATOM     22  C   UNL     1      44.351   4.039   9.007  0.00  0.00    +0.000 C 
BRANCH  22  23
ATOM     23  N   UNL     1      45.445   4.652   8.260  0.00  0.00    +0.000 NA
ATOM     24  H   UNL     1      46.287   4.635   8.831  0.00  0.00    +0.000 HD
ATOM     25  H   UNL     1      45.221   5.634   8.106  0.00  0.00    +0.000 HD
ENDBRANCH  22  23
ENDBRANCH  16  22
ENDBRANCH  15  20
ENDBRANCH  14  15
ENDBRANCH   1  14
TORSDOF 6
ENDMDL
MODEL 8
REMARK VINA RESULT:    -6.100      4.275      8.393
REMARK INTER + INTRA:          -8.538
REMARK INTER:                  -8.202
REMARK INTRA:                  -0.336
REMARK UNBOUND:                -0.477
REMARK  Name = 
REMARK  6 active torsions:
REMARK  status: ('A' for Active; 'I' for Inactive)
REMARK    1  A    between atoms: N_1  and  C_2
REMARK    2  A    between atoms: C_2  and  C_3
REMARK    3  A    between atoms: C_7  and  C_8
REMARK    4  A    between atoms: C_8  and  C_9
REMARK    5  A    between atoms: C_9  and  N_10
REMARK    6  A    between atoms: C_14  and  C_15
REMARK                            x       y       z     vdW  Elec       q    Type
REMARK                         _______ _______ _______ _____ _____    ______ ____
ROOT
ATOM      1  N   UNL     1      46.686   4.193  14.749  0.00  0.00    +0.000 N 
ATOM      2  C   UNL     1      47.380   4.260  15.953  0.00  0.00    +0.000 A 
ATOM      3  C   UNL     1      48.172   5.346  16.346  0.00  0.00    +0.000 A 
ATOM      4  N   UNL     1      48.818   5.445  17.539  0.00  0.00    +0.000 NA
ATOM      5  C   UNL     1      48.609   4.396  18.372  0.00  0.00    +0.000 A 
ATOM      6  C   UNL     1      47.820   3.313  18.013  0.00  0.00    +0.000 A 
ATOM      7  N   UNL     1      47.200   3.222  16.799  0.00  0.00    +0.000 NA
ATOM      8  H   UNL     1      46.357   3.239  14.626  0.00  0.00    +0.000 HD
ENDROOT
BRANCH   5   9
ATOM      9  C   UNL     1      49.248   4.447  19.714  0.00  0.00    +0.000 C 
ATOM     10  N   UNL     1      48.515   3.940  20.756  0.00  0.00    +0.000 N 
ATOM     11  O   UNL     1      50.367   4.907  19.885  0.00  0.00    +0.000 OA
ATOM     12  H   UNL     1      47.598   3.543  20.595  0.00  0.00    +0.000 HD
ATOM     13  H   UNL     1      48.920   3.932  21.681  0.00  0.00    +0.000 HD
ENDBRANCH   5   9
BRANCH   1  14
ATOM     14  C   UNL     1      47.252   4.859  13.580  0.00  0.00    +0.000 C 
BRANCH  14  15
ATOM     15  C   UNL     1      46.414   6.072  13.153  0.00  0.00    +0.000 C 
BRANCH  15  20
ATOM     16  C   UNL     1      44.203   4.689  10.344  0.00  0.00    +0.000 A 
ATOM     17  C   UNL     1      42.957   4.653  10.980  0.00  0.00    +0.000 A 
ATOM     18  C   UNL     1      42.819   5.114  12.290  0.00  0.00    +0.000 A 
ATOM     19  C   UNL     1      43.928   5.601  12.985  0.00  0.00    +0.000 A 
ATOM     20  C   UNL     1      45.189   5.635  12.377  0.00  0.00    +0.000 A 
ATOM     21  C   UNL     1      45.311   5.190  11.050  0.00  0.00    +0.000 A 
BRANCH  16  22
ATOM     22  C   UNL     1      44.352   4.204   8.924  0.00  0.00    +0.000 C 
BRANCH  22  23
ATOM     23  N   UNL     1      45.545   4.757   8.292  0.00  0.00    +0.000 NA
ATOM     24  H   UNL     1      45.522   5.772   8.373  0.00  0.00    +0.000 HD
ATOM     25  H   UNL     1      45.511   4.547   7.296  0.00  0.00    +0.000 HD
ENDBRANCH  22  23
ENDBRANCH  16  22
ENDBRANCH  15  20
ENDBRANCH  14  15
ENDBRANCH   1  14
TORSDOF 6
ENDMDL
MODEL 9
REMARK VINA RESULT:    -5.470      3.999      6.512
REMARK INTER + INTRA:          -7.706
REMARK INTER:                  -7.433
REMARK INTRA:                  -0.273
REMARK UNBOUND:                -0.477
REMARK  Name = 
REMARK  6 active torsions:
REMARK  status: ('A' for Active; 'I' for Inactive)
REMARK    1  A    between atoms: N_1  and  C_2
REMARK    2  A    between atoms: C_2  and  C_3
REMARK    3  A    between atoms: C_7  and  C_8
REMARK    4  A    between atoms: C_8  and  C_9
REMARK    5  A    between atoms: C_9  and  N_10
REMARK    6  A    between atoms: C_14  and  C_15
REMARK                            x       y       z     vdW  Elec       q    Type
REMARK                         _______ _______ _______ _____ _____    ______ ____
ROOT
ATOM      1  N   UNL     1      47.322   3.647  14.689  0.00  0.00    +0.000 N 
ATOM      2  C   UNL     1      46.370   4.137  13.802  0.00  0.00    +0.000 A 
ATOM      3  C   UNL     1      46.157   5.497  13.547  0.00  0.00    +0.000 A 
ATOM      4  N   UNL     1      45.262   5.989  12.649  0.00  0.00    +0.000 NA
ATOM      5  C   UNL     1      44.583   5.036  11.964  0.00  0.00    +0.000 A 
ATOM      6  C   UNL     1      44.781   3.681  12.187  0.00  0.00    +0.000 A 
ATOM      7  N   UNL     1      45.669   3.209  13.113  0.00  0.00    +0.000 NA
ATOM      8  H   UNL     1      47.141   2.657  14.834  0.00  0.00    +0.000 HD
ENDROOT
BRANCH   5   9
ATOM      9  C   UNL     1      43.613   5.491  10.932  0.00  0.00    +0.000 C 
ATOM     10  N   UNL     1      43.094   6.750  11.097  0.00  0.00    +0.000 N 
ATOM     11  O   UNL     1      43.295   4.789   9.984  0.00  0.00    +0.000 OA
ATOM     12  H   UNL     1      43.384   7.327  11.876  0.00  0.00    +0.000 HD
ATOM     13  H   UNL     1      42.450   7.108  10.407  0.00  0.00    +0.000 HD
ENDBRANCH   5   9
BRANCH   1  14
ATOM     14  C   UNL     1      47.654   4.443  15.867  0.00  0.00    +0.000 C 
BRANCH  14  15
ATOM     15  C   UNL     1      47.504   3.634  17.163  0.00  0.00    +0.000 C 
BRANCH  15  20
ATOM     16  C   UNL     1      49.507   5.158  20.053  0.00  0.00    +0.000 A 
ATOM     17  C   UNL     1      48.625   6.151  20.494  0.00  0.00    +0.000 A 
ATOM     18  C   UNL     1      47.373   6.299  19.895  0.00  0.00    +0.000 A 
ATOM     19  C   UNL     1      46.995   5.468  18.838  0.00  0.00    +0.000 A 
ATOM     20  C   UNL     1      47.865   4.476  18.368  0.00  0.00    +0.000 A 
ATOM     21  C   UNL     1      49.113   4.321  18.994  0.00  0.00    +0.000 A 
BRANCH  16  22
ATOM     22  C   UNL     1      50.856   4.987  20.707  0.00  0.00    +0.000 C 
BRANCH  22  23
ATOM     23  N   UNL     1      51.740   4.155  19.899  0.00  0.00    +0.000 NA
ATOM     24  H   UNL     1      51.940   4.636  19.024  0.00  0.00    +0.000 HD
ATOM     25  H   UNL     1      51.244   3.301  19.650  0.00  0.00    +0.000 HD
ENDBRANCH  22  23
ENDBRANCH  16  22
ENDBRANCH  15  20
ENDBRANCH  14  15
ENDBRANCH   1  14
TORSDOF 6
ENDMDL
