MODEL 1
REMARK VINA RESULT:    -7.458      0.000      0.000
REMARK INTER + INTRA:         -13.381
REMARK INTER:                 -11.818
REMARK INTRA:                  -1.563
REMARK UNBOUND:                -1.563
REMARK  Name = 
REMARK  11 active torsions:
REMARK  status: ('A' for Active; 'I' for Inactive)
REMARK    1  A    between atoms: N_1  and  C_2
REMARK    2  A    between atoms: C_2  and  C_3
REMARK    3  A    between atoms: C_2  and  C_11
REMARK    4  A    between atoms: C_3  and  N_4
REMARK    5  A    between atoms: N_4  and  C_5
REMARK    6  A    between atoms: C_14  and  C_15
REMARK    7  A    between atoms: C_15  and  N_16
REMARK    8  A    between atoms: N_16  and  C_17
REMARK    9  A    between atoms: C_17  and  C_18
REMARK   10  A    between atoms: C_18  and  O_19
REMARK   11  A    between atoms: C_20  and  C_22
REMARK                            x       y       z     vdW  Elec       q    Type
REMARK                         _______ _______ _______ _____ _____    ______ ____
ROOT
ATOM      1  C   UNL     1      45.231   5.236  12.780  0.00  0.00    +0.000 A 
ATOM      2  C   UNL     1      46.071   4.762  13.807  0.00  0.00    +0.000 A 
ATOM      3  C   UNL     1      47.361   5.255  13.998  0.00  0.00    +0.000 A 
ATOM      4  C   UNL     1      47.818   6.364  13.298  0.00  0.00    +0.000 A 
ATOM      5  C   UNL     1      47.052   6.769  12.182  0.00  0.00    +0.000 A 
ATOM      6  C   UNL     1      45.796   6.172  11.898  0.00  0.00    +0.000 A 
ENDROOT
BRANCH   1   7
ATOM      7  C   UNL     1      43.799   4.687  12.656  0.00  0.00    +0.000 C 
BRANCH   7   8
ATOM      8  N   UNL     1      42.834   5.620  13.294  0.00  0.00    +0.000 NA
ATOM      9  H   UNL     1      43.104   6.591  13.142  0.00  0.00    +0.000 HD
ATOM     10  H   UNL     1      42.832   5.455  14.291  0.00  0.00    +0.000 HD
ENDBRANCH   7   8
BRANCH   7  11
ATOM     11  C   UNL     1      43.324   4.422  11.177  0.00  0.00    +0.000 C 
BRANCH  11  12
ATOM     12  N   UNL     1      43.667   3.094  10.660  0.00  0.00    +0.000 NA
ATOM     13  H   UNL     1      42.873   2.734  10.130  0.00  0.00    +0.000 HD
BRANCH  12  14
ATOM     14  C   UNL     1      44.880   3.000   9.835  0.00  0.00    +0.000 C 
ATOM     15  C   UNL     1      44.931   4.264   8.949  0.00  0.00    +0.000 C 
ATOM     16  C   UNL     1      46.138   4.271   8.012  0.00  0.00    +0.000 C 
ATOM     17  C   UNL     1      46.194   3.009   7.162  0.00  0.00    +0.000 C 
ATOM     18  C   UNL     1      46.201   1.764   8.040  0.00  0.00    +0.000 C 
ATOM     19  C   UNL     1      44.984   1.729   8.969  0.00  0.00    +0.000 C 
ENDBRANCH  12  14
ENDBRANCH  11  12
ENDBRANCH   7  11
ENDBRANCH   1   7
BRANCH   4  20
ATOM     20  C   UNL     1      48.951   7.187  13.928  0.00  0.00    +0.000 C 
BRANCH  20  21
ATOM     21  N   UNL     1      48.822   7.616  15.331  0.00  0.00    +0.000 N 
ATOM     22  C   UNL     1      49.670   6.938  16.225  0.00  0.00    +0.000 C 
ATOM     23  O   UNL     1      50.421   6.049  15.865  0.00  0.00    +0.000 OA
BRANCH  22  24
ATOM     24  C   UNL     1      49.613   7.308  17.653  0.00  0.00    +0.000 A 
ATOM     25  C   UNL     1      50.293   8.365  18.229  0.00  0.00    +0.000 A 
ATOM     26  S   UNL     1      49.970   8.591  19.880  0.00  0.00    +0.000 S 
ATOM     27  C   UNL     1      48.803   7.363  19.852  0.00  0.00    +0.000 A 
ATOM     28  N   UNL     1      48.029   7.126  20.942  0.00  0.00    +0.000 NA
ATOM     29  C   UNL     1      47.151   6.206  20.769  0.00  0.00    +0.000 A 
ATOM     30  N   UNL     1      47.010   5.455  19.631  0.00  0.00    +0.000 N 
ATOM     31  C   UNL     1      47.835   5.583  18.531  0.00  0.00    +0.000 A 
ATOM     32  O   UNL     1      47.797   4.773  17.624  0.00  0.00    +0.000 OA
ATOM     33  C   UNL     1      48.751   6.706  18.636  0.00  0.00    +0.000 A 
ATOM     34  H   UNL     1      46.339   4.700  19.582  0.00  0.00    +0.000 HD
ENDBRANCH  22  24
BRANCH  21  35
ATOM     35  C   UNL     1      48.125   8.906  15.626  0.00  0.00    +0.000 C 
BRANCH  35  36
ATOM     36  C   UNL     1      48.860  10.215  15.265  0.00  0.00    +0.000 C 
BRANCH  36  37
ATOM     37  O   UNL     1      48.361  10.712  14.033  0.00  0.00    +0.000 OA
ATOM     38  H   UNL     1      48.821  11.551  13.861  0.00  0.00    +0.000 HD
ENDBRANCH  36  37
ENDBRANCH  35  36
ENDBRANCH  21  35
ENDBRANCH  20  21
ENDBRANCH   4  20
TORSDOF 11
ENDMDL
MODEL 2
REMARK VINA RESULT:    -7.123      1.968      2.702
REMARK INTER + INTRA:         -12.850
REMARK INTER:                 -11.731
REMARK INTRA:                  -1.120
REMARK UNBOUND:                -1.563
REMARK  Name = 
REMARK  11 active torsions:
REMARK  status: ('A' for Active; 'I' for Inactive)
REMARK    1  A    between atoms: N_1  and  C_2
REMARK    2  A    between atoms: C_2  and  C_3
REMARK    3  A    between atoms: C_2  and  C_11
REMARK    4  A    between atoms: C_3  and  N_4
REMARK    5  A    between atoms: N_4  and  C_5
REMARK    6  A    between atoms: C_14  and  C_15
REMARK    7  A    between atoms: C_15  and  N_16
REMARK    8  A    between atoms: N_16  and  C_17
REMARK    9  A    between atoms: C_17  and  C_18
REMARK   10  A    between atoms: C_18  and  O_19
REMARK   11  A    between atoms: C_20  and  C_22
REMARK                            x       y       z     vdW  Elec       q    Type
REMARK                         _______ _______ _______ _____ _____    ______ ____
ROOT
ATOM      1  C   UNL     1      45.234   5.086  11.916  0.00  0.00    +0.000 A 
ATOM      2  C   UNL     1      45.960   6.294  11.904  0.00  0.00    +0.000 A 
ATOM      3  C   UNL     1      46.827   6.649  12.936  0.00  0.00    +0.000 A 
ATOM      4  C   UNL     1      47.153   5.750  13.942  0.00  0.00    +0.000 A 
ATOM      5  C   UNL     1      46.346   4.595  14.048  0.00  0.00    +0.000 A 
ATOM      6  C   UNL     1      45.360   4.298  13.072  0.00  0.00    +0.000 A 
ENDROOT
BRANCH   1   7
ATOM      7  C   UNL     1      44.334   4.729  10.721  0.00  0.00    +0.000 C 
BRANCH   7   8
ATOM      8  N   UNL     1      43.251   5.736  10.573  0.00  0.00    +0.000 NA
ATOM      9  H   UNL     1      42.668   5.532   9.762  0.00  0.00    +0.000 HD
ATOM     10  H   UNL     1      43.668   6.645  10.429  0.00  0.00    +0.000 HD
ENDBRANCH   7   8
BRANCH   7  11
ATOM     11  C   UNL     1      45.090   4.612   9.343  0.00  0.00    +0.000 C 
BRANCH  11  12
ATOM     12  N   UNL     1      44.393   3.805   8.337  0.00  0.00    +0.000 NA
ATOM     13  H   UNL     1      43.868   4.428   7.724  0.00  0.00    +0.000 HD
BRANCH  12  14
ATOM     14  C   UNL     1      45.224   2.910   7.518  0.00  0.00    +0.000 C 
ATOM     15  C   UNL     1      45.778   1.814   8.456  0.00  0.00    +0.000 C 
ATOM     16  C   UNL     1      46.693   0.832   7.727  0.00  0.00    +0.000 C 
ATOM     17  C   UNL     1      47.824   1.551   7.003  0.00  0.00    +0.000 C 
ATOM     18  C   UNL     1      47.273   2.592   6.037  0.00  0.00    +0.000 C 
ATOM     19  C   UNL     1      46.373   3.601   6.757  0.00  0.00    +0.000 C 
ENDBRANCH  12  14
ENDBRANCH  11  12
ENDBRANCH   7  11
ENDBRANCH   1   7
BRANCH   4  20
ATOM     20  C   UNL     1      48.485   5.958  14.679  0.00  0.00    +0.000 C 
BRANCH  20  21
ATOM     21  N   UNL     1      48.457   6.301  16.112  0.00  0.00    +0.000 N 
ATOM     22  C   UNL     1      48.541   5.192  16.975  0.00  0.00    +0.000 C 
ATOM     23  O   UNL     1      48.598   4.048  16.563  0.00  0.00    +0.000 OA
BRANCH  22  24
ATOM     24  C   UNL     1      48.527   5.442  18.429  0.00  0.00    +0.000 A 
ATOM     25  C   UNL     1      47.412   5.796  19.165  0.00  0.00    +0.000 A 
ATOM     26  S   UNL     1      47.689   5.942  20.834  0.00  0.00    +0.000 S 
ATOM     27  C   UNL     1      49.284   5.401  20.647  0.00  0.00    +0.000 A 
ATOM     28  N   UNL     1      50.060   5.162  21.736  0.00  0.00    +0.000 NA
ATOM     29  C   UNL     1      51.227   4.708  21.456  0.00  0.00    +0.000 A 
ATOM     30  N   UNL     1      51.719   4.525  20.190  0.00  0.00    +0.000 N 
ATOM     31  C   UNL     1      51.012   4.848  19.048  0.00  0.00    +0.000 A 
ATOM     32  O   UNL     1      51.553   4.850  17.958  0.00  0.00    +0.000 OA
ATOM     33  C   UNL     1      49.638   5.236  19.321  0.00  0.00    +0.000 A 
ATOM     34  H   UNL     1      52.671   4.224  20.037  0.00  0.00    +0.000 HD
ENDBRANCH  22  24
BRANCH  21  35
ATOM     35  C   UNL     1      48.705   7.719  16.516  0.00  0.00    +0.000 C 
BRANCH  35  36
ATOM     36  C   UNL     1      48.626   8.800  15.417  0.00  0.00    +0.000 C 
BRANCH  36  37
ATOM     37  O   UNL     1      47.291   9.271  15.314  0.00  0.00    +0.000 OA
ATOM     38  H   UNL     1      46.770   8.558  14.906  0.00  0.00    +0.000 HD
ENDBRANCH  36  37
ENDBRANCH  35  36
ENDBRANCH  21  35
ENDBRANCH  20  21
ENDBRANCH   4  20
TORSDOF 11
ENDMDL
MODEL 3
REMARK VINA RESULT:    -7.115      2.081      3.218
REMARK INTER + INTRA:         -12.838
REMARK INTER:                 -11.689
REMARK INTRA:                  -1.148
REMARK UNBOUND:                -1.563
REMARK  Name = 
REMARK  11 active torsions:
REMARK  status: ('A' for Active; 'I' for Inactive)
REMARK    1  A    between atoms: N_1  and  C_2
REMARK    2  A    between atoms: C_2  and  C_3
REMARK    3  A    between atoms: C_2  and  C_11
REMARK    4  A    between atoms: C_3  and  N_4
REMARK    5  A    between atoms: N_4  and  C_5
REMARK    6  A    between atoms: C_14  and  C_15
REMARK    7  A    between atoms: C_15  and  N_16
REMARK    8  A    between atoms: N_16  and  C_17
REMARK    9  A    between atoms: C_17  and  C_18
REMARK   10  A    between atoms: C_18  and  O_19
REMARK   11  A    between atoms: C_20  and  C_22
REMARK                            x       y       z     vdW  Elec       q    Type
REMARK                         _______ _______ _______ _____ _____    ______ ____
ROOT
ATOM      1  C   UNL     1      44.696   4.410  12.061  0.00  0.00    +0.000 A 
ATOM      2  C   UNL     1      44.823   5.700  12.613  0.00  0.00    +0.000 A 
ATOM      3  C   UNL     1      45.779   6.002  13.582  0.00  0.00    +0.000 A 
ATOM      4  C   UNL     1      46.771   5.092  13.921  0.00  0.00    +0.000 A 
ATOM      5  C   UNL     1      46.588   3.761  13.483  0.00  0.00    +0.000 A 
ATOM      6  C   UNL     1      45.528   3.417  12.605  0.00  0.00    +0.000 A 
ENDROOT
BRANCH   1   7
ATOM      7  C   UNL     1      43.655   4.155  10.958  0.00  0.00    +0.000 C 
BRANCH   7   8
ATOM      8  N   UNL     1      43.311   5.428  10.271  0.00  0.00    +0.000 NA
ATOM      9  H   UNL     1      43.495   6.231  10.872  0.00  0.00    +0.000 HD
ATOM     10  H   UNL     1      42.324   5.426  10.056  0.00  0.00    +0.000 HD
ENDBRANCH   7   8
BRANCH   7  11
ATOM     11  C   UNL     1      44.099   3.110   9.865  0.00  0.00    +0.000 C 
BRANCH  11  12
ATOM     12  N   UNL     1      44.409   3.695   8.557  0.00  0.00    +0.000 NA
ATOM     13  H   UNL     1      44.857   4.600   8.701  0.00  0.00    +0.000 HD
BRANCH  12  14
ATOM     14  C   UNL     1      45.236   2.886   7.651  0.00  0.00    +0.000 C 
ATOM     15  C   UNL     1      45.830   1.729   8.484  0.00  0.00    +0.000 C 
ATOM     16  C   UNL     1      46.745   0.826   7.658  0.00  0.00    +0.000 C 
ATOM     17  C   UNL     1      47.846   1.623   6.971  0.00  0.00    +0.000 C 
ATOM     18  C   UNL     1      47.254   2.728   6.104  0.00  0.00    +0.000 C 
ATOM     19  C   UNL     1      46.353   3.658   6.922  0.00  0.00    +0.000 C 
ENDBRANCH  12  14
ENDBRANCH  11  12
ENDBRANCH   7  11
ENDBRANCH   1   7
BRANCH   4  20
ATOM     20  C   UNL     1      48.074   5.647  14.514  0.00  0.00    +0.000 C 
BRANCH  20  21
ATOM     21  N   UNL     1      48.341   5.450  15.949  0.00  0.00    +0.000 N 
ATOM     22  C   UNL     1      49.356   6.276  16.468  0.00  0.00    +0.000 C 
ATOM     23  O   UNL     1      49.977   7.060  15.774  0.00  0.00    +0.000 OA
BRANCH  22  24
ATOM     24  C   UNL     1      49.687   6.153  17.902  0.00  0.00    +0.000 A 
ATOM     25  C   UNL     1      50.489   5.170  18.451  0.00  0.00    +0.000 A 
ATOM     26  S   UNL     1      50.752   5.331  20.120  0.00  0.00    +0.000 S 
ATOM     27  C   UNL     1      49.910   6.802  20.143  0.00  0.00    +0.000 A 
ATOM     28  N   UNL     1      49.875   7.555  21.271  0.00  0.00    +0.000 NA
ATOM     29  C   UNL     1      49.250   8.668  21.137  0.00  0.00    +0.000 A 
ATOM     30  N   UNL     1      48.602   9.075  20.000  0.00  0.00    +0.000 N 
ATOM     31  C   UNL     1      48.520   8.305  18.857  0.00  0.00    +0.000 A 
ATOM     32  O   UNL     1      47.780   8.620  17.944  0.00  0.00    +0.000 OA
ATOM     33  C   UNL     1      49.330   7.101  18.924  0.00  0.00    +0.000 A 
ATOM     34  H   UNL     1      48.073   9.936  19.980  0.00  0.00    +0.000 HD
ENDBRANCH  22  24
BRANCH  21  35
ATOM     35  C   UNL     1      47.334   4.714  16.773  0.00  0.00    +0.000 C 
BRANCH  35  36
ATOM     36  C   UNL     1      47.600   3.221  17.062  0.00  0.00    +0.000 C 
BRANCH  36  37
ATOM     37  O   UNL     1      46.488   2.668  17.748  0.00  0.00    +0.000 OA
ATOM     38  H   UNL     1      45.868   3.398  17.917  0.00  0.00    +0.000 HD
ENDBRANCH  36  37
ENDBRANCH  35  36
ENDBRANCH  21  35
ENDBRANCH  20  21
ENDBRANCH   4  20
TORSDOF 11
ENDMDL
MODEL 4
REMARK VINA RESULT:    -7.023      1.322      2.045
REMARK INTER + INTRA:         -12.691
REMARK INTER:                 -11.065
REMARK INTRA:                  -1.626
REMARK UNBOUND:                -1.563
REMARK  Name = 
REMARK  11 active torsions:
REMARK  status: ('A' for Active; 'I' for Inactive)
REMARK    1  A    between atoms: N_1  and  C_2
REMARK    2  A    between atoms: C_2  and  C_3
REMARK    3  A    between atoms: C_2  and  C_11
REMARK    4  A    between atoms: C_3  and  N_4
REMARK    5  A    between atoms: N_4  and  C_5
REMARK    6  A    between atoms: C_14  and  C_15
REMARK    7  A    between atoms: C_15  and  N_16
REMARK    8  A    between atoms: N_16  and  C_17
REMARK    9  A    between atoms: C_17  and  C_18
REMARK   10  A    between atoms: C_18  and  O_19
REMARK   11  A    between atoms: C_20  and  C_22
REMARK                            x       y       z     vdW  Elec       q    Type
REMARK                         _______ _______ _______ _____ _____    ______ ____
ROOT
ATOM      1  C   UNL     1      45.052   5.115  12.807  0.00  0.00    +0.000 A 
ATOM      2  C   UNL     1      46.033   4.402  13.527  0.00  0.00    +0.000 A 
ATOM      3  C   UNL     1      47.322   4.898  13.714  0.00  0.00    +0.000 A 
ATOM      4  C   UNL     1      47.652   6.198  13.355  0.00  0.00    +0.000 A 
ATOM      5  C   UNL     1      46.735   6.878  12.521  0.00  0.00    +0.000 A 
ATOM      6  C   UNL     1      45.471   6.315  12.209  0.00  0.00    +0.000 A 
ENDROOT
BRANCH   1   7
ATOM      7  C   UNL     1      43.633   4.536  12.682  0.00  0.00    +0.000 C 
BRANCH   7   8
ATOM      8  N   UNL     1      42.648   5.445  13.322  0.00  0.00    +0.000 NA
ATOM      9  H   UNL     1      42.951   6.417  13.262  0.00  0.00    +0.000 HD
ATOM     10  H   UNL     1      42.573   5.208  14.301  0.00  0.00    +0.000 HD
ENDBRANCH   7   8
BRANCH   7  11
ATOM     11  C   UNL     1      43.164   4.264  11.202  0.00  0.00    +0.000 C 
BRANCH  11  12
ATOM     12  N   UNL     1      43.598   2.974  10.656  0.00  0.00    +0.000 NA
ATOM     13  H   UNL     1      42.838   2.583  10.098  0.00  0.00    +0.000 HD
BRANCH  12  14
ATOM     14  C   UNL     1      44.832   2.976   9.858  0.00  0.00    +0.000 C 
ATOM     15  C   UNL     1      44.830   4.271   9.016  0.00  0.00    +0.000 C 
ATOM     16  C   UNL     1      46.056   4.378   8.109  0.00  0.00    +0.000 C 
ATOM     17  C   UNL     1      46.202   3.150   7.219  0.00  0.00    +0.000 C 
ATOM     18  C   UNL     1      46.261   1.878   8.056  0.00  0.00    +0.000 C 
ATOM     19  C   UNL     1      45.027   1.743   8.954  0.00  0.00    +0.000 C 
ENDBRANCH  12  14
ENDBRANCH  11  12
ENDBRANCH   7  11
ENDBRANCH   1   7
BRANCH   4  20
ATOM     20  C   UNL     1      48.835   6.860  14.077  0.00  0.00    +0.000 C 
BRANCH  20  21
ATOM     21  N   UNL     1      48.623   7.411  15.427  0.00  0.00    +0.000 N 
ATOM     22  C   UNL     1      49.060   6.573  16.470  0.00  0.00    +0.000 C 
ATOM     23  O   UNL     1      49.541   5.473  16.265  0.00  0.00    +0.000 OA
BRANCH  22  24
ATOM     24  C   UNL     1      48.894   7.048  17.858  0.00  0.00    +0.000 A 
ATOM     25  C   UNL     1      47.823   6.747  18.679  0.00  0.00    +0.000 A 
ATOM     26  S   UNL     1      47.946   7.375  20.251  0.00  0.00    +0.000 S 
ATOM     27  C   UNL     1      49.504   7.957  19.930  0.00  0.00    +0.000 A 
ATOM     28  N   UNL     1      50.253   8.500  20.924  0.00  0.00    +0.000 NA
ATOM     29  C   UNL     1      51.431   8.853  20.558  0.00  0.00    +0.000 A 
ATOM     30  N   UNL     1      51.915   8.773  19.278  0.00  0.00    +0.000 N 
ATOM     31  C   UNL     1      51.164   8.325  18.210  0.00  0.00    +0.000 A 
ATOM     32  O   UNL     1      51.565   8.449  17.068  0.00  0.00    +0.000 OA
ATOM     33  C   UNL     1      49.873   7.789  18.608  0.00  0.00    +0.000 A 
ATOM     34  H   UNL     1      52.832   9.128  19.043  0.00  0.00    +0.000 HD
ENDBRANCH  22  24
BRANCH  21  35
ATOM     35  C   UNL     1      48.330   8.870  15.569  0.00  0.00    +0.000 C 
BRANCH  35  36
ATOM     36  C   UNL     1      48.755   9.801  14.413  0.00  0.00    +0.000 C 
BRANCH  36  37
ATOM     37  O   UNL     1      47.617  10.132  13.631  0.00  0.00    +0.000 OA
ATOM     38  H   UNL     1      47.790  11.005  13.238  0.00  0.00    +0.000 HD
ENDBRANCH  36  37
ENDBRANCH  35  36
ENDBRANCH  21  35
ENDBRANCH  20  21
ENDBRANCH   4  20
TORSDOF 11
ENDMDL
MODEL 5
REMARK VINA RESULT:    -7.020      3.218      5.044
REMARK INTER + INTRA:         -12.687
REMARK INTER:                 -11.166
REMARK INTRA:                  -1.521
REMARK UNBOUND:                -1.563
REMARK  Name = 
REMARK  11 active torsions:
REMARK  status: ('A' for Active; 'I' for Inactive)
REMARK    1  A    between atoms: N_1  and  C_2
REMARK    2  A    between atoms: C_2  and  C_3
REMARK    3  A    between atoms: C_2  and  C_11
REMARK    4  A    between atoms: C_3  and  N_4
REMARK    5  A    between atoms: N_4  and  C_5
REMARK    6  A    between atoms: C_14  and  C_15
REMARK    7  A    between atoms: C_15  and  N_16
REMARK    8  A    between atoms: N_16  and  C_17
REMARK    9  A    between atoms: C_17  and  C_18
REMARK   10  A    between atoms: C_18  and  O_19
REMARK   11  A    between atoms: C_20  and  C_22
REMARK                            x       y       z     vdW  Elec       q    Type
REMARK                         _______ _______ _______ _____ _____    ______ ____
ROOT
ATOM      1  C   UNL     1      44.990   4.333  11.485  0.00  0.00    +0.000 A 
ATOM      2  C   UNL     1      45.444   4.495  12.810  0.00  0.00    +0.000 A 
ATOM      3  C   UNL     1      46.032   5.678  13.254  0.00  0.00    +0.000 A 
ATOM      4  C   UNL     1      46.038   6.819  12.462  0.00  0.00    +0.000 A 
ATOM      5  C   UNL     1      45.712   6.646  11.098  0.00  0.00    +0.000 A 
ATOM      6  C   UNL     1      45.245   5.400  10.608  0.00  0.00    +0.000 A 
ENDROOT
BRANCH   1   7
ATOM      7  C   UNL     1      44.303   3.020  11.073  0.00  0.00    +0.000 C 
BRANCH   7   8
ATOM      8  N   UNL     1      42.870   3.043  11.470  0.00  0.00    +0.000 NA
ATOM      9  H   UNL     1      42.326   2.379  10.920  0.00  0.00    +0.000 HD
ATOM     10  H   UNL     1      42.497   3.965  11.292  0.00  0.00    +0.000 HD
ENDBRANCH   7   8
BRANCH   7  11
ATOM     11  C   UNL     1      44.383   2.693   9.534  0.00  0.00    +0.000 C 
BRANCH  11  12
ATOM     12  N   UNL     1      45.353   1.650   9.186  0.00  0.00    +0.000 NA
ATOM     13  H   UNL     1      44.845   0.822   8.875  0.00  0.00    +0.000 HD
BRANCH  12  14
ATOM     14  C   UNL     1      46.367   2.000   8.181  0.00  0.00    +0.000 C 
ATOM     15  C   UNL     1      45.797   3.165   7.342  0.00  0.00    +0.000 C 
ATOM     16  C   UNL     1      46.750   3.604   6.231  0.00  0.00    +0.000 C 
ATOM     17  C   UNL     1      47.146   2.435   5.340  0.00  0.00    +0.000 C 
ATOM     18  C   UNL     1      47.761   1.310   6.163  0.00  0.00    +0.000 C 
ATOM     19  C   UNL     1      46.808   0.840   7.267  0.00  0.00    +0.000 C 
ENDBRANCH  12  14
ENDBRANCH  11  12
ENDBRANCH   7  11
ENDBRANCH   1   7
BRANCH   4  20
ATOM     20  C   UNL     1      46.151   8.177  13.170  0.00  0.00    +0.000 C 
BRANCH  20  21
ATOM     21  N   UNL     1      47.491   8.725  13.444  0.00  0.00    +0.000 N 
ATOM     22  C   UNL     1      47.912   9.709  12.531  0.00  0.00    +0.000 C 
ATOM     23  O   UNL     1      47.233  10.049  11.579  0.00  0.00    +0.000 OA
BRANCH  22  24
ATOM     24  C   UNL     1      49.241  10.320  12.731  0.00  0.00    +0.000 A 
ATOM     25  C   UNL     1      49.469  11.566  13.284  0.00  0.00    +0.000 A 
ATOM     26  S   UNL     1      51.110  11.967  13.457  0.00  0.00    +0.000 S 
ATOM     27  C   UNL     1      51.575  10.428  12.923  0.00  0.00    +0.000 A 
ATOM     28  N   UNL     1      52.879  10.054  12.959  0.00  0.00    +0.000 NA
ATOM     29  C   UNL     1      53.087   8.847  12.576  0.00  0.00    +0.000 A 
ATOM     30  N   UNL     1      52.125   7.994  12.102  0.00  0.00    +0.000 N 
ATOM     31  C   UNL     1      50.801   8.355  11.948  0.00  0.00    +0.000 A 
ATOM     32  O   UNL     1      50.023   7.635  11.350  0.00  0.00    +0.000 OA
ATOM     33  C   UNL     1      50.502   9.666  12.498  0.00  0.00    +0.000 A 
ATOM     34  H   UNL     1      52.365   7.075  11.756  0.00  0.00    +0.000 HD
ENDBRANCH  22  24
BRANCH  21  35
ATOM     35  C   UNL     1      48.104   8.487  14.787  0.00  0.00    +0.000 C 
BRANCH  35  36
ATOM     36  C   UNL     1      48.911   7.187  14.985  0.00  0.00    +0.000 C 
BRANCH  36  37
ATOM     37  O   UNL     1      48.206   6.322  15.863  0.00  0.00    +0.000 OA
ATOM     38  H   UNL     1      48.559   6.478  16.756  0.00  0.00    +0.000 HD
ENDBRANCH  36  37
ENDBRANCH  35  36
ENDBRANCH  21  35
ENDBRANCH  20  21
ENDBRANCH   4  20
TORSDOF 11
ENDMDL
MODEL 6
REMARK VINA RESULT:    -6.972      1.820      2.395
REMARK INTER + INTRA:         -12.610
REMARK INTER:                 -10.987
REMARK INTRA:                  -1.623
REMARK UNBOUND:                -1.563
REMARK  Name = 
REMARK  11 active torsions:
REMARK  status: ('A' for Active; 'I' for Inactive)
REMARK    1  A    between atoms: N_1  and  C_2
REMARK    2  A    between atoms: C_2  and  C_3
REMARK    3  A    between atoms: C_2  and  C_11
REMARK    4  A    between atoms: C_3  and  N_4
REMARK    5  A    between atoms: N_4  and  C_5
REMARK    6  A    between atoms: C_14  and  C_15
REMARK    7  A    between atoms: C_15  and  N_16
REMARK    8  A    between atoms: N_16  and  C_17
REMARK    9  A    between atoms: C_17  and  C_18
REMARK   10  A    between atoms: C_18  and  O_19
REMARK   11  A    between atoms: C_20  and  C_22
REMARK                            x       y       z     vdW  Elec       q    Type
REMARK                         _______ _______ _______ _____ _____    ______ ____
ROOT
ATOM      1  C   UNL     1      44.985   6.070  12.190  0.00  0.00    +0.000 A 
ATOM      2  C   UNL     1      46.359   5.753  12.213  0.00  0.00    +0.000 A 
ATOM      3  C   UNL     1      47.347   6.727  12.082  0.00  0.00    +0.000 A 
ATOM      4  C   UNL     1      47.031   8.079  12.101  0.00  0.00    +0.000 A 
ATOM      5  C   UNL     1      45.668   8.414  11.945  0.00  0.00    +0.000 A 
ATOM      6  C   UNL     1      44.663   7.413  11.936  0.00  0.00    +0.000 A 
ENDROOT
BRANCH   1   7
ATOM      7  C   UNL     1      43.946   4.954  12.393  0.00  0.00    +0.000 C 
BRANCH   7   8
ATOM      8  N   UNL     1      42.866   5.417  13.303  0.00  0.00    +0.000 NA
ATOM      9  H   UNL     1      43.104   5.237  14.279  0.00  0.00    +0.000 HD
ATOM     10  H   UNL     1      42.021   4.902  13.095  0.00  0.00    +0.000 HD
ENDBRANCH   7   8
BRANCH   7  11
ATOM     11  C   UNL     1      43.280   4.429  11.065  0.00  0.00    +0.000 C 
BRANCH  11  12
ATOM     12  N   UNL     1      43.721   3.092  10.654  0.00  0.00    +0.000 NA
ATOM     13  H   UNL     1      42.956   2.633  10.159  0.00  0.00    +0.000 HD
BRANCH  12  14
ATOM     14  C   UNL     1      44.938   3.023   9.833  0.00  0.00    +0.000 C 
ATOM     15  C   UNL     1      44.951   4.274   8.926  0.00  0.00    +0.000 C 
ATOM     16  C   UNL     1      46.159   4.303   7.991  0.00  0.00    +0.000 C 
ATOM     17  C   UNL     1      46.257   3.029   7.162  0.00  0.00    +0.000 C 
ATOM     18  C   UNL     1      46.301   1.800   8.061  0.00  0.00    +0.000 C 
ATOM     19  C   UNL     1      45.084   1.742   8.989  0.00  0.00    +0.000 C 
ENDBRANCH  12  14
ENDBRANCH  11  12
ENDBRANCH   7  11
ENDBRANCH   1   7
BRANCH   4  20
ATOM     20  C   UNL     1      48.131   9.062  12.529  0.00  0.00    +0.000 C 
BRANCH  20  21
ATOM     21  N   UNL     1      49.081   8.652  13.577  0.00  0.00    +0.000 N 
ATOM     22  C   UNL     1      48.541   8.637  14.876  0.00  0.00    +0.000 C 
ATOM     23  O   UNL     1      47.392   8.968  15.108  0.00  0.00    +0.000 OA
BRANCH  22  24
ATOM     24  C   UNL     1      49.420   8.231  15.990  0.00  0.00    +0.000 A 
ATOM     25  C   UNL     1      50.287   9.071  16.665  0.00  0.00    +0.000 A 
ATOM     26  S   UNL     1      51.114   8.336  17.953  0.00  0.00    +0.000 S 
ATOM     27  C   UNL     1      50.239   6.901  17.737  0.00  0.00    +0.000 A 
ATOM     28  N   UNL     1      50.369   5.879  18.621  0.00  0.00    +0.000 NA
ATOM     29  C   UNL     1      49.612   4.873  18.371  0.00  0.00    +0.000 A 
ATOM     30  N   UNL     1      48.780   4.763  17.287  0.00  0.00    +0.000 N 
ATOM     31  C   UNL     1      48.685   5.728  16.304  0.00  0.00    +0.000 A 
ATOM     32  O   UNL     1      48.082   5.508  15.269  0.00  0.00    +0.000 OA
ATOM     33  C   UNL     1      49.422   6.938  16.622  0.00  0.00    +0.000 A 
ATOM     34  H   UNL     1      48.256   3.916  17.113  0.00  0.00    +0.000 HD
ENDBRANCH  22  24
BRANCH  21  35
ATOM     35  C   UNL     1      50.348   7.968  13.170  0.00  0.00    +0.000 C 
BRANCH  35  36
ATOM     36  C   UNL     1      50.921   8.296  11.775  0.00  0.00    +0.000 C 
BRANCH  36  37
ATOM     37  O   UNL     1      51.070   7.096  11.032  0.00  0.00    +0.000 OA
ATOM     38  H   UNL     1      50.328   6.517  11.279  0.00  0.00    +0.000 HD
ENDBRANCH  36  37
ENDBRANCH  35  36
ENDBRANCH  21  35
ENDBRANCH  20  21
ENDBRANCH   4  20
TORSDOF 11
ENDMDL
MODEL 7
REMARK VINA RESULT:    -6.839      3.262      3.800
REMARK INTER + INTRA:         -12.400
REMARK INTER:                 -11.294
REMARK INTRA:                  -1.106
REMARK UNBOUND:                -1.563
REMARK  Name = 
REMARK  11 active torsions:
REMARK  status: ('A' for Active; 'I' for Inactive)
REMARK    1  A    between atoms: N_1  and  C_2
REMARK    2  A    between atoms: C_2  and  C_3
REMARK    3  A    between atoms: C_2  and  C_11
REMARK    4  A    between atoms: C_3  and  N_4
REMARK    5  A    between atoms: N_4  and  C_5
REMARK    6  A    between atoms: C_14  and  C_15
REMARK    7  A    between atoms: C_15  and  N_16
REMARK    8  A    between atoms: N_16  and  C_17
REMARK    9  A    between atoms: C_17  and  C_18
REMARK   10  A    between atoms: C_18  and  O_19
REMARK   11  A    between atoms: C_20  and  C_22
REMARK                            x       y       z     vdW  Elec       q    Type
REMARK                         _______ _______ _______ _____ _____    ______ ____
ROOT
ATOM      1  C   UNL     1      45.836   5.033  12.426  0.00  0.00    +0.000 A 
ATOM      2  C   UNL     1      46.063   4.071  13.431  0.00  0.00    +0.000 A 
ATOM      3  C   UNL     1      46.908   4.312  14.512  0.00  0.00    +0.000 A 
ATOM      4  C   UNL     1      47.430   5.577  14.748  0.00  0.00    +0.000 A 
ATOM      5  C   UNL     1      47.326   6.513  13.696  0.00  0.00    +0.000 A 
ATOM      6  C   UNL     1      46.580   6.220  12.525  0.00  0.00    +0.000 A 
ENDROOT
BRANCH   1   7
ATOM      7  C   UNL     1      44.850   4.724  11.287  0.00  0.00    +0.000 C 
BRANCH   7   8
ATOM      8  N   UNL     1      44.927   5.775  10.239  0.00  0.00    +0.000 NA
ATOM      9  H   UNL     1      44.393   6.601  10.506  0.00  0.00    +0.000 HD
ATOM     10  H   UNL     1      44.525   5.414   9.385  0.00  0.00    +0.000 HD
ENDBRANCH   7   8
BRANCH   7  11
ATOM     11  C   UNL     1      45.063   3.323  10.597  0.00  0.00    +0.000 C 
BRANCH  11  12
ATOM     12  N   UNL     1      44.332   3.150   9.338  0.00  0.00    +0.000 NA
ATOM     13  H   UNL     1      43.828   4.012   9.132  0.00  0.00    +0.000 HD
BRANCH  12  14
ATOM     14  C   UNL     1      45.126   2.762   8.163  0.00  0.00    +0.000 C 
ATOM     15  C   UNL     1      45.972   1.535   8.566  0.00  0.00    +0.000 C 
ATOM     16  C   UNL     1      46.875   1.051   7.432  0.00  0.00    +0.000 C 
ATOM     17  C   UNL     1      47.760   2.172   6.904  0.00  0.00    +0.000 C 
ATOM     18  C   UNL     1      46.919   3.360   6.454  0.00  0.00    +0.000 C 
ATOM     19  C   UNL     1      46.025   3.874   7.587  0.00  0.00    +0.000 C 
ENDBRANCH  12  14
ENDBRANCH  11  12
ENDBRANCH   7  11
ENDBRANCH   1   7
BRANCH   4  20
ATOM     20  C   UNL     1      47.844   5.919  16.187  0.00  0.00    +0.000 C 
BRANCH  20  21
ATOM     21  N   UNL     1      49.227   5.645  16.613  0.00  0.00    +0.000 N 
ATOM     22  C   UNL     1      49.360   4.539  17.473  0.00  0.00    +0.000 C 
ATOM     23  O   UNL     1      48.403   3.890  17.854  0.00  0.00    +0.000 OA
BRANCH  22  24
ATOM     24  C   UNL     1      50.713   4.186  17.946  0.00  0.00    +0.000 A 
ATOM     25  C   UNL     1      51.497   4.969  18.773  0.00  0.00    +0.000 A 
ATOM     26  S   UNL     1      52.978   4.264  19.210  0.00  0.00    +0.000 S 
ATOM     27  C   UNL     1      52.563   2.825  18.417  0.00  0.00    +0.000 A 
ATOM     28  N   UNL     1      53.360   1.731  18.518  0.00  0.00    +0.000 NA
ATOM     29  C   UNL     1      52.904   0.695  17.914  0.00  0.00    +0.000 A 
ATOM     30  N   UNL     1      51.756   0.661  17.165  0.00  0.00    +0.000 N 
ATOM     31  C   UNL     1      50.963   1.769  16.944  0.00  0.00    +0.000 A 
ATOM     32  O   UNL     1      50.064   1.740  16.123  0.00  0.00    +0.000 OA
ATOM     33  C   UNL     1      51.371   2.925  17.722  0.00  0.00    +0.000 A 
ATOM     34  H   UNL     1      51.486  -0.172  16.660  0.00  0.00    +0.000 HD
ENDBRANCH  22  24
BRANCH  21  35
ATOM     35  C   UNL     1      50.351   6.281  15.858  0.00  0.00    +0.000 C 
BRANCH  35  36
ATOM     36  C   UNL     1      50.551   7.802  16.020  0.00  0.00    +0.000 C 
BRANCH  36  37
ATOM     37  O   UNL     1      50.103   8.465  14.848  0.00  0.00    +0.000 OA
ATOM     38  H   UNL     1      49.295   8.950  15.089  0.00  0.00    +0.000 HD
ENDBRANCH  36  37
ENDBRANCH  35  36
ENDBRANCH  21  35
ENDBRANCH  20  21
ENDBRANCH   4  20
TORSDOF 11
ENDMDL
MODEL 8
REMARK VINA RESULT:    -6.827      2.956      3.605
REMARK INTER + INTRA:         -12.381
REMARK INTER:                 -10.841
REMARK INTRA:                  -1.540
REMARK UNBOUND:                -1.563
REMARK  Name = 
REMARK  11 active torsions:
REMARK  status: ('A' for Active; 'I' for Inactive)
REMARK    1  A    between atoms: N_1  and  C_2
REMARK    2  A    between atoms: C_2  and  C_3
REMARK    3  A    between atoms: C_2  and  C_11
REMARK    4  A    between atoms: C_3  and  N_4
REMARK    5  A    between atoms: N_4  and  C_5
REMARK    6  A    between atoms: C_14  and  C_15
REMARK    7  A    between atoms: C_15  and  N_16
REMARK    8  A    between atoms: N_16  and  C_17
REMARK    9  A    between atoms: C_17  and  C_18
REMARK   10  A    between atoms: C_18  and  O_19
REMARK   11  A    between atoms: C_20  and  C_22
REMARK                            x       y       z     vdW  Elec       q    Type
REMARK                         _______ _______ _______ _____ _____    ______ ____
ROOT
ATOM      1  C   UNL     1      45.362   4.637  11.953  0.00  0.00    +0.000 A 
ATOM      2  C   UNL     1      46.202   4.917  13.049  0.00  0.00    +0.000 A 
ATOM      3  C   UNL     1      46.783   6.170  13.239  0.00  0.00    +0.000 A 
ATOM      4  C   UNL     1      46.420   7.256  12.454  0.00  0.00    +0.000 A 
ATOM      5  C   UNL     1      45.688   6.974  11.278  0.00  0.00    +0.000 A 
ATOM      6  C   UNL     1      45.212   5.665  11.008  0.00  0.00    +0.000 A 
ENDROOT
BRANCH   1   7
ATOM      7  C   UNL     1      44.710   3.249  11.831  0.00  0.00    +0.000 C 
BRANCH   7   8
ATOM      8  N   UNL     1      43.763   3.024  12.954  0.00  0.00    +0.000 NA
ATOM      9  H   UNL     1      43.952   2.138  13.423  0.00  0.00    +0.000 HD
ATOM     10  H   UNL     1      42.824   2.980  12.584  0.00  0.00    +0.000 HD
ENDBRANCH   7   8
BRANCH   7  11
ATOM     11  C   UNL     1      43.938   3.003  10.479  0.00  0.00    +0.000 C 
BRANCH  11  12
ATOM     12  N   UNL     1      44.499   1.934   9.647  0.00  0.00    +0.000 NA
ATOM     13  H   UNL     1      43.771   1.592   9.019  0.00  0.00    +0.000 HD
BRANCH  12  14
ATOM     14  C   UNL     1      45.696   2.269   8.861  0.00  0.00    +0.000 C 
ATOM     15  C   UNL     1      45.328   3.461   7.951  0.00  0.00    +0.000 C 
ATOM     16  C   UNL     1      46.488   3.887   7.052  0.00  0.00    +0.000 C 
ATOM     17  C   UNL     1      47.017   2.719   6.230  0.00  0.00    +0.000 C 
ATOM     18  C   UNL     1      47.432   1.565   7.134  0.00  0.00    +0.000 C 
ATOM     19  C   UNL     1      46.273   1.109   8.026  0.00  0.00    +0.000 C 
ENDBRANCH  12  14
ENDBRANCH  11  12
ENDBRANCH   7  11
ENDBRANCH   1   7
BRANCH   4  20
ATOM     20  C   UNL     1      46.623   8.660  13.042  0.00  0.00    +0.000 C 
BRANCH  20  21
ATOM     21  N   UNL     1      47.996   9.153  13.246  0.00  0.00    +0.000 N 
ATOM     22  C   UNL     1      48.397   9.213  14.594  0.00  0.00    +0.000 C 
ATOM     23  O   UNL     1      47.652   8.912  15.509  0.00  0.00    +0.000 OA
BRANCH  22  24
ATOM     24  C   UNL     1      49.761   9.689  14.892  0.00  0.00    +0.000 A 
ATOM     25  C   UNL     1      50.170  11.009  14.849  0.00  0.00    +0.000 A 
ATOM     26  S   UNL     1      51.783  11.260  15.318  0.00  0.00    +0.000 S 
ATOM     27  C   UNL     1      51.950   9.624  15.727  0.00  0.00    +0.000 A 
ATOM     28  N   UNL     1      53.081   9.181  16.334  0.00  0.00    +0.000 NA
ATOM     29  C   UNL     1      53.057   7.934  16.636  0.00  0.00    +0.000 A 
ATOM     30  N   UNL     1      52.037   7.070  16.335  0.00  0.00    +0.000 N 
ATOM     31  C   UNL     1      50.910   7.444  15.630  0.00  0.00    +0.000 A 
ATOM     32  O   UNL     1      50.123   6.609  15.222  0.00  0.00    +0.000 OA
ATOM     33  C   UNL     1      50.838   8.875  15.391  0.00  0.00    +0.000 A 
ATOM     34  H   UNL     1      52.108   6.083  16.545  0.00  0.00    +0.000 HD
ENDBRANCH  22  24
BRANCH  21  35
ATOM     35  C   UNL     1      48.926   9.192  12.075  0.00  0.00    +0.000 C 
BRANCH  35  36
ATOM     36  C   UNL     1      49.384   7.843  11.481  0.00  0.00    +0.000 C 
BRANCH  36  37
ATOM     37  O   UNL     1      50.347   7.251  12.340  0.00  0.00    +0.000 OA
ATOM     38  H   UNL     1      51.009   6.825  11.770  0.00  0.00    +0.000 HD
ENDBRANCH  36  37
ENDBRANCH  35  36
ENDBRANCH  21  35
ENDBRANCH  20  21
ENDBRANCH   4  20
TORSDOF 11
ENDMDL
MODEL 9
REMARK VINA RESULT:    -6.817      1.967      3.344
REMARK INTER + INTRA:         -12.366
REMARK INTER:                 -11.098
REMARK INTRA:                  -1.268
REMARK UNBOUND:                -1.563
REMARK  Name = 
REMARK  11 active torsions:
REMARK  status: ('A' for Active; 'I' for Inactive)
REMARK    1  A    between atoms: N_1  and  C_2
REMARK    2  A    between atoms: C_2  and  C_3
REMARK    3  A    between atoms: C_2  and  C_11
REMARK    4  A    between atoms: C_3  and  N_4
REMARK    5  A    between atoms: N_4  and  C_5
REMARK    6  A    between atoms: C_14  and  C_15
REMARK    7  A    between atoms: C_15  and  N_16
REMARK    8  A    between atoms: N_16  and  C_17
REMARK    9  A    between atoms: C_17  and  C_18
REMARK   10  A    between atoms: C_18  and  O_19
REMARK   11  A    between atoms: C_20  and  C_22
REMARK                            x       y       z     vdW  Elec       q    Type
REMARK                         _______ _______ _______ _____ _____    ______ ____
ROOT
ATOM      1  C   UNL     1      44.763   4.202  11.824  0.00  0.00    +0.000 A 
ATOM      2  C   UNL     1      44.899   5.521  12.303  0.00  0.00    +0.000 A 
ATOM      3  C   UNL     1      45.805   5.856  13.309  0.00  0.00    +0.000 A 
ATOM      4  C   UNL     1      46.744   4.940  13.764  0.00  0.00    +0.000 A 
ATOM      5  C   UNL     1      46.544   3.590  13.399  0.00  0.00    +0.000 A 
ATOM      6  C   UNL     1      45.527   3.222  12.479  0.00  0.00    +0.000 A 
ENDROOT
BRANCH   1   7
ATOM      7  C   UNL     1      43.782   3.909  10.677  0.00  0.00    +0.000 C 
BRANCH   7   8
ATOM      8  N   UNL     1      43.349   5.176  10.033  0.00  0.00    +0.000 NA
ATOM      9  H   UNL     1      43.132   5.033   9.047  0.00  0.00    +0.000 HD
ATOM     10  H   UNL     1      44.107   5.844  10.085  0.00  0.00    +0.000 HD
ENDBRANCH   7   8
BRANCH   7  11
ATOM     11  C   UNL     1      44.349   2.956   9.557  0.00  0.00    +0.000 C 
BRANCH  11  12
ATOM     12  N   UNL     1      45.229   3.615   8.588  0.00  0.00    +0.000 NA
ATOM     13  H   UNL     1      46.040   3.988   9.084  0.00  0.00    +0.000 HD
BRANCH  12  14
ATOM     14  C   UNL     1      45.688   2.802   7.453  0.00  0.00    +0.000 C 
ATOM     15  C   UNL     1      46.463   1.599   8.035  0.00  0.00    +0.000 C 
ATOM     16  C   UNL     1      47.026   0.687   6.946  0.00  0.00    +0.000 C 
ATOM     17  C   UNL     1      47.887   1.461   5.958  0.00  0.00    +0.000 C 
ATOM     18  C   UNL     1      47.103   2.613   5.342  0.00  0.00    +0.000 C 
ATOM     19  C   UNL     1      46.551   3.552   6.420  0.00  0.00    +0.000 C 
ENDBRANCH  12  14
ENDBRANCH  11  12
ENDBRANCH   7  11
ENDBRANCH   1   7
BRANCH   4  20
ATOM     20  C   UNL     1      48.027   5.493  14.401  0.00  0.00    +0.000 C 
BRANCH  20  21
ATOM     21  N   UNL     1      48.138   5.515  15.870  0.00  0.00    +0.000 N 
ATOM     22  C   UNL     1      48.789   6.652  16.385  0.00  0.00    +0.000 C 
ATOM     23  O   UNL     1      49.248   7.522  15.667  0.00  0.00    +0.000 OA
BRANCH  22  24
ATOM     24  C   UNL     1      48.940   6.762  17.849  0.00  0.00    +0.000 A 
ATOM     25  C   UNL     1      48.145   7.535  18.675  0.00  0.00    +0.000 A 
ATOM     26  S   UNL     1      48.511   7.400  20.328  0.00  0.00    +0.000 S 
ATOM     27  C   UNL     1      49.659   6.195  20.007  0.00  0.00    +0.000 A 
ATOM     28  N   UNL     1      50.265   5.536  21.027  0.00  0.00    +0.000 NA
ATOM     29  C   UNL     1      51.072   4.614  20.647  0.00  0.00    +0.000 A 
ATOM     30  N   UNL     1      51.380   4.326  19.343  0.00  0.00    +0.000 N 
ATOM     31  C   UNL     1      50.872   5.031  18.270  0.00  0.00    +0.000 A 
ATOM     32  O   UNL     1      51.316   4.867  17.148  0.00  0.00    +0.000 OA
ATOM     33  C   UNL     1      49.851   5.991  18.653  0.00  0.00    +0.000 A 
ATOM     34  H   UNL     1      52.074   3.628  19.112  0.00  0.00    +0.000 HD
ENDBRANCH  22  24
BRANCH  21  35
ATOM     35  C   UNL     1      47.282   4.585  16.669  0.00  0.00    +0.000 C 
BRANCH  35  36
ATOM     36  C   UNL     1      47.893   3.231  17.086  0.00  0.00    +0.000 C 
BRANCH  36  37
ATOM     37  O   UNL     1      47.829   3.098  18.497  0.00  0.00    +0.000 OA
ATOM     38  H   UNL     1      48.606   2.580  18.768  0.00  0.00    +0.000 HD
ENDBRANCH  36  37
ENDBRANCH  35  36
ENDBRANCH  21  35
ENDBRANCH  20  21
ENDBRANCH   4  20
TORSDOF 11
ENDMDL
