MODEL 1
REMARK VINA RESULT:    -8.292      0.000      0.000
REMARK INTER + INTRA:         -13.641
REMARK INTER:                 -12.170
REMARK INTRA:                  -1.471
REMARK UNBOUND:                -1.471
REMARK  Name = 
REMARK  8 active torsions:
REMARK  status: ('A' for Active; 'I' for Inactive)
REMARK    1  A    between atoms: C_2  and  C_4
REMARK    2  A    between atoms: C_8  and  C_9
REMARK    3  A    between atoms: C_9  and  N_10
REMARK    4  A    between atoms: N_10  and  C_11
REMARK    5  A    between atoms: C_11  and  C_12
REMARK    6  A    between atoms: C_15  and  C_16
REMARK    7  A    between atoms: C_16  and  N_17
REMARK    8  A    between atoms: C_18  and  C_20
REMARK                            x       y       z     vdW  Elec       q    Type
REMARK                         _______ _______ _______ _____ _____    ______ ____
ROOT
ATOM      1  C   UNL     1      44.607   4.742  12.747  0.00  0.00    +0.000 A 
ATOM      2  C   UNL     1      45.740   4.179  13.356  0.00  0.00    +0.000 A 
ATOM      3  C   UNL     1      46.852   4.967  13.670  0.00  0.00    +0.000 A 
ATOM      4  C   UNL     1      46.859   6.335  13.375  0.00  0.00    +0.000 A 
ATOM      5  C   UNL     1      45.745   6.892  12.733  0.00  0.00    +0.000 A 
ATOM      6  C   UNL     1      44.628   6.106  12.430  0.00  0.00    +0.000 A 
ENDROOT
BRANCH   1   7
ATOM      7  C   UNL     1      43.394   3.893  12.427  0.00  0.00    +0.000 C 
BRANCH   7   8
ATOM      8  N   UNL     1      43.255   3.703  10.988  0.00  0.00    +0.000 NA
ATOM      9  H   UNL     1      42.269   3.606  10.754  0.00  0.00    +0.000 HD
BRANCH   8  10
ATOM     10  C   UNL     1      43.960   2.518  10.508  0.00  0.00    +0.000 C 
BRANCH  10  15
ATOM     11  C   UNL     1      46.532   2.331   7.683  0.00  0.00    +0.000 A 
ATOM     12  C   UNL     1      46.676   3.683   7.354  0.00  0.00    +0.000 A 
ATOM     13  C   UNL     1      45.984   4.654   8.080  0.00  0.00    +0.000 A 
ATOM     14  C   UNL     1      45.138   4.275   9.121  0.00  0.00    +0.000 A 
ATOM     15  C   UNL     1      44.958   2.921   9.445  0.00  0.00    +0.000 A 
ATOM     16  C   UNL     1      45.670   1.954   8.723  0.00  0.00    +0.000 A 
BRANCH  11  18
ATOM     17  N   UNL     1      48.174   1.647   6.013  0.00  0.00    +0.000 N 
ATOM     18  C   UNL     1      47.234   1.260   6.928  0.00  0.00    +0.000 C 
ATOM     19  O   UNL     1      47.010   0.074   7.134  0.00  0.00    +0.000 OA
ATOM     20  H   UNL     1      48.712   0.906   5.583  0.00  0.00    +0.000 HD
ATOM     21  H   UNL     1      48.556   2.581   5.988  0.00  0.00    +0.000 HD
ENDBRANCH  11  18
ENDBRANCH  10  15
ENDBRANCH   8  10
ENDBRANCH   7   8
ENDBRANCH   1   7
BRANCH   4  22
ATOM     22  C   UNL     1      48.061   7.186  13.689  0.00  0.00    +0.000 C 
BRANCH  22  23
ATOM     23  N   UNL     1      48.085   7.540  15.084  0.00  0.00    +0.000 N 
ATOM     24  C   UNL     1      49.044   7.050  15.932  0.00  0.00    +0.000 C 
ATOM     25  O   UNL     1      49.957   6.331  15.536  0.00  0.00    +0.000 OA
ATOM     26  H   UNL     1      47.235   7.942  15.469  0.00  0.00    +0.000 HD
BRANCH  24  27
ATOM     27  C   UNL     1      48.959   7.481  17.333  0.00  0.00    +0.000 A 
ATOM     28  C   UNL     1      49.562   8.670  17.724  0.00  0.00    +0.000 A 
ATOM     29  S   UNL     1      49.330   9.046  19.370  0.00  0.00    +0.000 S 
ATOM     30  C   UNL     1      48.459   7.609  19.633  0.00  0.00    +0.000 A 
ATOM     31  N   UNL     1      47.982   7.296  20.868  0.00  0.00    +0.000 NA
ATOM     32  C   UNL     1      47.366   6.164  20.932  0.00  0.00    +0.000 A 
ATOM     33  N   UNL     1      47.178   5.316  19.871  0.00  0.00    +0.000 N 
ATOM     34  C   UNL     1      47.618   5.602  18.600  0.00  0.00    +0.000 A 
ATOM     35  O   UNL     1      47.399   4.840  17.667  0.00  0.00    +0.000 OA
ATOM     36  C   UNL     1      48.329   6.860  18.477  0.00  0.00    +0.000 A 
ATOM     37  H   UNL     1      46.675   4.448  19.985  0.00  0.00    +0.000 HD
ENDBRANCH  24  27
ENDBRANCH  22  23
ENDBRANCH   4  22
TORSDOF 8
ENDMDL
MODEL 2
REMARK VINA RESULT:    -7.955      2.166      2.549
REMARK INTER + INTRA:         -13.147
REMARK INTER:                 -11.617
REMARK INTRA:                  -1.530
REMARK UNBOUND:                -1.471
REMARK  Name = 
REMARK  8 active torsions:
REMARK  status: ('A' for Active; 'I' for Inactive)
REMARK    1  A    between atoms: C_2  and  C_4
REMARK    2  A    between atoms: C_8  and  C_9
REMARK    3  A    between atoms: C_9  and  N_10
REMARK    4  A    between atoms: N_10  and  C_11
REMARK    5  A    between atoms: C_11  and  C_12
REMARK    6  A    between atoms: C_15  and  C_16
REMARK    7  A    between atoms: C_16  and  N_17
REMARK    8  A    between atoms: C_18  and  C_20
REMARK                            x       y       z     vdW  Elec       q    Type
REMARK                         _______ _______ _______ _____ _____    ______ ____
ROOT
ATOM      1  C   UNL     1      44.966   5.017  12.918  0.00  0.00    +0.000 A 
ATOM      2  C   UNL     1      44.781   6.362  12.557  0.00  0.00    +0.000 A 
ATOM      3  C   UNL     1      45.846   7.267  12.590  0.00  0.00    +0.000 A 
ATOM      4  C   UNL     1      47.120   6.851  12.994  0.00  0.00    +0.000 A 
ATOM      5  C   UNL     1      47.299   5.519  13.391  0.00  0.00    +0.000 A 
ATOM      6  C   UNL     1      46.237   4.611  13.345  0.00  0.00    +0.000 A 
ENDROOT
BRANCH   1   7
ATOM      7  C   UNL     1      43.819   4.031  12.859  0.00  0.00    +0.000 C 
BRANCH   7   8
ATOM      8  N   UNL     1      44.211   2.815  12.156  0.00  0.00    +0.000 NA
ATOM      9  H   UNL     1      45.223   2.806  12.038  0.00  0.00    +0.000 HD
BRANCH   8  10
ATOM     10  C   UNL     1      43.593   2.705  10.838  0.00  0.00    +0.000 C 
BRANCH  10  15
ATOM     11  C   UNL     1      46.234   2.215   8.114  0.00  0.00    +0.000 A 
ATOM     12  C   UNL     1      46.414   3.530   7.669  0.00  0.00    +0.000 A 
ATOM     13  C   UNL     1      45.724   4.575   8.285  0.00  0.00    +0.000 A 
ATOM     14  C   UNL     1      44.844   4.307   9.332  0.00  0.00    +0.000 A 
ATOM     15  C   UNL     1      44.626   2.992   9.771  0.00  0.00    +0.000 A 
ATOM     16  C   UNL     1      45.337   1.950   9.159  0.00  0.00    +0.000 A 
BRANCH  11  18
ATOM     17  N   UNL     1      47.851   1.351   6.505  0.00  0.00    +0.000 N 
ATOM     18  C   UNL     1      46.932   1.068   7.478  0.00  0.00    +0.000 C 
ATOM     19  O   UNL     1      46.725  -0.087   7.828  0.00  0.00    +0.000 OA
ATOM     20  H   UNL     1      48.388   0.568   6.155  0.00  0.00    +0.000 HD
ATOM     21  H   UNL     1      48.222   2.278   6.361  0.00  0.00    +0.000 HD
ENDBRANCH  11  18
ENDBRANCH  10  15
ENDBRANCH   8  10
ENDBRANCH   7   8
ENDBRANCH   1   7
BRANCH   4  22
ATOM     22  C   UNL     1      48.267   7.825  13.055  0.00  0.00    +0.000 C 
BRANCH  22  23
ATOM     23  N   UNL     1      49.351   7.288  13.835  0.00  0.00    +0.000 N 
ATOM     24  C   UNL     1      49.591   7.712  15.116  0.00  0.00    +0.000 C 
ATOM     25  O   UNL     1      48.865   8.527  15.679  0.00  0.00    +0.000 OA
ATOM     26  H   UNL     1      50.078   6.793  13.328  0.00  0.00    +0.000 HD
BRANCH  24  27
ATOM     27  C   UNL     1      50.729   7.093  15.808  0.00  0.00    +0.000 A 
ATOM     28  C   UNL     1      52.004   7.618  15.638  0.00  0.00    +0.000 A 
ATOM     29  S   UNL     1      53.202   6.813  16.545  0.00  0.00    +0.000 S 
ATOM     30  C   UNL     1      52.068   5.701  17.158  0.00  0.00    +0.000 A 
ATOM     31  N   UNL     1      52.453   4.703  17.998  0.00  0.00    +0.000 NA
ATOM     32  C   UNL     1      51.498   3.915  18.363  0.00  0.00    +0.000 A 
ATOM     33  N   UNL     1      50.191   4.036  17.968  0.00  0.00    +0.000 N 
ATOM     34  C   UNL     1      49.752   5.043  17.142  0.00  0.00    +0.000 A 
ATOM     35  O   UNL     1      48.569   5.146  16.840  0.00  0.00    +0.000 OA
ATOM     36  C   UNL     1      50.790   5.951  16.693  0.00  0.00    +0.000 A 
ATOM     37  H   UNL     1      49.488   3.392  18.300  0.00  0.00    +0.000 HD
ENDBRANCH  24  27
ENDBRANCH  22  23
ENDBRANCH   4  22
TORSDOF 8
ENDMDL
MODEL 3
REMARK VINA RESULT:    -7.848      3.325      8.879
REMARK INTER + INTRA:         -12.989
REMARK INTER:                 -11.056
REMARK INTRA:                  -1.933
REMARK UNBOUND:                -1.471
REMARK  Name = 
REMARK  8 active torsions:
REMARK  status: ('A' for Active; 'I' for Inactive)
REMARK    1  A    between atoms: C_2  and  C_4
REMARK    2  A    between atoms: C_8  and  C_9
REMARK    3  A    between atoms: C_9  and  N_10
REMARK    4  A    between atoms: N_10  and  C_11
REMARK    5  A    between atoms: C_11  and  C_12
REMARK    6  A    between atoms: C_15  and  C_16
REMARK    7  A    between atoms: C_16  and  N_17
REMARK    8  A    between atoms: C_18  and  C_20
REMARK                            x       y       z     vdW  Elec       q    Type
REMARK                         _______ _______ _______ _____ _____    ______ ____
ROOT
ATOM      1  C   UNL     1      49.026   8.159  16.106  0.00  0.00    +0.000 A 
ATOM      2  C   UNL     1      49.487   7.097  15.311  0.00  0.00    +0.000 A 
ATOM      3  C   UNL     1      49.108   6.986  13.970  0.00  0.00    +0.000 A 
ATOM      4  C   UNL     1      48.249   7.931  13.395  0.00  0.00    +0.000 A 
ATOM      5  C   UNL     1      47.757   8.970  14.195  0.00  0.00    +0.000 A 
ATOM      6  C   UNL     1      48.148   9.088  15.533  0.00  0.00    +0.000 A 
ENDROOT
BRANCH   1   7
ATOM      7  C   UNL     1      49.456   8.293  17.552  0.00  0.00    +0.000 C 
BRANCH   7   8
ATOM      8  N   UNL     1      48.450   7.736  18.448  0.00  0.00    +0.000 NA
ATOM      9  H   UNL     1      48.185   8.439  19.136  0.00  0.00    +0.000 HD
BRANCH   8  10
ATOM     10  C   UNL     1      48.925   6.553  19.160  0.00  0.00    +0.000 C 
BRANCH  10  15
ATOM     11  C   UNL     1      49.272   3.199  17.353  0.00  0.00    +0.000 A 
ATOM     12  C   UNL     1      47.941   2.935  17.008  0.00  0.00    +0.000 A 
ATOM     13  C   UNL     1      46.946   3.865  17.311  0.00  0.00    +0.000 A 
ATOM     14  C   UNL     1      47.274   5.048  17.972  0.00  0.00    +0.000 A 
ATOM     15  C   UNL     1      48.598   5.315  18.354  0.00  0.00    +0.000 A 
ATOM     16  C   UNL     1      49.595   4.384  18.029  0.00  0.00    +0.000 A 
BRANCH  11  18
ATOM     17  N   UNL     1      51.400   2.171  17.958  0.00  0.00    +0.000 N 
ATOM     18  C   UNL     1      50.363   2.231  17.068  0.00  0.00    +0.000 C 
ATOM     19  O   UNL     1      50.327   1.487  16.096  0.00  0.00    +0.000 OA
ATOM     20  H   UNL     1      52.081   1.440  17.803  0.00  0.00    +0.000 HD
ATOM     21  H   UNL     1      51.351   2.582  18.879  0.00  0.00    +0.000 HD
ENDBRANCH  11  18
ENDBRANCH  10  15
ENDBRANCH   8  10
ENDBRANCH   7   8
ENDBRANCH   1   7
BRANCH   4  22
ATOM     22  C   UNL     1      47.817   7.805  11.958  0.00  0.00    +0.000 C 
BRANCH  22  23
ATOM     23  N   UNL     1      47.072   6.590  11.753  0.00  0.00    +0.000 N 
ATOM     24  C   UNL     1      45.711   6.549  11.909  0.00  0.00    +0.000 C 
ATOM     25  O   UNL     1      45.055   7.552  12.178  0.00  0.00    +0.000 OA
ATOM     26  H   UNL     1      47.601   5.724  11.751  0.00  0.00    +0.000 HD
BRANCH  24  27
ATOM     27  C   UNL     1      45.066   5.250  11.677  0.00  0.00    +0.000 A 
ATOM     28  C   UNL     1      44.389   4.623  12.716  0.00  0.00    +0.000 A 
ATOM     29  S   UNL     1      43.660   3.149  12.267  0.00  0.00    +0.000 S 
ATOM     30  C   UNL     1      44.264   3.270  10.680  0.00  0.00    +0.000 A 
ATOM     31  N   UNL     1      44.019   2.296   9.763  0.00  0.00    +0.000 NA
ATOM     32  C   UNL     1      44.560   2.500   8.610  0.00  0.00    +0.000 A 
ATOM     33  N   UNL     1      45.322   3.593   8.287  0.00  0.00    +0.000 N 
ATOM     34  C   UNL     1      45.574   4.615   9.172  0.00  0.00    +0.000 A 
ATOM     35  O   UNL     1      46.226   5.597   8.838  0.00  0.00    +0.000 OA
ATOM     36  C   UNL     1      44.996   4.428  10.490  0.00  0.00    +0.000 A 
ATOM     37  H   UNL     1      45.708   3.700   7.360  0.00  0.00    +0.000 HD
ENDBRANCH  24  27
ENDBRANCH  22  23
ENDBRANCH   4  22
TORSDOF 8
ENDMDL
MODEL 4
REMARK VINA RESULT:    -7.793      3.540      9.035
REMARK INTER + INTRA:         -12.909
REMARK INTER:                 -11.236
REMARK INTRA:                  -1.673
REMARK UNBOUND:                -1.471
REMARK  Name = 
REMARK  8 active torsions:
REMARK  status: ('A' for Active; 'I' for Inactive)
REMARK    1  A    between atoms: C_2  and  C_4
REMARK    2  A    between atoms: C_8  and  C_9
REMARK    3  A    between atoms: C_9  and  N_10
REMARK    4  A    between atoms: N_10  and  C_11
REMARK    5  A    between atoms: C_11  and  C_12
REMARK    6  A    between atoms: C_15  and  C_16
REMARK    7  A    between atoms: C_16  and  N_17
REMARK    8  A    between atoms: C_18  and  C_20
REMARK                            x       y       z     vdW  Elec       q    Type
REMARK                         _______ _______ _______ _____ _____    ______ ____
ROOT
ATOM      1  C   UNL     1      50.565   7.599  15.104  0.00  0.00    +0.000 A 
ATOM      2  C   UNL     1      49.244   7.138  15.231  0.00  0.00    +0.000 A 
ATOM      3  C   UNL     1      48.350   7.218  14.159  0.00  0.00    +0.000 A 
ATOM      4  C   UNL     1      48.753   7.770  12.937  0.00  0.00    +0.000 A 
ATOM      5  C   UNL     1      50.059   8.265  12.819  0.00  0.00    +0.000 A 
ATOM      6  C   UNL     1      50.957   8.173  13.888  0.00  0.00    +0.000 A 
ENDROOT
BRANCH   1   7
ATOM      7  C   UNL     1      51.540   7.491  16.258  0.00  0.00    +0.000 C 
BRANCH   7   8
ATOM      8  N   UNL     1      50.893   6.923  17.436  0.00  0.00    +0.000 NA
ATOM      9  H   UNL     1      50.811   7.641  18.154  0.00  0.00    +0.000 HD
BRANCH   8  10
ATOM     10  C   UNL     1      51.634   5.797  17.995  0.00  0.00    +0.000 C 
BRANCH  10  15
ATOM     11  C   UNL     1      48.857   3.337  17.061  0.00  0.00    +0.000 A 
ATOM     12  C   UNL     1      49.569   2.134  16.990  0.00  0.00    +0.000 A 
ATOM     13  C   UNL     1      50.931   2.112  17.296  0.00  0.00    +0.000 A 
ATOM     14  C   UNL     1      51.584   3.291  17.657  0.00  0.00    +0.000 A 
ATOM     15  C   UNL     1      50.893   4.511  17.703  0.00  0.00    +0.000 A 
ATOM     16  C   UNL     1      49.522   4.522  17.412  0.00  0.00    +0.000 A 
BRANCH  11  18
ATOM     17  N   UNL     1      47.072   3.958  15.519  0.00  0.00    +0.000 N 
ATOM     18  C   UNL     1      47.411   3.414  16.727  0.00  0.00    +0.000 C 
ATOM     19  O   UNL     1      46.551   2.978  17.482  0.00  0.00    +0.000 OA
ATOM     20  H   UNL     1      46.094   3.910  15.265  0.00  0.00    +0.000 HD
ATOM     21  H   UNL     1      47.743   4.102  14.780  0.00  0.00    +0.000 HD
ENDBRANCH  11  18
ENDBRANCH  10  15
ENDBRANCH   8  10
ENDBRANCH   7   8
ENDBRANCH   1   7
BRANCH   4  22
ATOM     22  C   UNL     1      47.790   7.881  11.785  0.00  0.00    +0.000 C 
BRANCH  22  23
ATOM     23  N   UNL     1      47.035   6.664  11.632  0.00  0.00    +0.000 N 
ATOM     24  C   UNL     1      45.667   6.655  11.710  0.00  0.00    +0.000 C 
ATOM     25  O   UNL     1      45.017   7.685  11.861  0.00  0.00    +0.000 OA
ATOM     26  H   UNL     1      47.548   5.793  11.727  0.00  0.00    +0.000 HD
BRANCH  24  27
ATOM     27  C   UNL     1      45.012   5.351  11.541  0.00  0.00    +0.000 A 
ATOM     28  C   UNL     1      44.305   4.796  12.600  0.00  0.00    +0.000 A 
ATOM     29  S   UNL     1      43.568   3.305  12.223  0.00  0.00    +0.000 S 
ATOM     30  C   UNL     1      44.209   3.324  10.647  0.00  0.00    +0.000 A 
ATOM     31  N   UNL     1      43.973   2.299   9.785  0.00  0.00    +0.000 NA
ATOM     32  C   UNL     1      44.542   2.428   8.634  0.00  0.00    +0.000 A 
ATOM     33  N   UNL     1      45.324   3.491   8.264  0.00  0.00    +0.000 N 
ATOM     34  C   UNL     1      45.568   4.561   9.091  0.00  0.00    +0.000 A 
ATOM     35  O   UNL     1      46.239   5.515   8.714  0.00  0.00    +0.000 OA
ATOM     36  C   UNL     1      44.959   4.460  10.404  0.00  0.00    +0.000 A 
ATOM     37  H   UNL     1      45.732   3.538   7.341  0.00  0.00    +0.000 HD
ENDBRANCH  24  27
ENDBRANCH  22  23
ENDBRANCH   4  22
TORSDOF 8
ENDMDL
MODEL 5
REMARK VINA RESULT:    -7.467      3.820      8.597
REMARK INTER + INTRA:         -12.431
REMARK INTER:                 -10.274
REMARK INTRA:                  -2.157
REMARK UNBOUND:                -1.471
REMARK  Name = 
REMARK  8 active torsions:
REMARK  status: ('A' for Active; 'I' for Inactive)
REMARK    1  A    between atoms: C_2  and  C_4
REMARK    2  A    between atoms: C_8  and  C_9
REMARK    3  A    between atoms: C_9  and  N_10
REMARK    4  A    between atoms: N_10  and  C_11
REMARK    5  A    between atoms: C_11  and  C_12
REMARK    6  A    between atoms: C_15  and  C_16
REMARK    7  A    between atoms: C_16  and  N_17
REMARK    8  A    between atoms: C_18  and  C_20
REMARK                            x       y       z     vdW  Elec       q    Type
REMARK                         _______ _______ _______ _____ _____    ______ ____
ROOT
ATOM      1  C   UNL     1      49.484   7.917  18.598  0.00  0.00    +0.000 A 
ATOM      2  C   UNL     1      48.381   8.722  18.269  0.00  0.00    +0.000 A 
ATOM      3  C   UNL     1      48.023   8.939  16.935  0.00  0.00    +0.000 A 
ATOM      4  C   UNL     1      48.765   8.362  15.897  0.00  0.00    +0.000 A 
ATOM      5  C   UNL     1      49.888   7.589  16.221  0.00  0.00    +0.000 A 
ATOM      6  C   UNL     1      50.239   7.362  17.556  0.00  0.00    +0.000 A 
ENDROOT
BRANCH   1   7
ATOM      7  C   UNL     1      49.858   7.664  20.043  0.00  0.00    +0.000 C 
BRANCH   7   8
ATOM      8  N   UNL     1      48.820   6.898  20.724  0.00  0.00    +0.000 NA
ATOM      9  H   UNL     1      48.732   7.229  21.684  0.00  0.00    +0.000 HD
BRANCH   8  10
ATOM     10  C   UNL     1      49.106   5.467  20.754  0.00  0.00    +0.000 C 
BRANCH  10  15
ATOM     11  C   UNL     1      49.138   3.258  17.631  0.00  0.00    +0.000 A 
ATOM     12  C   UNL     1      47.904   3.581  17.055  0.00  0.00    +0.000 A 
ATOM     13  C   UNL     1      47.091   4.549  17.647  0.00  0.00    +0.000 A 
ATOM     14  C   UNL     1      47.502   5.182  18.820  0.00  0.00    +0.000 A 
ATOM     15  C   UNL     1      48.721   4.848  19.429  0.00  0.00    +0.000 A 
ATOM     16  C   UNL     1      49.540   3.888  18.818  0.00  0.00    +0.000 A 
BRANCH  11  18
ATOM     17  N   UNL     1      51.158   1.895  17.749  0.00  0.00    +0.000 N 
ATOM     18  C   UNL     1      50.029   2.221  17.049  0.00  0.00    +0.000 C 
ATOM     19  O   UNL     1      49.754   1.651  16.001  0.00  0.00    +0.000 OA
ATOM     20  H   UNL     1      51.699   1.119  17.391  0.00  0.00    +0.000 HD
ATOM     21  H   UNL     1      51.294   2.158  18.714  0.00  0.00    +0.000 HD
ENDBRANCH  11  18
ENDBRANCH  10  15
ENDBRANCH   8  10
ENDBRANCH   7   8
ENDBRANCH   1   7
BRANCH   4  22
ATOM     22  C   UNL     1      48.400   8.609  14.458  0.00  0.00    +0.000 C 
BRANCH  22  23
ATOM     23  N   UNL     1      47.386   7.684  14.022  0.00  0.00    +0.000 N 
ATOM     24  C   UNL     1      47.703   6.552  13.318  0.00  0.00    +0.000 C 
ATOM     25  O   UNL     1      48.865   6.244  13.070  0.00  0.00    +0.000 OA
ATOM     26  H   UNL     1      46.429   8.023  14.021  0.00  0.00    +0.000 HD
BRANCH  24  27
ATOM     27  C   UNL     1      46.580   5.690  12.927  0.00  0.00    +0.000 A 
ATOM     28  C   UNL     1      46.658   4.320  13.143  0.00  0.00    +0.000 A 
ATOM     29  S   UNL     1      45.254   3.473  12.675  0.00  0.00    +0.000 S 
ATOM     30  C   UNL     1      44.511   4.900  12.120  0.00  0.00    +0.000 A 
ATOM     31  N   UNL     1      43.271   4.871  11.562  0.00  0.00    +0.000 NA
ATOM     32  C   UNL     1      42.840   6.018  11.158  0.00  0.00    +0.000 A 
ATOM     33  N   UNL     1      43.535   7.195  11.265  0.00  0.00    +0.000 N 
ATOM     34  C   UNL     1      44.778   7.278  11.844  0.00  0.00    +0.000 A 
ATOM     35  O   UNL     1      45.355   8.352  11.960  0.00  0.00    +0.000 OA
ATOM     36  C   UNL     1      45.315   6.011  12.306  0.00  0.00    +0.000 A 
ATOM     37  H   UNL     1      43.135   8.064  10.939  0.00  0.00    +0.000 HD
ENDBRANCH  24  27
ENDBRANCH  22  23
ENDBRANCH   4  22
TORSDOF 8
ENDMDL
MODEL 6
REMARK VINA RESULT:    -6.934      2.596      3.692
REMARK INTER + INTRA:         -11.647
REMARK INTER:                  -9.973
REMARK INTRA:                  -1.674
REMARK UNBOUND:                -1.471
REMARK  Name = 
REMARK  8 active torsions:
REMARK  status: ('A' for Active; 'I' for Inactive)
REMARK    1  A    between atoms: C_2  and  C_4
REMARK    2  A    between atoms: C_8  and  C_9
REMARK    3  A    between atoms: C_9  and  N_10
REMARK    4  A    between atoms: N_10  and  C_11
REMARK    5  A    between atoms: C_11  and  C_12
REMARK    6  A    between atoms: C_15  and  C_16
REMARK    7  A    between atoms: C_16  and  N_17
REMARK    8  A    between atoms: C_18  and  C_20
REMARK                            x       y       z     vdW  Elec       q    Type
REMARK                         _______ _______ _______ _____ _____    ______ ____
ROOT
ATOM      1  C   UNL     1      45.910   8.656  11.899  0.00  0.00    +0.000 A 
ATOM      2  C   UNL     1      46.423   7.350  11.954  0.00  0.00    +0.000 A 
ATOM      3  C   UNL     1      47.709   7.104  12.444  0.00  0.00    +0.000 A 
ATOM      4  C   UNL     1      48.516   8.161  12.883  0.00  0.00    +0.000 A 
ATOM      5  C   UNL     1      48.021   9.468  12.795  0.00  0.00    +0.000 A 
ATOM      6  C   UNL     1      46.729   9.712  12.317  0.00  0.00    +0.000 A 
ENDROOT
BRANCH   1   7
ATOM      7  C   UNL     1      44.508   8.920  11.390  0.00  0.00    +0.000 C 
BRANCH   7   8
ATOM      8  N   UNL     1      43.996   7.770  10.654  0.00  0.00    +0.000 NA
ATOM      9  H   UNL     1      43.631   8.080   9.755  0.00  0.00    +0.000 HD
BRANCH   8  10
ATOM     10  C   UNL     1      42.929   7.076  11.368  0.00  0.00    +0.000 C 
BRANCH  10  15
ATOM     11  C   UNL     1      44.104   3.580  10.351  0.00  0.00    +0.000 A 
ATOM     12  C   UNL     1      43.945   2.878  11.551  0.00  0.00    +0.000 A 
ATOM     13  C   UNL     1      43.409   3.520  12.668  0.00  0.00    +0.000 A 
ATOM     14  C   UNL     1      43.047   4.865  12.592  0.00  0.00    +0.000 A 
ATOM     15  C   UNL     1      43.229   5.593  11.406  0.00  0.00    +0.000 A 
ATOM     16  C   UNL     1      43.751   4.936  10.284  0.00  0.00    +0.000 A 
BRANCH  11  18
ATOM     17  N   UNL     1      44.386   3.503   7.929  0.00  0.00    +0.000 N 
ATOM     18  C   UNL     1      44.687   2.944   9.140  0.00  0.00    +0.000 C 
ATOM     19  O   UNL     1      45.437   1.980   9.218  0.00  0.00    +0.000 OA
ATOM     20  H   UNL     1      44.871   3.121   7.127  0.00  0.00    +0.000 HD
ATOM     21  H   UNL     1      43.982   4.423   7.840  0.00  0.00    +0.000 HD
ENDBRANCH  11  18
ENDBRANCH  10  15
ENDBRANCH   8  10
ENDBRANCH   7   8
ENDBRANCH   1   7
BRANCH   4  22
ATOM     22  C   UNL     1      49.911   7.907  13.391  0.00  0.00    +0.000 C 
BRANCH  22  23
ATOM     23  N   UNL     1      49.898   6.941  14.458  0.00  0.00    +0.000 N 
ATOM     24  C   UNL     1      49.671   7.312  15.758  0.00  0.00    +0.000 C 
ATOM     25  O   UNL     1      49.417   8.473  16.069  0.00  0.00    +0.000 OA
ATOM     26  H   UNL     1      50.315   6.037  14.262  0.00  0.00    +0.000 HD
BRANCH  24  27
ATOM     27  C   UNL     1      49.687   6.236  16.757  0.00  0.00    +0.000 A 
ATOM     28  C   UNL     1      50.656   6.237  17.753  0.00  0.00    +0.000 A 
ATOM     29  S   UNL     1      50.505   4.947  18.856  0.00  0.00    +0.000 S 
ATOM     30  C   UNL     1      49.169   4.311  18.015  0.00  0.00    +0.000 A 
ATOM     31  N   UNL     1      48.562   3.167  18.430  0.00  0.00    +0.000 NA
ATOM     32  C   UNL     1      47.582   2.782  17.684  0.00  0.00    +0.000 A 
ATOM     33  N   UNL     1      47.150   3.439  16.561  0.00  0.00    +0.000 N 
ATOM     34  C   UNL     1      47.715   4.612  16.119  0.00  0.00    +0.000 A 
ATOM     35  O   UNL     1      47.278   5.195  15.134  0.00  0.00    +0.000 OA
ATOM     36  C   UNL     1      48.831   5.083  16.917  0.00  0.00    +0.000 A 
ATOM     37  H   UNL     1      46.366   3.091  16.026  0.00  0.00    +0.000 HD
ENDBRANCH  24  27
ENDBRANCH  22  23
ENDBRANCH   4  22
TORSDOF 8
ENDMDL
MODEL 7
REMARK VINA RESULT:    -6.910      3.350      4.326
REMARK INTER + INTRA:         -11.612
REMARK INTER:                 -10.382
REMARK INTRA:                  -1.230
REMARK UNBOUND:                -1.471
REMARK  Name = 
REMARK  8 active torsions:
REMARK  status: ('A' for Active; 'I' for Inactive)
REMARK    1  A    between atoms: C_2  and  C_4
REMARK    2  A    between atoms: C_8  and  C_9
REMARK    3  A    between atoms: C_9  and  N_10
REMARK    4  A    between atoms: N_10  and  C_11
REMARK    5  A    between atoms: C_11  and  C_12
REMARK    6  A    between atoms: C_15  and  C_16
REMARK    7  A    between atoms: C_16  and  N_17
REMARK    8  A    between atoms: C_18  and  C_20
REMARK                            x       y       z     vdW  Elec       q    Type
REMARK                         _______ _______ _______ _____ _____    ______ ____
ROOT
ATOM      1  C   UNL     1      44.427   4.998  12.457  0.00  0.00    +0.000 A 
ATOM      2  C   UNL     1      45.641   5.032  13.162  0.00  0.00    +0.000 A 
ATOM      3  C   UNL     1      46.390   6.209  13.245  0.00  0.00    +0.000 A 
ATOM      4  C   UNL     1      45.947   7.380  12.617  0.00  0.00    +0.000 A 
ATOM      5  C   UNL     1      44.755   7.339  11.881  0.00  0.00    +0.000 A 
ATOM      6  C   UNL     1      44.000   6.165  11.809  0.00  0.00    +0.000 A 
ENDROOT
BRANCH   1   7
ATOM      7  C   UNL     1      43.604   3.729  12.386  0.00  0.00    +0.000 C 
BRANCH   7   8
ATOM      8  N   UNL     1      43.234   3.424  11.008  0.00  0.00    +0.000 NA
ATOM      9  H   UNL     1      42.239   3.210  10.965  0.00  0.00    +0.000 HD
BRANCH   8  10
ATOM     10  C   UNL     1      43.972   2.286  10.468  0.00  0.00    +0.000 C 
BRANCH  10  15
ATOM     11  C   UNL     1      46.557   2.310   7.648  0.00  0.00    +0.000 A 
ATOM     12  C   UNL     1      46.605   3.672   7.332  0.00  0.00    +0.000 A 
ATOM     13  C   UNL     1      45.845   4.584   8.066  0.00  0.00    +0.000 A 
ATOM     14  C   UNL     1      45.026   4.136   9.102  0.00  0.00    +0.000 A 
ATOM     15  C   UNL     1      44.941   2.770   9.411  0.00  0.00    +0.000 A 
ATOM     16  C   UNL     1      45.721   1.862   8.682  0.00  0.00    +0.000 A 
BRANCH  11  18
ATOM     17  N   UNL     1      48.426   1.738   6.188  0.00  0.00    +0.000 N 
ATOM     18  C   UNL     1      47.333   1.299   6.883  0.00  0.00    +0.000 C 
ATOM     19  O   UNL     1      47.035   0.111   6.899  0.00  0.00    +0.000 OA
ATOM     20  H   UNL     1      49.000   1.025   5.758  0.00  0.00    +0.000 HD
ATOM     21  H   UNL     1      48.841   2.645   6.343  0.00  0.00    +0.000 HD
ENDBRANCH  11  18
ENDBRANCH  10  15
ENDBRANCH   8  10
ENDBRANCH   7   8
ENDBRANCH   1   7
BRANCH   4  22
ATOM     22  C   UNL     1      46.759   8.645  12.683  0.00  0.00    +0.000 C 
BRANCH  22  23
ATOM     23  N   UNL     1      48.013   8.413  13.352  0.00  0.00    +0.000 N 
ATOM     24  C   UNL     1      49.019   9.343  13.331  0.00  0.00    +0.000 C 
ATOM     25  O   UNL     1      48.884  10.437  12.790  0.00  0.00    +0.000 OA
ATOM     26  H   UNL     1      48.224   7.454  13.608  0.00  0.00    +0.000 HD
BRANCH  24  27
ATOM     27  C   UNL     1      50.252   8.988  14.047  0.00  0.00    +0.000 A 
ATOM     28  C   UNL     1      50.284   9.054  15.434  0.00  0.00    +0.000 A 
ATOM     29  S   UNL     1      51.772   8.566  16.108  0.00  0.00    +0.000 S 
ATOM     30  C   UNL     1      52.444   8.297  14.568  0.00  0.00    +0.000 A 
ATOM     31  N   UNL     1      53.732   7.881  14.430  0.00  0.00    +0.000 NA
ATOM     32  C   UNL     1      54.121   7.744  13.207  0.00  0.00    +0.000 A 
ATOM     33  N   UNL     1      53.338   7.983  12.107  0.00  0.00    +0.000 N 
ATOM     34  C   UNL     1      52.025   8.378  12.197  0.00  0.00    +0.000 A 
ATOM     35  O   UNL     1      51.342   8.544  11.194  0.00  0.00    +0.000 OA
ATOM     36  C   UNL     1      51.540   8.558  13.553  0.00  0.00    +0.000 A 
ATOM     37  H   UNL     1      53.700   7.845  11.174  0.00  0.00    +0.000 HD
ENDBRANCH  24  27
ENDBRANCH  22  23
ENDBRANCH   4  22
TORSDOF 8
ENDMDL
MODEL 8
REMARK VINA RESULT:    -6.899      3.757      8.497
REMARK INTER + INTRA:         -11.596
REMARK INTER:                  -9.236
REMARK INTRA:                  -2.360
REMARK UNBOUND:                -1.471
REMARK  Name = 
REMARK  8 active torsions:
REMARK  status: ('A' for Active; 'I' for Inactive)
REMARK    1  A    between atoms: C_2  and  C_4
REMARK    2  A    between atoms: C_8  and  C_9
REMARK    3  A    between atoms: C_9  and  N_10
REMARK    4  A    between atoms: N_10  and  C_11
REMARK    5  A    between atoms: C_11  and  C_12
REMARK    6  A    between atoms: C_15  and  C_16
REMARK    7  A    between atoms: C_16  and  N_17
REMARK    8  A    between atoms: C_18  and  C_20
REMARK                            x       y       z     vdW  Elec       q    Type
REMARK                         _______ _______ _______ _____ _____    ______ ____
ROOT
ATOM      1  C   UNL     1      49.835   7.953  17.606  0.00  0.00    +0.000 A 
ATOM      2  C   UNL     1      48.980   8.987  17.191  0.00  0.00    +0.000 A 
ATOM      3  C   UNL     1      48.694   9.181  15.837  0.00  0.00    +0.000 A 
ATOM      4  C   UNL     1      49.265   8.352  14.864  0.00  0.00    +0.000 A 
ATOM      5  C   UNL     1      50.148   7.344  15.272  0.00  0.00    +0.000 A 
ATOM      6  C   UNL     1      50.423   7.141  16.628  0.00  0.00    +0.000 A 
ENDROOT
BRANCH   1   7
ATOM      7  C   UNL     1      50.126   7.728  19.075  0.00  0.00    +0.000 C 
BRANCH   7   8
ATOM      8  N   UNL     1      49.064   6.949  19.704  0.00  0.00    +0.000 NA
ATOM      9  H   UNL     1      48.563   7.537  20.368  0.00  0.00    +0.000 HD
BRANCH   8  10
ATOM     10  C   UNL     1      49.572   5.780  20.415  0.00  0.00    +0.000 C 
BRANCH  10  15
ATOM     11  C   UNL     1      49.709   3.259  17.541  0.00  0.00    +0.000 A 
ATOM     12  C   UNL     1      51.085   3.019  17.454  0.00  0.00    +0.000 A 
ATOM     13  C   UNL     1      51.958   3.629  18.356  0.00  0.00    +0.000 A 
ATOM     14  C   UNL     1      51.460   4.490  19.334  0.00  0.00    +0.000 A 
ATOM     15  C   UNL     1      50.086   4.766  19.417  0.00  0.00    +0.000 A 
ATOM     16  C   UNL     1      49.215   4.136  18.518  0.00  0.00    +0.000 A 
BRANCH  11  18
ATOM     17  N   UNL     1      47.484   3.179  16.544  0.00  0.00    +0.000 N 
ATOM     18  C   UNL     1      48.743   2.647  16.591  0.00  0.00    +0.000 C 
ATOM     19  O   UNL     1      49.064   1.726  15.851  0.00  0.00    +0.000 OA
ATOM     20  H   UNL     1      46.873   2.818  15.824  0.00  0.00    +0.000 HD
ATOM     21  H   UNL     1      47.256   4.074  16.950  0.00  0.00    +0.000 HD
ENDBRANCH  11  18
ENDBRANCH  10  15
ENDBRANCH   8  10
ENDBRANCH   7   8
ENDBRANCH   1   7
BRANCH   4  22
ATOM     22  C   UNL     1      48.981   8.570  13.401  0.00  0.00    +0.000 C 
BRANCH  22  23
ATOM     23  N   UNL     1      47.985   7.643  12.931  0.00  0.00    +0.000 N 
ATOM     24  C   UNL     1      46.655   7.974  12.901  0.00  0.00    +0.000 C 
ATOM     25  O   UNL     1      46.255   9.090  13.222  0.00  0.00    +0.000 OA
ATOM     26  H   UNL     1      48.258   6.667  12.875  0.00  0.00    +0.000 HD
BRANCH  24  27
ATOM     27  C   UNL     1      45.736   6.942  12.405  0.00  0.00    +0.000 A 
ATOM     28  C   UNL     1      44.636   7.312  11.641  0.00  0.00    +0.000 A 
ATOM     29  S   UNL     1      43.699   5.992  11.107  0.00  0.00    +0.000 S 
ATOM     30  C   UNL     1      44.700   4.881  11.920  0.00  0.00    +0.000 A 
ATOM     31  N   UNL     1      44.433   3.548  11.889  0.00  0.00    +0.000 NA
ATOM     32  C   UNL     1      45.255   2.823  12.571  0.00  0.00    +0.000 A 
ATOM     33  N   UNL     1      46.324   3.310  13.279  0.00  0.00    +0.000 N 
ATOM     34  C   UNL     1      46.648   4.646  13.317  0.00  0.00    +0.000 A 
ATOM     35  O   UNL     1      47.633   5.043  13.926  0.00  0.00    +0.000 OA
ATOM     36  C   UNL     1      45.746   5.507  12.574  0.00  0.00    +0.000 A 
ATOM     37  H   UNL     1      46.938   2.687  13.783  0.00  0.00    +0.000 HD
ENDBRANCH  24  27
ENDBRANCH  22  23
ENDBRANCH   4  22
TORSDOF 8
ENDMDL
MODEL 9
REMARK VINA RESULT:    -6.651      4.117      8.893
REMARK INTER + INTRA:         -11.233
REMARK INTER:                  -9.335
REMARK INTRA:                  -1.898
REMARK UNBOUND:                -1.471
REMARK  Name = 
REMARK  8 active torsions:
REMARK  status: ('A' for Active; 'I' for Inactive)
REMARK    1  A    between atoms: C_2  and  C_4
REMARK    2  A    between atoms: C_8  and  C_9
REMARK    3  A    between atoms: C_9  and  N_10
REMARK    4  A    between atoms: N_10  and  C_11
REMARK    5  A    between atoms: C_11  and  C_12
REMARK    6  A    between atoms: C_15  and  C_16
REMARK    7  A    between atoms: C_16  and  N_17
REMARK    8  A    between atoms: C_18  and  C_20
REMARK                            x       y       z     vdW  Elec       q    Type
REMARK                         _______ _______ _______ _____ _____    ______ ____
ROOT
ATOM      1  C   UNL     1      51.983   7.536  16.886  0.00  0.00    +0.000 A 
ATOM      2  C   UNL     1      50.917   8.109  17.597  0.00  0.00    +0.000 A 
ATOM      3  C   UNL     1      49.775   8.566  16.933  0.00  0.00    +0.000 A 
ATOM      4  C   UNL     1      49.676   8.469  15.540  0.00  0.00    +0.000 A 
ATOM      5  C   UNL     1      50.754   7.932  14.824  0.00  0.00    +0.000 A 
ATOM      6  C   UNL     1      51.891   7.463  15.490  0.00  0.00    +0.000 A 
ENDROOT
BRANCH   1   7
ATOM      7  C   UNL     1      53.211   7.019  17.608  0.00  0.00    +0.000 C 
BRANCH   7   8
ATOM      8  N   UNL     1      52.842   6.348  18.849  0.00  0.00    +0.000 NA
ATOM      9  H   UNL     1      53.574   6.496  19.542  0.00  0.00    +0.000 HD
BRANCH   8  10
ATOM     10  C   UNL     1      52.655   4.911  18.676  0.00  0.00    +0.000 C 
BRANCH  10  15
ATOM     11  C   UNL     1      49.224   3.510  17.731  0.00  0.00    +0.000 A 
ATOM     12  C   UNL     1      48.471   3.843  18.863  0.00  0.00    +0.000 A 
ATOM     13  C   UNL     1      49.058   4.565  19.902  0.00  0.00    +0.000 A 
ATOM     14  C   UNL     1      50.399   4.940  19.820  0.00  0.00    +0.000 A 
ATOM     15  C   UNL     1      51.178   4.588  18.707  0.00  0.00    +0.000 A 
ATOM     16  C   UNL     1      50.575   3.878  17.659  0.00  0.00    +0.000 A 
BRANCH  11  18
ATOM     17  N   UNL     1      47.397   3.073  16.174  0.00  0.00    +0.000 N 
ATOM     18  C   UNL     1      48.647   2.726  16.607  0.00  0.00    +0.000 C 
ATOM     19  O   UNL     1      49.273   1.827  16.061  0.00  0.00    +0.000 OA
ATOM     20  H   UNL     1      47.063   2.599  15.345  0.00  0.00    +0.000 HD
ATOM     21  H   UNL     1      46.957   3.945  16.426  0.00  0.00    +0.000 HD
ENDBRANCH  11  18
ENDBRANCH  10  15
ENDBRANCH   8  10
ENDBRANCH   7   8
ENDBRANCH   1   7
BRANCH   4  22
ATOM     22  C   UNL     1      48.460   8.980  14.815  0.00  0.00    +0.000 C 
BRANCH  22  23
ATOM     23  N   UNL     1      47.592   7.892  14.444  0.00  0.00    +0.000 N 
ATOM     24  C   UNL     1      47.464   7.490  13.140  0.00  0.00    +0.000 C 
ATOM     25  O   UNL     1      48.119   7.999  12.234  0.00  0.00    +0.000 OA
ATOM     26  H   UNL     1      46.893   7.612  15.124  0.00  0.00    +0.000 HD
BRANCH  24  27
ATOM     27  C   UNL     1      46.546   6.373  12.887  0.00  0.00    +0.000 A 
ATOM     28  C   UNL     1      46.911   5.085  13.260  0.00  0.00    +0.000 A 
ATOM     29  S   UNL     1      45.714   3.914  12.939  0.00  0.00    +0.000 S 
ATOM     30  C   UNL     1      44.685   5.077  12.244  0.00  0.00    +0.000 A 
ATOM     31  N   UNL     1      43.475   4.723  11.733  0.00  0.00    +0.000 NA
ATOM     32  C   UNL     1      42.810   5.698  11.211  0.00  0.00    +0.000 A 
ATOM     33  N   UNL     1      43.242   6.998  11.157  0.00  0.00    +0.000 N 
ATOM     34  C   UNL     1      44.444   7.407  11.683  0.00  0.00    +0.000 A 
ATOM     35  O   UNL     1      44.782   8.584  11.654  0.00  0.00    +0.000 OA
ATOM     36  C   UNL     1      45.237   6.345  12.273  0.00  0.00    +0.000 A 
ATOM     37  H   UNL     1      42.667   7.718  10.744  0.00  0.00    +0.000 HD
ENDBRANCH  24  27
ENDBRANCH  22  23
ENDBRANCH   4  22
TORSDOF 8
ENDMDL
