MODEL 1
REMARK VINA RESULT:    -7.717      0.000      0.000
REMARK INTER + INTRA:         -10.909
REMARK INTER:                 -10.423
REMARK INTRA:                  -0.486
REMARK UNBOUND:                -0.486
REMARK  Name = 
REMARK  6 active torsions:
REMARK  status: ('A' for Active; 'I' for Inactive)
REMARK    1  A    between atoms: C_2  and  C_4
REMARK    2  A    between atoms: C_7  and  C_8
REMARK    3  A    between atoms: C_8  and  C_9
REMARK    4  A    between atoms: C_9  and  N_10
REMARK    5  A    between atoms: N_10  and  C_11
REMARK    6  A    between atoms: C_16  and  C_17
REMARK                            x       y       z     vdW  Elec       q    Type
REMARK                         _______ _______ _______ _____ _____    ______ ____
ROOT
ATOM      1  N   UNL     1      43.875   6.492  11.042  0.00  0.00    +0.000 N 
ATOM      2  H   UNL     1      43.425   6.630  10.140  0.00  0.00    +0.000 HD
ENDROOT
BRANCH   1   3
ATOM      3  C   UNL     1      44.696   7.581  11.380  0.00  0.00    +0.000 A 
ATOM      4  C   UNL     1      44.259   8.908  11.303  0.00  0.00    +0.000 A 
ATOM      5  C   UNL     1      45.096   9.950  11.681  0.00  0.00    +0.000 A 
ATOM      6  C   UNL     1      46.390   9.680  12.093  0.00  0.00    +0.000 A 
ATOM      7  F   UNL     1      47.110  10.732  12.500  0.00  0.00    +0.000 F 
ATOM      8  C   UNL     1      46.914   8.379  12.093  0.00  0.00    +0.000 A 
ATOM      9  C   UNL     1      46.032   7.340  11.730  0.00  0.00    +0.000 A 
BRANCH   8  10
ATOM     10  C   UNL     1      48.331   8.013  12.525  0.00  0.00    +0.000 C 
ATOM     11  C   UNL     1      48.558   6.550  12.932  0.00  0.00    +0.000 C 
ATOM     12  C   UNL     1      47.951   6.232  14.302  0.00  0.00    +0.000 C 
ATOM     13  N   UNL     1      48.422   7.127  15.361  0.00  0.00    +0.000 NA
ATOM     14  C   UNL     1      48.296   8.543  15.025  0.00  0.00    +0.000 C 
ATOM     15  C   UNL     1      48.882   8.901  13.661  0.00  0.00    +0.000 C 
ATOM     16  H   UNL     1      49.394   6.911  15.566  0.00  0.00    +0.000 HD
ENDBRANCH   8  10
ENDBRANCH   1   3
BRANCH   1  17
ATOM     17  C   UNL     1      44.494   5.173  11.204  0.00  0.00    +0.000 C 
BRANCH  17  18
ATOM     18  C   UNL     1      43.831   4.131  10.305  0.00  0.00    +0.000 C 
BRANCH  18  22
ATOM     19  C   UNL     1      46.646   2.449   7.498  0.00  0.00    +0.000 A 
ATOM     20  C   UNL     1      46.452   3.834   7.547  0.00  0.00    +0.000 A 
ATOM     21  C   UNL     1      45.539   4.381   8.453  0.00  0.00    +0.000 A 
ATOM     22  C   UNL     1      44.822   3.551   9.322  0.00  0.00    +0.000 A 
ATOM     23  C   UNL     1      45.000   2.163   9.252  0.00  0.00    +0.000 A 
ATOM     24  C   UNL     1      45.911   1.613   8.341  0.00  0.00    +0.000 A 
BRANCH  19  26
ATOM     25  N   UNL     1      48.732   2.562   6.249  0.00  0.00    +0.000 N 
ATOM     26  C   UNL     1      47.613   1.838   6.543  0.00  0.00    +0.000 C 
ATOM     27  O   UNL     1      47.434   0.723   6.068  0.00  0.00    +0.000 OA
ATOM     28  H   UNL     1      49.421   2.106   5.662  0.00  0.00    +0.000 HD
ATOM     29  H   UNL     1      49.038   3.348   6.807  0.00  0.00    +0.000 HD
ENDBRANCH  19  26
ENDBRANCH  18  22
ENDBRANCH  17  18
ENDBRANCH   1  17
TORSDOF 6
ENDMDL
MODEL 2
REMARK VINA RESULT:    -7.681      2.780      4.007
REMARK INTER + INTRA:         -10.861
REMARK INTER:                 -10.457
REMARK INTRA:                  -0.404
REMARK UNBOUND:                -0.486
REMARK  Name = 
REMARK  6 active torsions:
REMARK  status: ('A' for Active; 'I' for Inactive)
REMARK    1  A    between atoms: C_2  and  C_4
REMARK    2  A    between atoms: C_7  and  C_8
REMARK    3  A    between atoms: C_8  and  C_9
REMARK    4  A    between atoms: C_9  and  N_10
REMARK    5  A    between atoms: N_10  and  C_11
REMARK    6  A    between atoms: C_16  and  C_17
REMARK                            x       y       z     vdW  Elec       q    Type
REMARK                         _______ _______ _______ _____ _____    ______ ____
ROOT
ATOM      1  N   UNL     1      45.687   3.818  12.850  0.00  0.00    +0.000 N 
ATOM      2  H   UNL     1      45.141   3.173  13.416  0.00  0.00    +0.000 HD
ENDROOT
BRANCH   1   3
ATOM      3  C   UNL     1      46.557   4.588  13.640  0.00  0.00    +0.000 A 
ATOM      4  C   UNL     1      47.259   5.688  13.136  0.00  0.00    +0.000 A 
ATOM      5  C   UNL     1      48.081   6.441  13.964  0.00  0.00    +0.000 A 
ATOM      6  C   UNL     1      48.246   6.074  15.289  0.00  0.00    +0.000 A 
ATOM      7  F   UNL     1      49.004   6.887  16.035  0.00  0.00    +0.000 F 
ATOM      8  C   UNL     1      47.647   4.923  15.822  0.00  0.00    +0.000 A 
ATOM      9  C   UNL     1      46.798   4.195  14.964  0.00  0.00    +0.000 A 
BRANCH   8  10
ATOM     10  C   UNL     1      47.794   4.457  17.267  0.00  0.00    +0.000 C 
ATOM     11  C   UNL     1      49.068   4.906  17.997  0.00  0.00    +0.000 C 
ATOM     12  C   UNL     1      50.307   4.143  17.519  0.00  0.00    +0.000 C 
ATOM     13  N   UNL     1      50.159   2.690  17.616  0.00  0.00    +0.000 NA
ATOM     14  C   UNL     1      48.936   2.186  16.996  0.00  0.00    +0.000 C 
ATOM     15  C   UNL     1      47.677   2.928  17.440  0.00  0.00    +0.000 C 
ATOM     16  H   UNL     1      50.179   2.422  18.597  0.00  0.00    +0.000 HD
ENDBRANCH   8  10
ENDBRANCH   1   3
BRANCH   1  17
ATOM     17  C   UNL     1      44.892   4.577  11.879  0.00  0.00    +0.000 C 
BRANCH  17  18
ATOM     18  C   UNL     1      44.154   3.651  10.915  0.00  0.00    +0.000 C 
BRANCH  18  22
ATOM     19  C   UNL     1      46.483   2.896   7.359  0.00  0.00    +0.000 A 
ATOM     20  C   UNL     1      46.228   4.213   7.761  0.00  0.00    +0.000 A 
ATOM     21  C   UNL     1      45.472   4.459   8.911  0.00  0.00    +0.000 A 
ATOM     22  C   UNL     1      44.974   3.396   9.672  0.00  0.00    +0.000 A 
ATOM     23  C   UNL     1      45.209   2.079   9.251  0.00  0.00    +0.000 A 
ATOM     24  C   UNL     1      45.963   1.831   8.097  0.00  0.00    +0.000 A 
BRANCH  19  26
ATOM     25  N   UNL     1      48.636   2.489   6.302  0.00  0.00    +0.000 N 
ATOM     26  C   UNL     1      47.286   2.603   6.139  0.00  0.00    +0.000 C 
ATOM     27  O   UNL     1      46.760   2.436   5.045  0.00  0.00    +0.000 OA
ATOM     28  H   UNL     1      49.165   2.211   5.483  0.00  0.00    +0.000 HD
ATOM     29  H   UNL     1      49.070   2.360   7.206  0.00  0.00    +0.000 HD
ENDBRANCH  19  26
ENDBRANCH  18  22
ENDBRANCH  17  18
ENDBRANCH   1  17
TORSDOF 6
ENDMDL
MODEL 3
REMARK VINA RESULT:    -7.512      1.908      3.208
REMARK INTER + INTRA:         -10.633
REMARK INTER:                 -10.094
REMARK INTRA:                  -0.539
REMARK UNBOUND:                -0.486
REMARK  Name = 
REMARK  6 active torsions:
REMARK  status: ('A' for Active; 'I' for Inactive)
REMARK    1  A    between atoms: C_2  and  C_4
REMARK    2  A    between atoms: C_7  and  C_8
REMARK    3  A    between atoms: C_8  and  C_9
REMARK    4  A    between atoms: C_9  and  N_10
REMARK    5  A    between atoms: N_10  and  C_11
REMARK    6  A    between atoms: C_16  and  C_17
REMARK                            x       y       z     vdW  Elec       q    Type
REMARK                         _______ _______ _______ _____ _____    ______ ____
ROOT
ATOM      1  N   UNL     1      43.872   3.766  13.080  0.00  0.00    +0.000 N 
ATOM      2  H   UNL     1      43.104   4.409  13.262  0.00  0.00    +0.000 HD
ENDROOT
BRANCH   1   3
ATOM      3  C   UNL     1      45.117   4.412  13.167  0.00  0.00    +0.000 A 
ATOM      4  C   UNL     1      46.114   4.009  14.061  0.00  0.00    +0.000 A 
ATOM      5  C   UNL     1      47.342   4.656  14.087  0.00  0.00    +0.000 A 
ATOM      6  C   UNL     1      47.568   5.740  13.255  0.00  0.00    +0.000 A 
ATOM      7  F   UNL     1      48.798   6.268  13.296  0.00  0.00    +0.000 F 
ATOM      8  C   UNL     1      46.570   6.250  12.412  0.00  0.00    +0.000 A 
ATOM      9  C   UNL     1      45.344   5.556  12.388  0.00  0.00    +0.000 A 
BRANCH   8  10
ATOM     10  C   UNL     1      46.748   7.444  11.479  0.00  0.00    +0.000 C 
ATOM     11  C   UNL     1      47.889   8.411  11.826  0.00  0.00    +0.000 C 
ATOM     12  C   UNL     1      47.557   9.282  13.041  0.00  0.00    +0.000 C 
ATOM     13  N   UNL     1      46.302  10.021  12.893  0.00  0.00    +0.000 NA
ATOM     14  C   UNL     1      45.174   9.179  12.502  0.00  0.00    +0.000 C 
ATOM     15  C   UNL     1      45.468   8.286  11.298  0.00  0.00    +0.000 C 
ATOM     16  H   UNL     1      46.433  10.756  12.204  0.00  0.00    +0.000 HD
ENDBRANCH   8  10
ENDBRANCH   1   3
BRANCH   1  17
ATOM     17  C   UNL     1      43.683   2.939  11.884  0.00  0.00    +0.000 C 
BRANCH  17  18
ATOM     18  C   UNL     1      43.540   3.798  10.628  0.00  0.00    +0.000 C 
BRANCH  18  22
ATOM     19  C   UNL     1      46.445   2.688   7.634  0.00  0.00    +0.000 A 
ATOM     20  C   UNL     1      45.867   1.704   8.445  0.00  0.00    +0.000 A 
ATOM     21  C   UNL     1      44.928   2.062   9.418  0.00  0.00    +0.000 A 
ATOM     22  C   UNL     1      44.553   3.400   9.579  0.00  0.00    +0.000 A 
ATOM     23  C   UNL     1      45.153   4.385   8.783  0.00  0.00    +0.000 A 
ATOM     24  C   UNL     1      46.098   4.029   7.812  0.00  0.00    +0.000 A 
BRANCH  19  26
ATOM     25  N   UNL     1      47.489   3.132   5.481  0.00  0.00    +0.000 N 
ATOM     26  C   UNL     1      47.448   2.337   6.590  0.00  0.00    +0.000 C 
ATOM     27  O   UNL     1      48.225   1.400   6.729  0.00  0.00    +0.000 OA
ATOM     28  H   UNL     1      48.226   2.935   4.814  0.00  0.00    +0.000 HD
ATOM     29  H   UNL     1      47.058   4.047   5.447  0.00  0.00    +0.000 HD
ENDBRANCH  19  26
ENDBRANCH  18  22
ENDBRANCH  17  18
ENDBRANCH   1  17
TORSDOF 6
ENDMDL
MODEL 4
REMARK VINA RESULT:    -7.419      1.274      1.985
REMARK INTER + INTRA:         -10.507
REMARK INTER:                  -9.987
REMARK INTRA:                  -0.520
REMARK UNBOUND:                -0.486
REMARK  Name = 
REMARK  6 active torsions:
REMARK  status: ('A' for Active; 'I' for Inactive)
REMARK    1  A    between atoms: C_2  and  C_4
REMARK    2  A    between atoms: C_7  and  C_8
REMARK    3  A    between atoms: C_8  and  C_9
REMARK    4  A    between atoms: C_9  and  N_10
REMARK    5  A    between atoms: N_10  and  C_11
REMARK    6  A    between atoms: C_16  and  C_17
REMARK                            x       y       z     vdW  Elec       q    Type
REMARK                         _______ _______ _______ _____ _____    ______ ____
ROOT
ATOM      1  N   UNL     1      44.185   4.754  12.776  0.00  0.00    +0.000 N 
ATOM      2  H   UNL     1      43.193   4.644  12.975  0.00  0.00    +0.000 HD
ENDROOT
BRANCH   1   3
ATOM      3  C   UNL     1      44.494   6.075  12.409  0.00  0.00    +0.000 A 
ATOM      4  C   UNL     1      43.722   6.805  11.500  0.00  0.00    +0.000 A 
ATOM      5  C   UNL     1      44.047   8.120  11.195  0.00  0.00    +0.000 A 
ATOM      6  C   UNL     1      45.171   8.701  11.758  0.00  0.00    +0.000 A 
ATOM      7  F   UNL     1      45.379   9.990  11.462  0.00  0.00    +0.000 F 
ATOM      8  C   UNL     1      46.037   7.984  12.596  0.00  0.00    +0.000 A 
ATOM      9  C   UNL     1      45.666   6.661  12.908  0.00  0.00    +0.000 A 
BRANCH   8  10
ATOM     10  C   UNL     1      47.296   8.558  13.240  0.00  0.00    +0.000 C 
ATOM     11  C   UNL     1      48.336   9.154  12.282  0.00  0.00    +0.000 C 
ATOM     12  C   UNL     1      49.101   8.069  11.516  0.00  0.00    +0.000 C 
ATOM     13  N   UNL     1      49.734   7.084  12.395  0.00  0.00    +0.000 NA
ATOM     14  C   UNL     1      48.822   6.513  13.382  0.00  0.00    +0.000 C 
ATOM     15  C   UNL     1      48.031   7.562  14.161  0.00  0.00    +0.000 C 
ATOM     16  H   UNL     1      50.518   7.524  12.871  0.00  0.00    +0.000 HD
ENDBRANCH   8  10
ENDBRANCH   1   3
BRANCH   1  17
ATOM     17  C   UNL     1      44.733   3.719  11.894  0.00  0.00    +0.000 C 
BRANCH  17  18
ATOM     18  C   UNL     1      43.986   3.668  10.562  0.00  0.00    +0.000 C 
BRANCH  18  22
ATOM     19  C   UNL     1      46.604   2.402   7.372  0.00  0.00    +0.000 A 
ATOM     20  C   UNL     1      46.022   1.450   8.217  0.00  0.00    +0.000 A 
ATOM     21  C   UNL     1      45.176   1.858   9.253  0.00  0.00    +0.000 A 
ATOM     22  C   UNL     1      44.897   3.216   9.445  0.00  0.00    +0.000 A 
ATOM     23  C   UNL     1      45.503   4.168   8.613  0.00  0.00    +0.000 A 
ATOM     24  C   UNL     1      46.354   3.760   7.578  0.00  0.00    +0.000 A 
BRANCH  19  26
ATOM     25  N   UNL     1      48.698   2.660   6.159  0.00  0.00    +0.000 N 
ATOM     26  C   UNL     1      47.508   1.997   6.260  0.00  0.00    +0.000 C 
ATOM     27  O   UNL     1      47.219   1.089   5.489  0.00  0.00    +0.000 OA
ATOM     28  H   UNL     1      49.340   2.324   5.450  0.00  0.00    +0.000 HD
ATOM     29  H   UNL     1      49.080   3.217   6.912  0.00  0.00    +0.000 HD
ENDBRANCH  19  26
ENDBRANCH  18  22
ENDBRANCH  17  18
ENDBRANCH   1  17
TORSDOF 6
ENDMDL
MODEL 5
REMARK VINA RESULT:    -7.301      1.673      3.488
REMARK INTER + INTRA:         -10.348
REMARK INTER:                  -9.980
REMARK INTRA:                  -0.368
REMARK UNBOUND:                -0.486
REMARK  Name = 
REMARK  6 active torsions:
REMARK  status: ('A' for Active; 'I' for Inactive)
REMARK    1  A    between atoms: C_2  and  C_4
REMARK    2  A    between atoms: C_7  and  C_8
REMARK    3  A    between atoms: C_8  and  C_9
REMARK    4  A    between atoms: C_9  and  N_10
REMARK    5  A    between atoms: N_10  and  C_11
REMARK    6  A    between atoms: C_16  and  C_17
REMARK                            x       y       z     vdW  Elec       q    Type
REMARK                         _______ _______ _______ _____ _____    ______ ____
ROOT
ATOM      1  N   UNL     1      44.127   6.333  10.882  0.00  0.00    +0.000 N 
ATOM      2  H   UNL     1      43.963   6.430   9.882  0.00  0.00    +0.000 HD
ENDROOT
BRANCH   1   3
ATOM      3  C   UNL     1      45.049   7.285  11.348  0.00  0.00    +0.000 A 
ATOM      4  C   UNL     1      46.300   6.932  11.865  0.00  0.00    +0.000 A 
ATOM      5  C   UNL     1      47.192   7.911  12.281  0.00  0.00    +0.000 A 
ATOM      6  C   UNL     1      46.825   9.246  12.230  0.00  0.00    +0.000 A 
ATOM      7  F   UNL     1      47.765  10.129  12.590  0.00  0.00    +0.000 F 
ATOM      8  C   UNL     1      45.548   9.650  11.816  0.00  0.00    +0.000 A 
ATOM      9  C   UNL     1      44.674   8.636  11.375  0.00  0.00    +0.000 A 
BRANCH   8  10
ATOM     10  C   UNL     1      45.076  11.099  11.745  0.00  0.00    +0.000 C 
ATOM     11  C   UNL     1      43.817  11.361  10.906  0.00  0.00    +0.000 C 
ATOM     12  C   UNL     1      44.098  11.273   9.403  0.00  0.00    +0.000 C 
ATOM     13  N   UNL     1      45.183  12.155   8.968  0.00  0.00    +0.000 NA
ATOM     14  C   UNL     1      46.402  12.010   9.760  0.00  0.00    +0.000 C 
ATOM     15  C   UNL     1      46.164  12.083  11.267  0.00  0.00    +0.000 C 
ATOM     16  H   UNL     1      44.861  13.118   9.012  0.00  0.00    +0.000 HD
ENDBRANCH   8  10
ENDBRANCH   1   3
BRANCH   1  17
ATOM     17  C   UNL     1      44.385   4.954  11.310  0.00  0.00    +0.000 C 
BRANCH  17  18
ATOM     18  C   UNL     1      43.743   3.945  10.361  0.00  0.00    +0.000 C 
BRANCH  18  22
ATOM     19  C   UNL     1      46.604   2.413   7.515  0.00  0.00    +0.000 A 
ATOM     20  C   UNL     1      46.389   3.792   7.616  0.00  0.00    +0.000 A 
ATOM     21  C   UNL     1      45.461   4.290   8.535  0.00  0.00    +0.000 A 
ATOM     22  C   UNL     1      44.750   3.417   9.366  0.00  0.00    +0.000 A 
ATOM     23  C   UNL     1      44.949   2.035   9.244  0.00  0.00    +0.000 A 
ATOM     24  C   UNL     1      45.875   1.534   8.320  0.00  0.00    +0.000 A 
BRANCH  19  26
ATOM     25  N   UNL     1      48.662   2.635   6.236  0.00  0.00    +0.000 N 
ATOM     26  C   UNL     1      47.587   1.853   6.546  0.00  0.00    +0.000 C 
ATOM     27  O   UNL     1      47.460   0.730   6.072  0.00  0.00    +0.000 OA
ATOM     28  H   UNL     1      49.366   2.215   5.638  0.00  0.00    +0.000 HD
ATOM     29  H   UNL     1      48.936   3.435   6.790  0.00  0.00    +0.000 HD
ENDBRANCH  19  26
ENDBRANCH  18  22
ENDBRANCH  17  18
ENDBRANCH   1  17
TORSDOF 6
ENDMDL
MODEL 6
REMARK VINA RESULT:    -7.159      4.878      8.331
REMARK INTER + INTRA:         -10.156
REMARK INTER:                  -9.961
REMARK INTRA:                  -0.196
REMARK UNBOUND:                -0.486
REMARK  Name = 
REMARK  6 active torsions:
REMARK  status: ('A' for Active; 'I' for Inactive)
REMARK    1  A    between atoms: C_2  and  C_4
REMARK    2  A    between atoms: C_7  and  C_8
REMARK    3  A    between atoms: C_8  and  C_9
REMARK    4  A    between atoms: C_9  and  N_10
REMARK    5  A    between atoms: N_10  and  C_11
REMARK    6  A    between atoms: C_16  and  C_17
REMARK                            x       y       z     vdW  Elec       q    Type
REMARK                         _______ _______ _______ _____ _____    ______ ____
ROOT
ATOM      1  N   UNL     1      46.952   3.660  14.751  0.00  0.00    +0.000 N 
ATOM      2  H   UNL     1      47.535   2.901  14.406  0.00  0.00    +0.000 HD
ENDROOT
BRANCH   1   3
ATOM      3  C   UNL     1      46.696   4.611  13.748  0.00  0.00    +0.000 A 
ATOM      4  C   UNL     1      47.462   5.771  13.596  0.00  0.00    +0.000 A 
ATOM      5  C   UNL     1      47.193   6.664  12.567  0.00  0.00    +0.000 A 
ATOM      6  C   UNL     1      46.129   6.431  11.712  0.00  0.00    +0.000 A 
ATOM      7  F   UNL     1      45.976   7.306  10.710  0.00  0.00    +0.000 F 
ATOM      8  C   UNL     1      45.266   5.338  11.880  0.00  0.00    +0.000 A 
ATOM      9  C   UNL     1      45.581   4.435  12.916  0.00  0.00    +0.000 A 
BRANCH   8  10
ATOM     10  C   UNL     1      44.072   5.028  10.983  0.00  0.00    +0.000 C 
ATOM     11  C   UNL     1      42.952   4.187  11.611  0.00  0.00    +0.000 C 
ATOM     12  C   UNL     1      43.351   2.715  11.760  0.00  0.00    +0.000 C 
ATOM     13  N   UNL     1      43.788   2.108  10.501  0.00  0.00    +0.000 NA
ATOM     14  C   UNL     1      44.813   2.883   9.806  0.00  0.00    +0.000 C 
ATOM     15  C   UNL     1      44.458   4.360   9.646  0.00  0.00    +0.000 C 
ATOM     16  H   UNL     1      42.980   1.992   9.894  0.00  0.00    +0.000 HD
ENDBRANCH   8  10
ENDBRANCH   1   3
BRANCH   1  17
ATOM     17  C   UNL     1      47.395   4.214  16.034  0.00  0.00    +0.000 C 
BRANCH  17  18
ATOM     18  C   UNL     1      47.673   3.110  17.053  0.00  0.00    +0.000 C 
BRANCH  18  22
ATOM     19  C   UNL     1      51.899   2.771  17.861  0.00  0.00    +0.000 A 
ATOM     20  C   UNL     1      51.216   3.945  18.199  0.00  0.00    +0.000 A 
ATOM     21  C   UNL     1      49.847   4.058  17.936  0.00  0.00    +0.000 A 
ATOM     22  C   UNL     1      49.151   2.998  17.344  0.00  0.00    +0.000 A 
ATOM     23  C   UNL     1      49.845   1.835  16.983  0.00  0.00    +0.000 A 
ATOM     24  C   UNL     1      51.217   1.722  17.242  0.00  0.00    +0.000 A 
BRANCH  19  26
ATOM     25  N   UNL     1      53.727   1.636  18.999  0.00  0.00    +0.000 N 
ATOM     26  C   UNL     1      53.357   2.622  18.130  0.00  0.00    +0.000 C 
ATOM     27  O   UNL     1      54.192   3.326  17.574  0.00  0.00    +0.000 OA
ATOM     28  H   UNL     1      54.723   1.489  19.114  0.00  0.00    +0.000 HD
ATOM     29  H   UNL     1      53.108   0.882  19.267  0.00  0.00    +0.000 HD
ENDBRANCH  19  26
ENDBRANCH  18  22
ENDBRANCH  17  18
ENDBRANCH   1  17
TORSDOF 6
ENDMDL
MODEL 7
REMARK VINA RESULT:    -6.807      4.030      6.331
REMARK INTER + INTRA:          -9.681
REMARK INTER:                  -8.859
REMARK INTRA:                  -0.822
REMARK UNBOUND:                -0.486
REMARK  Name = 
REMARK  6 active torsions:
REMARK  status: ('A' for Active; 'I' for Inactive)
REMARK    1  A    between atoms: C_2  and  C_4
REMARK    2  A    between atoms: C_7  and  C_8
REMARK    3  A    between atoms: C_8  and  C_9
REMARK    4  A    between atoms: C_9  and  N_10
REMARK    5  A    between atoms: N_10  and  C_11
REMARK    6  A    between atoms: C_16  and  C_17
REMARK                            x       y       z     vdW  Elec       q    Type
REMARK                         _______ _______ _______ _____ _____    ______ ____
ROOT
ATOM      1  N   UNL     1      47.862   8.031  14.891  0.00  0.00    +0.000 N 
ATOM      2  H   UNL     1      47.564   8.861  15.400  0.00  0.00    +0.000 HD
ENDROOT
BRANCH   1   3
ATOM      3  C   UNL     1      48.893   7.355  15.565  0.00  0.00    +0.000 A 
ATOM      4  C   UNL     1      50.234   7.739  15.471  0.00  0.00    +0.000 A 
ATOM      5  C   UNL     1      51.214   7.061  16.184  0.00  0.00    +0.000 A 
ATOM      6  C   UNL     1      50.870   5.966  16.959  0.00  0.00    +0.000 A 
ATOM      7  F   UNL     1      51.862   5.408  17.664  0.00  0.00    +0.000 F 
ATOM      8  C   UNL     1      49.557   5.476  17.010  0.00  0.00    +0.000 A 
ATOM      9  C   UNL     1      48.581   6.201  16.298  0.00  0.00    +0.000 A 
BRANCH   8  10
ATOM     10  C   UNL     1      49.112   4.271  17.834  0.00  0.00    +0.000 C 
ATOM     11  C   UNL     1      50.171   3.186  18.075  0.00  0.00    +0.000 C 
ATOM     12  C   UNL     1      50.441   2.354  16.817  0.00  0.00    +0.000 C 
ATOM     13  N   UNL     1      49.229   1.755  16.254  0.00  0.00    +0.000 NA
ATOM     14  C   UNL     1      48.146   2.715  16.051  0.00  0.00    +0.000 C 
ATOM     15  C   UNL     1      47.852   3.572  17.281  0.00  0.00    +0.000 C 
ATOM     16  H   UNL     1      48.913   1.011  16.871  0.00  0.00    +0.000 HD
ENDBRANCH   8  10
ENDBRANCH   1   3
BRANCH   1  17
ATOM     17  C   UNL     1      48.101   8.263  13.463  0.00  0.00    +0.000 C 
BRANCH  17  18
ATOM     18  C   UNL     1      48.465   6.968  12.740  0.00  0.00    +0.000 C 
BRANCH  18  22
ATOM     19  C   UNL     1      44.985   4.487  12.129  0.00  0.00    +0.000 A 
ATOM     20  C   UNL     1      45.829   4.250  13.220  0.00  0.00    +0.000 A 
ATOM     21  C   UNL     1      46.959   5.050  13.418  0.00  0.00    +0.000 A 
ATOM     22  C   UNL     1      47.246   6.098  12.536  0.00  0.00    +0.000 A 
ATOM     23  C   UNL     1      46.413   6.316  11.430  0.00  0.00    +0.000 A 
ATOM     24  C   UNL     1      45.284   5.511  11.227  0.00  0.00    +0.000 A 
BRANCH  19  26
ATOM     25  N   UNL     1      43.750   2.420  12.482  0.00  0.00    +0.000 N 
ATOM     26  C   UNL     1      43.775   3.651  11.892  0.00  0.00    +0.000 C 
ATOM     27  O   UNL     1      42.828   4.058  11.229  0.00  0.00    +0.000 OA
ATOM     28  H   UNL     1      42.891   1.891  12.382  0.00  0.00    +0.000 HD
ATOM     29  H   UNL     1      44.376   2.160  13.232  0.00  0.00    +0.000 HD
ENDBRANCH  19  26
ENDBRANCH  18  22
ENDBRANCH  17  18
ENDBRANCH   1  17
TORSDOF 6
ENDMDL
MODEL 8
REMARK VINA RESULT:    -6.258      3.507      5.619
REMARK INTER + INTRA:          -8.939
REMARK INTER:                  -8.200
REMARK INTRA:                  -0.739
REMARK UNBOUND:                -0.486
REMARK  Name = 
REMARK  6 active torsions:
REMARK  status: ('A' for Active; 'I' for Inactive)
REMARK    1  A    between atoms: C_2  and  C_4
REMARK    2  A    between atoms: C_7  and  C_8
REMARK    3  A    between atoms: C_8  and  C_9
REMARK    4  A    between atoms: C_9  and  N_10
REMARK    5  A    between atoms: N_10  and  C_11
REMARK    6  A    between atoms: C_16  and  C_17
REMARK                            x       y       z     vdW  Elec       q    Type
REMARK                         _______ _______ _______ _____ _____    ______ ____
ROOT
ATOM      1  N   UNL     1      49.385   6.986  13.295  0.00  0.00    +0.000 N 
ATOM      2  H   UNL     1      49.247   5.981  13.206  0.00  0.00    +0.000 HD
ENDROOT
BRANCH   1   3
ATOM      3  C   UNL     1      49.604   7.360  14.631  0.00  0.00    +0.000 A 
ATOM      4  C   UNL     1      50.003   8.649  14.998  0.00  0.00    +0.000 A 
ATOM      5  C   UNL     1      50.172   8.982  16.335  0.00  0.00    +0.000 A 
ATOM      6  C   UNL     1      49.992   8.018  17.314  0.00  0.00    +0.000 A 
ATOM      7  F   UNL     1      50.113   8.435  18.580  0.00  0.00    +0.000 F 
ATOM      8  C   UNL     1      49.691   6.686  16.998  0.00  0.00    +0.000 A 
ATOM      9  C   UNL     1      49.499   6.385  15.634  0.00  0.00    +0.000 A 
BRANCH   8  10
ATOM     10  C   UNL     1      49.489   5.574  18.023  0.00  0.00    +0.000 C 
ATOM     11  C   UNL     1      48.844   4.282  17.503  0.00  0.00    +0.000 C 
ATOM     12  C   UNL     1      47.344   4.451  17.242  0.00  0.00    +0.000 C 
ATOM     13  N   UNL     1      46.610   4.944  18.409  0.00  0.00    +0.000 NA
ATOM     14  C   UNL     1      47.197   6.142  19.003  0.00  0.00    +0.000 C 
ATOM     15  C   UNL     1      48.696   6.018  19.271  0.00  0.00    +0.000 C 
ATOM     16  H   UNL     1      46.566   4.205  19.106  0.00  0.00    +0.000 HD
ENDBRANCH   8  10
ENDBRANCH   1   3
BRANCH   1  17
ATOM     17  C   UNL     1      48.388   7.789  12.579  0.00  0.00    +0.000 C 
BRANCH  17  18
ATOM     18  C   UNL     1      47.006   7.661  13.217  0.00  0.00    +0.000 C 
BRANCH  18  22
ATOM     19  C   UNL     1      44.822   4.317  11.580  0.00  0.00    +0.000 A 
ATOM     20  C   UNL     1      45.022   5.467  10.807  0.00  0.00    +0.000 A 
ATOM     21  C   UNL     1      45.727   6.552  11.336  0.00  0.00    +0.000 A 
ATOM     22  C   UNL     1      46.244   6.493  12.635  0.00  0.00    +0.000 A 
ATOM     23  C   UNL     1      46.019   5.351  13.415  0.00  0.00    +0.000 A 
ATOM     24  C   UNL     1      45.308   4.265  12.888  0.00  0.00    +0.000 A 
BRANCH  19  26
ATOM     25  N   UNL     1      43.500   2.309  11.956  0.00  0.00    +0.000 N 
ATOM     26  C   UNL     1      44.075   3.145  11.043  0.00  0.00    +0.000 C 
ATOM     27  O   UNL     1      43.949   2.956   9.839  0.00  0.00    +0.000 OA
ATOM     28  H   UNL     1      42.928   1.560  11.581  0.00  0.00    +0.000 HD
ATOM     29  H   UNL     1      43.359   2.567  12.923  0.00  0.00    +0.000 HD
ENDBRANCH  19  26
ENDBRANCH  18  22
ENDBRANCH  17  18
ENDBRANCH   1  17
TORSDOF 6
ENDMDL
MODEL 9
REMARK VINA RESULT:    -6.236      4.740      8.379
REMARK INTER + INTRA:          -8.909
REMARK INTER:                  -8.380
REMARK INTRA:                  -0.529
REMARK UNBOUND:                -0.486
REMARK  Name = 
REMARK  6 active torsions:
REMARK  status: ('A' for Active; 'I' for Inactive)
REMARK    1  A    between atoms: C_2  and  C_4
REMARK    2  A    between atoms: C_7  and  C_8
REMARK    3  A    between atoms: C_8  and  C_9
REMARK    4  A    between atoms: C_9  and  N_10
REMARK    5  A    between atoms: N_10  and  C_11
REMARK    6  A    between atoms: C_16  and  C_17
REMARK                            x       y       z     vdW  Elec       q    Type
REMARK                         _______ _______ _______ _____ _____    ______ ____
ROOT
ATOM      1  N   UNL     1      44.701   9.581  12.299  0.00  0.00    +0.000 N 
ATOM      2  H   UNL     1      45.165  10.396  12.694  0.00  0.00    +0.000 HD
ENDROOT
BRANCH   1   3
ATOM      3  C   UNL     1      45.485   8.423  12.440  0.00  0.00    +0.000 A 
ATOM      4  C   UNL     1      46.872   8.424  12.257  0.00  0.00    +0.000 A 
ATOM      5  C   UNL     1      47.609   7.262  12.442  0.00  0.00    +0.000 A 
ATOM      6  C   UNL     1      46.963   6.080  12.765  0.00  0.00    +0.000 A 
ATOM      7  F   UNL     1      47.751   5.021  12.988  0.00  0.00    +0.000 F 
ATOM      8  C   UNL     1      45.566   5.999  12.862  0.00  0.00    +0.000 A 
ATOM      9  C   UNL     1      44.848   7.200  12.695  0.00  0.00    +0.000 A 
BRANCH   8  10
ATOM     10  C   UNL     1      44.792   4.729  13.203  0.00  0.00    +0.000 C 
ATOM     11  C   UNL     1      45.204   3.460  12.446  0.00  0.00    +0.000 C 
ATOM     12  C   UNL     1      44.730   3.478  10.989  0.00  0.00    +0.000 C 
ATOM     13  N   UNL     1      43.288   3.694  10.858  0.00  0.00    +0.000 NA
ATOM     14  C   UNL     1      42.803   4.853  11.603  0.00  0.00    +0.000 C 
ATOM     15  C   UNL     1      43.263   4.878  13.060  0.00  0.00    +0.000 C 
ATOM     16  H   UNL     1      42.800   2.859  11.172  0.00  0.00    +0.000 HD
ENDBRANCH   8  10
ENDBRANCH   1   3
BRANCH   1  17
ATOM     17  C   UNL     1      44.154   9.801  10.956  0.00  0.00    +0.000 C 
BRANCH  17  18
ATOM     18  C   UNL     1      43.563  11.203  10.817  0.00  0.00    +0.000 C 
BRANCH  18  22
ATOM     19  C   UNL     1      39.406  11.229  11.978  0.00  0.00    +0.000 A 
ATOM     20  C   UNL     1      40.221  12.327  12.278  0.00  0.00    +0.000 A 
ATOM     21  C   UNL     1      41.569  12.319  11.906  0.00  0.00    +0.000 A 
ATOM     22  C   UNL     1      42.108  11.223  11.223  0.00  0.00    +0.000 A 
ATOM     23  C   UNL     1      41.294  10.115  10.948  0.00  0.00    +0.000 A 
ATOM     24  C   UNL     1      39.945  10.119  11.325  0.00  0.00    +0.000 A 
BRANCH  19  26
ATOM     25  N   UNL     1      37.558  12.139  13.274  0.00  0.00    +0.000 N 
ATOM     26  C   UNL     1      37.966  11.209  12.362  0.00  0.00    +0.000 C 
ATOM     27  O   UNL     1      37.174  10.420  11.860  0.00  0.00    +0.000 OA
ATOM     28  H   UNL     1      36.564  12.170  13.470  0.00  0.00    +0.000 HD
ATOM     29  H   UNL     1      38.107  12.956  13.508  0.00  0.00    +0.000 HD
ENDBRANCH  19  26
ENDBRANCH  18  22
ENDBRANCH  17  18
ENDBRANCH   1  17
TORSDOF 6
ENDMDL
