MODEL 1
REMARK VINA RESULT:    -8.300      0.000      0.000
REMARK INTER + INTRA:         -12.824
REMARK INTER:                 -12.182
REMARK INTRA:                  -0.641
REMARK UNBOUND:                -0.641
REMARK  Name = 
REMARK  10 active torsions:
REMARK  status: ('A' for Active; 'I' for Inactive)
REMARK    1  A    between atoms: C_1  and  O_2
REMARK    2  A    between atoms: O_2  and  C_3
REMARK    3  A    between atoms: C_8  and  C_9
REMARK    4  A    between atoms: N_11  and  C_12
REMARK    5  A    between atoms: C_12  and  C_13
REMARK    6  A    between atoms: C_12  and  C_14
REMARK    7  A    between atoms: C_17  and  N_18
REMARK    8  A    between atoms: N_18  and  C_19
REMARK    9  A    between atoms: C_19  and  C_20
REMARK   10  A    between atoms: C_20  and  C_21
REMARK                            x       y       z     vdW  Elec       q    Type
REMARK                         _______ _______ _______ _____ _____    ______ ____
ROOT
ATOM      1  C   UNL     1      46.672   7.882  12.984  0.00  0.00    +0.000 C 
ATOM      2  C   UNL     1      47.727   8.498  12.061  0.00  0.00    +0.000 C 
ENDROOT
BRANCH   1   3
ATOM      3  C   UNL     1      45.952   6.717  12.335  0.00  0.00    +0.000 A 
ATOM      4  C   UNL     1      45.154   5.877  13.122  0.00  0.00    +0.000 A 
ATOM      5  C   UNL     1      44.508   4.771  12.562  0.00  0.00    +0.000 A 
ATOM      6  C   UNL     1      44.607   4.488  11.196  0.00  0.00    +0.000 A 
ATOM      7  C   UNL     1      45.438   5.306  10.421  0.00  0.00    +0.000 A 
ATOM      8  C   UNL     1      46.084   6.419  10.972  0.00  0.00    +0.000 A 
BRANCH   6   9
ATOM      9  N   UNL     1      43.999   3.368  10.606  0.00  0.00    +0.000 N 
ATOM     10  H   UNL     1      44.067   2.549  11.204  0.00  0.00    +0.000 HD
BRANCH   9  11
ATOM     11  C   UNL     1      44.336   3.099   9.203  0.00  0.00    +0.000 C 
BRANCH  11  12
ATOM     12  C   UNL     1      45.419   2.021   9.100  0.00  0.00    +0.000 C 
BRANCH  12  13
ATOM     13  C   UNL     1      46.168   2.115   7.793  0.00  0.00    +0.000 A 
ATOM     14  C   UNL     1      46.089   3.276   7.010  0.00  0.00    +0.000 A 
ATOM     15  C   UNL     1      46.758   3.353   5.788  0.00  0.00    +0.000 A 
ATOM     16  C   UNL     1      47.508   2.269   5.336  0.00  0.00    +0.000 A 
ATOM     17  C   UNL     1      47.586   1.107   6.102  0.00  0.00    +0.000 A 
ATOM     18  C   UNL     1      46.917   1.029   7.324  0.00  0.00    +0.000 A 
ENDBRANCH  12  13
ENDBRANCH  11  12
ENDBRANCH   9  11
ENDBRANCH   6   9
ENDBRANCH   1   3
BRANCH   1  21
ATOM     19  C   UNL     1      48.287   6.580  14.313  0.00  0.00    +0.000 C 
ATOM     20  O   UNL     1      48.796   6.096  13.306  0.00  0.00    +0.000 OA
ATOM     21  N   UNL     1      47.246   7.473  14.256  0.00  0.00    +0.000 N 
ATOM     22  H   UNL     1      46.742   7.682  15.103  0.00  0.00    +0.000 HD
BRANCH  19  28
ATOM     23  C   UNL     1      48.955   4.340  18.759  0.00  0.00    +0.000 A 
ATOM     24  N   UNL     1      48.163   3.255  18.625  0.00  0.00    +0.000 NA
ATOM     25  C   UNL     1      47.486   3.086  17.471  0.00  0.00    +0.000 A 
ATOM     26  C   UNL     1      47.541   3.946  16.377  0.00  0.00    +0.000 A 
ATOM     27  C   UNL     1      48.382   5.068  16.490  0.00  0.00    +0.000 A 
ATOM     28  C   UNL     1      48.720   6.194  15.654  0.00  0.00    +0.000 A 
ATOM     29  C   UNL     1      49.586   6.983  16.400  0.00  0.00    +0.000 A 
ATOM     30  N   UNL     1      49.793   6.394  17.610  0.00  0.00    +0.000 N 
ATOM     31  C   UNL     1      49.066   5.232  17.698  0.00  0.00    +0.000 A 
ATOM     32  H   UNL     1      50.372   6.754  18.356  0.00  0.00    +0.000 HD
BRANCH  23  34
ATOM     33  C   UNL     1      48.794   4.604  21.075  0.00  0.00    +0.000 C 
ATOM     34  O   UNL     1      49.641   4.586  19.931  0.00  0.00    +0.000 OA
ENDBRANCH  23  34
ENDBRANCH  19  28
ENDBRANCH   1  21
TORSDOF 8
ENDMDL
MODEL 2
REMARK VINA RESULT:    -7.900      1.666      2.429
REMARK INTER + INTRA:         -12.235
REMARK INTER:                 -11.057
REMARK INTRA:                  -1.178
REMARK UNBOUND:                -0.641
REMARK  Name = 
REMARK  10 active torsions:
REMARK  status: ('A' for Active; 'I' for Inactive)
REMARK    1  A    between atoms: C_1  and  O_2
REMARK    2  A    between atoms: O_2  and  C_3
REMARK    3  A    between atoms: C_8  and  C_9
REMARK    4  A    between atoms: N_11  and  C_12
REMARK    5  A    between atoms: C_12  and  C_13
REMARK    6  A    between atoms: C_12  and  C_14
REMARK    7  A    between atoms: C_17  and  N_18
REMARK    8  A    between atoms: N_18  and  C_19
REMARK    9  A    between atoms: C_19  and  C_20
REMARK   10  A    between atoms: C_20  and  C_21
REMARK                            x       y       z     vdW  Elec       q    Type
REMARK                         _______ _______ _______ _____ _____    ______ ____
ROOT
ATOM      1  C   UNL     1      48.034   6.992  13.560  0.00  0.00    +0.000 C 
ATOM      2  C   UNL     1      49.325   7.058  12.740  0.00  0.00    +0.000 C 
ENDROOT
BRANCH   1   3
ATOM      3  C   UNL     1      46.934   6.240  12.839  0.00  0.00    +0.000 A 
ATOM      4  C   UNL     1      46.642   6.557  11.506  0.00  0.00    +0.000 A 
ATOM      5  C   UNL     1      45.609   5.909  10.825  0.00  0.00    +0.000 A 
ATOM      6  C   UNL     1      44.856   4.901  11.436  0.00  0.00    +0.000 A 
ATOM      7  C   UNL     1      45.123   4.615  12.781  0.00  0.00    +0.000 A 
ATOM      8  C   UNL     1      46.161   5.255  13.469  0.00  0.00    +0.000 A 
BRANCH   6   9
ATOM      9  N   UNL     1      43.789   4.252  10.793  0.00  0.00    +0.000 N 
ATOM     10  H   UNL     1      43.357   3.558  11.397  0.00  0.00    +0.000 HD
BRANCH   9  11
ATOM     11  C   UNL     1      44.038   3.769   9.430  0.00  0.00    +0.000 C 
BRANCH  11  12
ATOM     12  C   UNL     1      44.885   2.493   9.450  0.00  0.00    +0.000 C 
BRANCH  12  13
ATOM     13  C   UNL     1      45.771   2.399   8.232  0.00  0.00    +0.000 A 
ATOM     14  C   UNL     1      46.512   1.236   7.980  0.00  0.00    +0.000 A 
ATOM     15  C   UNL     1      47.354   1.159   6.870  0.00  0.00    +0.000 A 
ATOM     16  C   UNL     1      47.465   2.246   6.004  0.00  0.00    +0.000 A 
ATOM     17  C   UNL     1      46.739   3.409   6.250  0.00  0.00    +0.000 A 
ATOM     18  C   UNL     1      45.898   3.488   7.361  0.00  0.00    +0.000 A 
ENDBRANCH  12  13
ENDBRANCH  11  12
ENDBRANCH   9  11
ENDBRANCH   6   9
ENDBRANCH   1   3
BRANCH   1  21
ATOM     19  C   UNL     1      48.608   7.190  15.948  0.00  0.00    +0.000 C 
ATOM     20  O   UNL     1      48.723   8.410  15.867  0.00  0.00    +0.000 OA
ATOM     21  N   UNL     1      48.263   6.409  14.873  0.00  0.00    +0.000 N 
ATOM     22  H   UNL     1      48.376   5.411  14.945  0.00  0.00    +0.000 HD
BRANCH  19  28
ATOM     23  C   UNL     1      48.943   5.677  20.726  0.00  0.00    +0.000 A 
ATOM     24  N   UNL     1      48.197   6.615  21.349  0.00  0.00    +0.000 NA
ATOM     25  C   UNL     1      47.632   7.590  20.607  0.00  0.00    +0.000 A 
ATOM     26  C   UNL     1      47.744   7.711  19.224  0.00  0.00    +0.000 A 
ATOM     27  C   UNL     1      48.495   6.727  18.557  0.00  0.00    +0.000 A 
ATOM     28  C   UNL     1      48.884   6.473  17.191  0.00  0.00    +0.000 A 
ATOM     29  C   UNL     1      49.690   5.344  17.222  0.00  0.00    +0.000 A 
ATOM     30  N   UNL     1      49.792   4.905  18.508  0.00  0.00    +0.000 N 
ATOM     31  C   UNL     1      49.083   5.733  19.344  0.00  0.00    +0.000 A 
ATOM     32  H   UNL     1      50.325   4.106  18.824  0.00  0.00    +0.000 HD
BRANCH  23  34
ATOM     33  C   UNL     1      50.878   5.055  21.877  0.00  0.00    +0.000 C 
ATOM     34  O   UNL     1      49.578   4.680  21.437  0.00  0.00    +0.000 OA
ENDBRANCH  23  34
ENDBRANCH  19  28
ENDBRANCH   1  21
TORSDOF 8
ENDMDL
MODEL 3
REMARK VINA RESULT:    -7.894      1.191      1.266
REMARK INTER + INTRA:         -12.227
REMARK INTER:                 -11.200
REMARK INTRA:                  -1.027
REMARK UNBOUND:                -0.641
REMARK  Name = 
REMARK  10 active torsions:
REMARK  status: ('A' for Active; 'I' for Inactive)
REMARK    1  A    between atoms: C_1  and  O_2
REMARK    2  A    between atoms: O_2  and  C_3
REMARK    3  A    between atoms: C_8  and  C_9
REMARK    4  A    between atoms: N_11  and  C_12
REMARK    5  A    between atoms: C_12  and  C_13
REMARK    6  A    between atoms: C_12  and  C_14
REMARK    7  A    between atoms: C_17  and  N_18
REMARK    8  A    between atoms: N_18  and  C_19
REMARK    9  A    between atoms: C_19  and  C_20
REMARK   10  A    between atoms: C_20  and  C_21
REMARK                            x       y       z     vdW  Elec       q    Type
REMARK                         _______ _______ _______ _____ _____    ______ ____
ROOT
ATOM      1  C   UNL     1      47.915   7.216  13.349  0.00  0.00    +0.000 C 
ATOM      2  C   UNL     1      49.209   7.157  12.534  0.00  0.00    +0.000 C 
ENDROOT
BRANCH   1   3
ATOM      3  C   UNL     1      46.802   6.403  12.720  0.00  0.00    +0.000 A 
ATOM      4  C   UNL     1      46.386   5.215  13.334  0.00  0.00    +0.000 A 
ATOM      5  C   UNL     1      45.389   4.422  12.759  0.00  0.00    +0.000 A 
ATOM      6  C   UNL     1      44.751   4.804  11.574  0.00  0.00    +0.000 A 
ATOM      7  C   UNL     1      45.198   5.970  10.941  0.00  0.00    +0.000 A 
ATOM      8  C   UNL     1      46.192   6.773  11.514  0.00  0.00    +0.000 A 
BRANCH   6   9
ATOM      9  N   UNL     1      43.769   4.015  10.951  0.00  0.00    +0.000 N 
ATOM     10  H   UNL     1      43.480   3.243  11.545  0.00  0.00    +0.000 HD
BRANCH   9  11
ATOM     11  C   UNL     1      44.027   3.621   9.561  0.00  0.00    +0.000 C 
BRANCH  11  12
ATOM     12  C   UNL     1      44.893   2.359   9.504  0.00  0.00    +0.000 C 
BRANCH  12  13
ATOM     13  C   UNL     1      45.803   2.369   8.299  0.00  0.00    +0.000 A 
ATOM     14  C   UNL     1      45.904   3.512   7.494  0.00  0.00    +0.000 A 
ATOM     15  C   UNL     1      46.722   3.512   6.363  0.00  0.00    +0.000 A 
ATOM     16  C   UNL     1      47.442   2.368   6.026  0.00  0.00    +0.000 A 
ATOM     17  C   UNL     1      47.342   1.224   6.815  0.00  0.00    +0.000 A 
ATOM     18  C   UNL     1      46.523   1.222   7.945  0.00  0.00    +0.000 A 
ENDBRANCH  12  13
ENDBRANCH  11  12
ENDBRANCH   9  11
ENDBRANCH   6   9
ENDBRANCH   1   3
BRANCH   1  21
ATOM     19  C   UNL     1      48.739   7.621  15.636  0.00  0.00    +0.000 C 
ATOM     20  O   UNL     1      49.119   8.753  15.348  0.00  0.00    +0.000 OA
ATOM     21  N   UNL     1      48.129   6.795  14.724  0.00  0.00    +0.000 N 
ATOM     22  H   UNL     1      48.019   5.820  14.954  0.00  0.00    +0.000 HD
BRANCH  19  28
ATOM     23  C   UNL     1      48.999   4.651  19.678  0.00  0.00    +0.000 A 
ATOM     24  N   UNL     1      48.559   3.480  19.168  0.00  0.00    +0.000 NA
ATOM     25  C   UNL     1      48.209   3.431  17.867  0.00  0.00    +0.000 A 
ATOM     26  C   UNL     1      48.272   4.502  16.980  0.00  0.00    +0.000 A 
ATOM     27  C   UNL     1      48.754   5.723  17.487  0.00  0.00    +0.000 A 
ATOM     28  C   UNL     1      48.962   7.050  16.962  0.00  0.00    +0.000 A 
ATOM     29  C   UNL     1      49.417   7.819  18.024  0.00  0.00    +0.000 A 
ATOM     30  N   UNL     1      49.506   7.035  19.135  0.00  0.00    +0.000 N 
ATOM     31  C   UNL     1      49.100   5.757  18.841  0.00  0.00    +0.000 A 
ATOM     32  H   UNL     1      49.801   7.336  20.053  0.00  0.00    +0.000 HD
BRANCH  23  34
ATOM     33  C   UNL     1      48.211   5.052  21.840  0.00  0.00    +0.000 C 
ATOM     34  O   UNL     1      49.334   4.771  21.011  0.00  0.00    +0.000 OA
ENDBRANCH  23  34
ENDBRANCH  19  28
ENDBRANCH   1  21
TORSDOF 8
ENDMDL
MODEL 4
REMARK VINA RESULT:    -7.717      1.818      2.305
REMARK INTER + INTRA:         -11.967
REMARK INTER:                 -10.838
REMARK INTRA:                  -1.129
REMARK UNBOUND:                -0.641
REMARK  Name = 
REMARK  10 active torsions:
REMARK  status: ('A' for Active; 'I' for Inactive)
REMARK    1  A    between atoms: C_1  and  O_2
REMARK    2  A    between atoms: O_2  and  C_3
REMARK    3  A    between atoms: C_8  and  C_9
REMARK    4  A    between atoms: N_11  and  C_12
REMARK    5  A    between atoms: C_12  and  C_13
REMARK    6  A    between atoms: C_12  and  C_14
REMARK    7  A    between atoms: C_17  and  N_18
REMARK    8  A    between atoms: N_18  and  C_19
REMARK    9  A    between atoms: C_19  and  C_20
REMARK   10  A    between atoms: C_20  and  C_21
REMARK                            x       y       z     vdW  Elec       q    Type
REMARK                         _______ _______ _______ _____ _____    ______ ____
ROOT
ATOM      1  C   UNL     1      46.915   8.105  13.267  0.00  0.00    +0.000 C 
ATOM      2  C   UNL     1      47.396   9.141  12.249  0.00  0.00    +0.000 C 
ENDROOT
BRANCH   1   3
ATOM      3  C   UNL     1      45.991   7.076  12.646  0.00  0.00    +0.000 A 
ATOM      4  C   UNL     1      46.260   5.713  12.823  0.00  0.00    +0.000 A 
ATOM      5  C   UNL     1      45.450   4.740  12.232  0.00  0.00    +0.000 A 
ATOM      6  C   UNL     1      44.327   5.092  11.476  0.00  0.00    +0.000 A 
ATOM      7  C   UNL     1      44.084   6.455  11.268  0.00  0.00    +0.000 A 
ATOM      8  C   UNL     1      44.888   7.436  11.861  0.00  0.00    +0.000 A 
BRANCH   6   9
ATOM      9  N   UNL     1      43.511   4.142  10.840  0.00  0.00    +0.000 N 
ATOM     10  H   UNL     1      42.864   3.710  11.495  0.00  0.00    +0.000 HD
BRANCH   9  11
ATOM     11  C   UNL     1      44.183   3.179   9.960  0.00  0.00    +0.000 C 
BRANCH  11  12
ATOM     12  C   UNL     1      44.686   3.865   8.686  0.00  0.00    +0.000 C 
BRANCH  12  13
ATOM     13  C   UNL     1      45.674   2.997   7.945  0.00  0.00    +0.000 A 
ATOM     14  C   UNL     1      45.912   1.679   8.359  0.00  0.00    +0.000 A 
ATOM     15  C   UNL     1      46.846   0.885   7.692  0.00  0.00    +0.000 A 
ATOM     16  C   UNL     1      47.553   1.403   6.609  0.00  0.00    +0.000 A 
ATOM     17  C   UNL     1      47.329   2.715   6.195  0.00  0.00    +0.000 A 
ATOM     18  C   UNL     1      46.396   3.510   6.861  0.00  0.00    +0.000 A 
ENDBRANCH  12  13
ENDBRANCH  11  12
ENDBRANCH   9  11
ENDBRANCH   6   9
ENDBRANCH   1   3
BRANCH   1  21
ATOM     19  C   UNL     1      48.576   7.951  15.081  0.00  0.00    +0.000 C 
ATOM     20  O   UNL     1      48.147   8.967  15.622  0.00  0.00    +0.000 OA
ATOM     21  N   UNL     1      48.030   7.445  13.928  0.00  0.00    +0.000 N 
ATOM     22  H   UNL     1      48.537   6.734  13.425  0.00  0.00    +0.000 HD
BRANCH  19  28
ATOM     23  C   UNL     1      51.730   4.973  17.612  0.00  0.00    +0.000 A 
ATOM     24  N   UNL     1      50.868   4.279  18.386  0.00  0.00    +0.000 NA
ATOM     25  C   UNL     1      49.549   4.544  18.284  0.00  0.00    +0.000 A 
ATOM     26  C   UNL     1      48.985   5.482  17.423  0.00  0.00    +0.000 A 
ATOM     27  C   UNL     1      49.867   6.195  16.590  0.00  0.00    +0.000 A 
ATOM     28  C   UNL     1      49.739   7.236  15.601  0.00  0.00    +0.000 A 
ATOM     29  C   UNL     1      51.029   7.537  15.187  0.00  0.00    +0.000 A 
ATOM     30  N   UNL     1      51.908   6.736  15.852  0.00  0.00    +0.000 N 
ATOM     31  C   UNL     1      51.230   5.915  16.720  0.00  0.00    +0.000 A 
ATOM     32  H   UNL     1      52.914   6.746  15.754  0.00  0.00    +0.000 HD
BRANCH  23  34
ATOM     33  C   UNL     1      53.442   3.403  17.865  0.00  0.00    +0.000 C 
ATOM     34  O   UNL     1      53.092   4.773  17.702  0.00  0.00    +0.000 OA
ENDBRANCH  23  34
ENDBRANCH  19  28
ENDBRANCH   1  21
TORSDOF 8
ENDMDL
MODEL 5
REMARK VINA RESULT:    -7.575      2.767      3.549
REMARK INTER + INTRA:         -11.758
REMARK INTER:                 -10.651
REMARK INTRA:                  -1.108
REMARK UNBOUND:                -0.641
REMARK  Name = 
REMARK  10 active torsions:
REMARK  status: ('A' for Active; 'I' for Inactive)
REMARK    1  A    between atoms: C_1  and  O_2
REMARK    2  A    between atoms: O_2  and  C_3
REMARK    3  A    between atoms: C_8  and  C_9
REMARK    4  A    between atoms: N_11  and  C_12
REMARK    5  A    between atoms: C_12  and  C_13
REMARK    6  A    between atoms: C_12  and  C_14
REMARK    7  A    between atoms: C_17  and  N_18
REMARK    8  A    between atoms: N_18  and  C_19
REMARK    9  A    between atoms: C_19  and  C_20
REMARK   10  A    between atoms: C_20  and  C_21
REMARK                            x       y       z     vdW  Elec       q    Type
REMARK                         _______ _______ _______ _____ _____    ______ ____
ROOT
ATOM      1  C   UNL     1      47.892   4.503  15.415  0.00  0.00    +0.000 C 
ATOM      2  C   UNL     1      47.647   3.148  16.084  0.00  0.00    +0.000 C 
ENDROOT
BRANCH   1   3
ATOM      3  C   UNL     1      47.030   4.701  14.185  0.00  0.00    +0.000 A 
ATOM      4  C   UNL     1      46.422   3.590  13.584  0.00  0.00    +0.000 A 
ATOM      5  C   UNL     1      45.652   3.733  12.427  0.00  0.00    +0.000 A 
ATOM      6  C   UNL     1      45.433   4.989  11.852  0.00  0.00    +0.000 A 
ATOM      7  C   UNL     1      46.074   6.091  12.431  0.00  0.00    +0.000 A 
ATOM      8  C   UNL     1      46.843   5.957  13.594  0.00  0.00    +0.000 A 
BRANCH   6   9
ATOM      9  N   UNL     1      44.692   5.166  10.671  0.00  0.00    +0.000 N 
ATOM     10  H   UNL     1      43.913   5.803  10.813  0.00  0.00    +0.000 HD
BRANCH   9  11
ATOM     11  C   UNL     1      44.330   3.950   9.934  0.00  0.00    +0.000 C 
BRANCH  11  12
ATOM     12  C   UNL     1      44.600   4.120   8.436  0.00  0.00    +0.000 C 
BRANCH  12  13
ATOM     13  C   UNL     1      45.645   3.144   7.950  0.00  0.00    +0.000 A 
ATOM     14  C   UNL     1      46.581   3.530   6.979  0.00  0.00    +0.000 A 
ATOM     15  C   UNL     1      47.529   2.620   6.509  0.00  0.00    +0.000 A 
ATOM     16  C   UNL     1      47.546   1.317   7.001  0.00  0.00    +0.000 A 
ATOM     17  C   UNL     1      46.616   0.921   7.959  0.00  0.00    +0.000 A 
ATOM     18  C   UNL     1      45.666   1.830   8.430  0.00  0.00    +0.000 A 
ENDBRANCH  12  13
ENDBRANCH  11  12
ENDBRANCH   9  11
ENDBRANCH   6   9
ENDBRANCH   1   3
BRANCH   1  21
ATOM     19  C   UNL     1      48.749   6.388  16.750  0.00  0.00    +0.000 C 
ATOM     20  O   UNL     1      49.895   6.219  16.340  0.00  0.00    +0.000 OA
ATOM     21  N   UNL     1      47.698   5.603  16.346  0.00  0.00    +0.000 N 
ATOM     22  H   UNL     1      46.832   5.656  16.857  0.00  0.00    +0.000 HD
BRANCH  19  28
ATOM     23  C   UNL     1      47.420   8.915  20.883  0.00  0.00    +0.000 A 
ATOM     24  N   UNL     1      47.234   7.902  21.757  0.00  0.00    +0.000 NA
ATOM     25  C   UNL     1      47.431   6.637  21.334  0.00  0.00    +0.000 A 
ATOM     26  C   UNL     1      47.828   6.275  20.050  0.00  0.00    +0.000 A 
ATOM     27  C   UNL     1      48.052   7.318  19.133  0.00  0.00    +0.000 A 
ATOM     28  C   UNL     1      48.434   7.410  17.746  0.00  0.00    +0.000 A 
ATOM     29  C   UNL     1      48.419   8.762  17.429  0.00  0.00    +0.000 A 
ATOM     30  N   UNL     1      48.069   9.473  18.537  0.00  0.00    +0.000 N 
ATOM     31  C   UNL     1      47.830   8.621  19.587  0.00  0.00    +0.000 A 
ATOM     32  H   UNL     1      47.970  10.478  18.592  0.00  0.00    +0.000 HD
BRANCH  23  34
ATOM     33  C   UNL     1      45.842  10.628  21.061  0.00  0.00    +0.000 C 
ATOM     34  O   UNL     1      47.194  10.226  21.247  0.00  0.00    +0.000 OA
ENDBRANCH  23  34
ENDBRANCH  19  28
ENDBRANCH   1  21
TORSDOF 8
ENDMDL
MODEL 6
REMARK VINA RESULT:    -7.143      3.976      6.457
REMARK INTER + INTRA:         -11.125
REMARK INTER:                 -10.100
REMARK INTRA:                  -1.025
REMARK UNBOUND:                -0.641
REMARK  Name = 
REMARK  10 active torsions:
REMARK  status: ('A' for Active; 'I' for Inactive)
REMARK    1  A    between atoms: C_1  and  O_2
REMARK    2  A    between atoms: O_2  and  C_3
REMARK    3  A    between atoms: C_8  and  C_9
REMARK    4  A    between atoms: N_11  and  C_12
REMARK    5  A    between atoms: C_12  and  C_13
REMARK    6  A    between atoms: C_12  and  C_14
REMARK    7  A    between atoms: C_17  and  N_18
REMARK    8  A    between atoms: N_18  and  C_19
REMARK    9  A    between atoms: C_19  and  C_20
REMARK   10  A    between atoms: C_20  and  C_21
REMARK                            x       y       z     vdW  Elec       q    Type
REMARK                         _______ _______ _______ _____ _____    ______ ____
ROOT
ATOM      1  C   UNL     1      48.177   7.359  13.471  0.00  0.00    +0.000 C 
ATOM      2  C   UNL     1      47.597   8.480  14.337  0.00  0.00    +0.000 C 
ENDROOT
BRANCH   1   3
ATOM      3  C   UNL     1      47.096   6.491  12.858  0.00  0.00    +0.000 A 
ATOM      4  C   UNL     1      46.453   6.914  11.688  0.00  0.00    +0.000 A 
ATOM      5  C   UNL     1      45.427   6.155  11.119  0.00  0.00    +0.000 A 
ATOM      6  C   UNL     1      45.032   4.935  11.678  0.00  0.00    +0.000 A 
ATOM      7  C   UNL     1      45.649   4.535  12.869  0.00  0.00    +0.000 A 
ATOM      8  C   UNL     1      46.682   5.286  13.442  0.00  0.00    +0.000 A 
BRANCH   6   9
ATOM      9  N   UNL     1      43.983   4.163  11.152  0.00  0.00    +0.000 N 
ATOM     10  H   UNL     1      43.343   3.859  11.882  0.00  0.00    +0.000 HD
BRANCH   9  11
ATOM     11  C   UNL     1      44.355   3.095  10.217  0.00  0.00    +0.000 C 
BRANCH  11  12
ATOM     12  C   UNL     1      44.540   3.650   8.802  0.00  0.00    +0.000 C 
BRANCH  12  13
ATOM     13  C   UNL     1      45.589   2.877   8.039  0.00  0.00    +0.000 A 
ATOM     14  C   UNL     1      45.885   1.551   8.383  0.00  0.00    +0.000 A 
ATOM     15  C   UNL     1      46.875   0.846   7.697  0.00  0.00    +0.000 A 
ATOM     16  C   UNL     1      47.579   1.461   6.664  0.00  0.00    +0.000 A 
ATOM     17  C   UNL     1      47.298   2.782   6.320  0.00  0.00    +0.000 A 
ATOM     18  C   UNL     1      46.309   3.489   7.006  0.00  0.00    +0.000 A 
ENDBRANCH  12  13
ENDBRANCH  11  12
ENDBRANCH   9  11
ENDBRANCH   6   9
ENDBRANCH   1   3
BRANCH   1  21
ATOM     19  C   UNL     1      50.371   8.157  12.683  0.00  0.00    +0.000 C 
ATOM     20  O   UNL     1      50.887   7.963  13.780  0.00  0.00    +0.000 OA
ATOM     21  N   UNL     1      49.049   7.882  12.432  0.00  0.00    +0.000 N 
ATOM     22  H   UNL     1      48.634   8.241  11.587  0.00  0.00    +0.000 HD
BRANCH  19  28
ATOM     23  C   UNL     1      53.263   9.015   8.667  0.00  0.00    +0.000 A 
ATOM     24  N   UNL     1      53.579   7.754   8.300  0.00  0.00    +0.000 NA
ATOM     25  C   UNL     1      53.090   6.727   9.026  0.00  0.00    +0.000 A 
ATOM     26  C   UNL     1      52.263   6.855  10.139  0.00  0.00    +0.000 A 
ATOM     27  C   UNL     1      51.903   8.161  10.519  0.00  0.00    +0.000 A 
ATOM     28  C   UNL     1      51.118   8.749  11.576  0.00  0.00    +0.000 A 
ATOM     29  C   UNL     1      51.213  10.124  11.408  0.00  0.00    +0.000 A 
ATOM     30  N   UNL     1      51.987  10.387  10.318  0.00  0.00    +0.000 N 
ATOM     31  C   UNL     1      52.429   9.211   9.762  0.00  0.00    +0.000 A 
ATOM     32  H   UNL     1      52.231  11.303   9.969  0.00  0.00    +0.000 HD
BRANCH  23  34
ATOM     33  C   UNL     1      55.159  10.297   8.199  0.00  0.00    +0.000 C 
ATOM     34  O   UNL     1      53.765  10.105   7.987  0.00  0.00    +0.000 OA
ENDBRANCH  23  34
ENDBRANCH  19  28
ENDBRANCH   1  21
TORSDOF 8
ENDMDL
MODEL 7
REMARK VINA RESULT:    -7.073      3.733      6.596
REMARK INTER + INTRA:         -11.022
REMARK INTER:                  -9.782
REMARK INTRA:                  -1.241
REMARK UNBOUND:                -0.641
REMARK  Name = 
REMARK  10 active torsions:
REMARK  status: ('A' for Active; 'I' for Inactive)
REMARK    1  A    between atoms: C_1  and  O_2
REMARK    2  A    between atoms: O_2  and  C_3
REMARK    3  A    between atoms: C_8  and  C_9
REMARK    4  A    between atoms: N_11  and  C_12
REMARK    5  A    between atoms: C_12  and  C_13
REMARK    6  A    between atoms: C_12  and  C_14
REMARK    7  A    between atoms: C_17  and  N_18
REMARK    8  A    between atoms: N_18  and  C_19
REMARK    9  A    between atoms: C_19  and  C_20
REMARK   10  A    between atoms: C_20  and  C_21
REMARK                            x       y       z     vdW  Elec       q    Type
REMARK                         _______ _______ _______ _____ _____    ______ ____
ROOT
ATOM      1  C   UNL     1      45.833   5.224  13.169  0.00  0.00    +0.000 C 
ATOM      2  C   UNL     1      44.505   4.469  13.072  0.00  0.00    +0.000 C 
ENDROOT
BRANCH   1   3
ATOM      3  C   UNL     1      45.710   6.663  12.711  0.00  0.00    +0.000 A 
ATOM      4  C   UNL     1      46.567   7.632  13.248  0.00  0.00    +0.000 A 
ATOM      5  C   UNL     1      46.454   8.974  12.875  0.00  0.00    +0.000 A 
ATOM      6  C   UNL     1      45.509   9.388  11.931  0.00  0.00    +0.000 A 
ATOM      7  C   UNL     1      44.628   8.424  11.426  0.00  0.00    +0.000 A 
ATOM      8  C   UNL     1      44.738   7.076  11.790  0.00  0.00    +0.000 A 
BRANCH   6   9
ATOM      9  N   UNL     1      45.345  10.733  11.558  0.00  0.00    +0.000 N 
ATOM     10  H   UNL     1      45.386  11.350  12.364  0.00  0.00    +0.000 HD
BRANCH   9  11
ATOM     11  C   UNL     1      44.234  11.032  10.646  0.00  0.00    +0.000 C 
BRANCH  11  12
ATOM     12  C   UNL     1      43.360  12.160  11.204  0.00  0.00    +0.000 C 
BRANCH  12  13
ATOM     13  C   UNL     1      41.947  11.691  11.452  0.00  0.00    +0.000 A 
ATOM     14  C   UNL     1      41.079  12.444  12.255  0.00  0.00    +0.000 A 
ATOM     15  C   UNL     1      39.782  11.997  12.508  0.00  0.00    +0.000 A 
ATOM     16  C   UNL     1      39.342  10.792  11.964  0.00  0.00    +0.000 A 
ATOM     17  C   UNL     1      40.200  10.032  11.171  0.00  0.00    +0.000 A 
ATOM     18  C   UNL     1      41.498  10.477  10.918  0.00  0.00    +0.000 A 
ENDBRANCH  12  13
ENDBRANCH  11  12
ENDBRANCH   9  11
ENDBRANCH   6   9
ENDBRANCH   1   3
BRANCH   1  21
ATOM     19  C   UNL     1      47.124   4.096  14.939  0.00  0.00    +0.000 C 
ATOM     20  O   UNL     1      47.377   3.140  14.211  0.00  0.00    +0.000 OA
ATOM     21  N   UNL     1      46.382   5.170  14.515  0.00  0.00    +0.000 N 
ATOM     22  H   UNL     1      46.041   5.823  15.202  0.00  0.00    +0.000 HD
BRANCH  19  28
ATOM     23  C   UNL     1      49.228   5.215  19.361  0.00  0.00    +0.000 A 
ATOM     24  N   UNL     1      49.862   6.369  19.062  0.00  0.00    +0.000 NA
ATOM     25  C   UNL     1      49.771   6.852  17.805  0.00  0.00    +0.000 A 
ATOM     26  C   UNL     1      49.056   6.257  16.770  0.00  0.00    +0.000 A 
ATOM     27  C   UNL     1      48.368   5.067  17.070  0.00  0.00    +0.000 A 
ATOM     28  C   UNL     1      47.553   4.132  16.336  0.00  0.00    +0.000 A 
ATOM     29  C   UNL     1      47.223   3.122  17.229  0.00  0.00    +0.000 A 
ATOM     30  N   UNL     1      47.774   3.404  18.443  0.00  0.00    +0.000 N 
ATOM     31  C   UNL     1      48.485   4.577  18.374  0.00  0.00    +0.000 A 
ATOM     32  H   UNL     1      47.703   2.835  19.275  0.00  0.00    +0.000 HD
BRANCH  23  34
ATOM     33  C   UNL     1      48.308   5.118  21.506  0.00  0.00    +0.000 C 
ATOM     34  O   UNL     1      49.319   4.653  20.617  0.00  0.00    +0.000 OA
ENDBRANCH  23  34
ENDBRANCH  19  28
ENDBRANCH   1  21
TORSDOF 8
ENDMDL
MODEL 8
REMARK VINA RESULT:    -7.019      3.078      9.190
REMARK INTER + INTRA:         -10.943
REMARK INTER:                  -8.659
REMARK INTRA:                  -2.284
REMARK UNBOUND:                -0.641
REMARK  Name = 
REMARK  10 active torsions:
REMARK  status: ('A' for Active; 'I' for Inactive)
REMARK    1  A    between atoms: C_1  and  O_2
REMARK    2  A    between atoms: O_2  and  C_3
REMARK    3  A    between atoms: C_8  and  C_9
REMARK    4  A    between atoms: N_11  and  C_12
REMARK    5  A    between atoms: C_12  and  C_13
REMARK    6  A    between atoms: C_12  and  C_14
REMARK    7  A    between atoms: C_17  and  N_18
REMARK    8  A    between atoms: N_18  and  C_19
REMARK    9  A    between atoms: C_19  and  C_20
REMARK   10  A    between atoms: C_20  and  C_21
REMARK                            x       y       z     vdW  Elec       q    Type
REMARK                         _______ _______ _______ _____ _____    ______ ____
ROOT
ATOM      1  C   UNL     1      49.033   8.861  15.449  0.00  0.00    +0.000 C 
ATOM      2  C   UNL     1      48.959  10.248  14.806  0.00  0.00    +0.000 C 
ENDROOT
BRANCH   1   3
ATOM      3  C   UNL     1      48.900   8.920  16.957  0.00  0.00    +0.000 A 
ATOM      4  C   UNL     1      49.928   8.409  17.759  0.00  0.00    +0.000 A 
ATOM      5  C   UNL     1      49.820   8.413  19.153  0.00  0.00    +0.000 A 
ATOM      6  C   UNL     1      48.701   8.958  19.792  0.00  0.00    +0.000 A 
ATOM      7  C   UNL     1      47.658   9.431  18.987  0.00  0.00    +0.000 A 
ATOM      8  C   UNL     1      47.761   9.436  17.590  0.00  0.00    +0.000 A 
BRANCH   6   9
ATOM      9  N   UNL     1      48.544   8.949  21.188  0.00  0.00    +0.000 N 
ATOM     10  H   UNL     1      49.129   9.651  21.633  0.00  0.00    +0.000 HD
BRANCH   9  11
ATOM     11  C   UNL     1      48.596   7.639  21.848  0.00  0.00    +0.000 C 
BRANCH  11  12
ATOM     12  C   UNL     1      47.387   6.783  21.456  0.00  0.00    +0.000 C 
BRANCH  12  13
ATOM     13  C   UNL     1      47.705   5.881  20.288  0.00  0.00    +0.000 A 
ATOM     14  C   UNL     1      48.851   5.074  20.305  0.00  0.00    +0.000 A 
ATOM     15  C   UNL     1      49.161   4.262  19.213  0.00  0.00    +0.000 A 
ATOM     16  C   UNL     1      48.330   4.252  18.094  0.00  0.00    +0.000 A 
ATOM     17  C   UNL     1      47.192   5.057  18.065  0.00  0.00    +0.000 A 
ATOM     18  C   UNL     1      46.882   5.871  19.155  0.00  0.00    +0.000 A 
ENDBRANCH  12  13
ENDBRANCH  11  12
ENDBRANCH   9  11
ENDBRANCH   6   9
ENDBRANCH   1   3
BRANCH   1  21
ATOM     19  C   UNL     1      48.290   6.617  14.754  0.00  0.00    +0.000 C 
ATOM     20  O   UNL     1      49.351   6.107  15.104  0.00  0.00    +0.000 OA
ATOM     21  N   UNL     1      48.038   7.959  14.892  0.00  0.00    +0.000 N 
ATOM     22  H   UNL     1      47.243   8.353  14.413  0.00  0.00    +0.000 HD
BRANCH  19  28
ATOM     23  C   UNL     1      44.362   5.025  12.058  0.00  0.00    +0.000 A 
ATOM     24  N   UNL     1      44.022   6.156  11.403  0.00  0.00    +0.000 NA
ATOM     25  C   UNL     1      44.743   7.274  11.624  0.00  0.00    +0.000 A 
ATOM     26  C   UNL     1      45.837   7.365  12.479  0.00  0.00    +0.000 A 
ATOM     27  C   UNL     1      46.222   6.191  13.151  0.00  0.00    +0.000 A 
ATOM     28  C   UNL     1      47.237   5.835  14.111  0.00  0.00    +0.000 A 
ATOM     29  C   UNL     1      47.031   4.496  14.414  0.00  0.00    +0.000 A 
ATOM     30  N   UNL     1      45.974   4.034  13.688  0.00  0.00    +0.000 N 
ATOM     31  C   UNL     1      45.456   5.045  12.918  0.00  0.00    +0.000 A 
ATOM     32  H   UNL     1      45.596   3.097  13.717  0.00  0.00    +0.000 HD
BRANCH  23  34
ATOM     33  C   UNL     1      43.938   3.181  10.689  0.00  0.00    +0.000 C 
ATOM     34  O   UNL     1      43.638   3.862  11.903  0.00  0.00    +0.000 OA
ENDBRANCH  23  34
ENDBRANCH  19  28
ENDBRANCH   1  21
TORSDOF 8
ENDMDL
MODEL 9
REMARK VINA RESULT:    -6.928      3.454      8.602
REMARK INTER + INTRA:         -10.810
REMARK INTER:                  -8.427
REMARK INTRA:                  -2.383
REMARK UNBOUND:                -0.641
REMARK  Name = 
REMARK  10 active torsions:
REMARK  status: ('A' for Active; 'I' for Inactive)
REMARK    1  A    between atoms: C_1  and  O_2
REMARK    2  A    between atoms: O_2  and  C_3
REMARK    3  A    between atoms: C_8  and  C_9
REMARK    4  A    between atoms: N_11  and  C_12
REMARK    5  A    between atoms: C_12  and  C_13
REMARK    6  A    between atoms: C_12  and  C_14
REMARK    7  A    between atoms: C_17  and  N_18
REMARK    8  A    between atoms: N_18  and  C_19
REMARK    9  A    between atoms: C_19  and  C_20
REMARK   10  A    between atoms: C_20  and  C_21
REMARK                            x       y       z     vdW  Elec       q    Type
REMARK                         _______ _______ _______ _____ _____    ______ ____
ROOT
ATOM      1  C   UNL     1      48.955   9.283  15.730  0.00  0.00    +0.000 C 
ATOM      2  C   UNL     1      48.346  10.348  16.645  0.00  0.00    +0.000 C 
ENDROOT
BRANCH   1   3
ATOM      3  C   UNL     1      49.953   8.404  16.457  0.00  0.00    +0.000 A 
ATOM      4  C   UNL     1      50.458   7.264  15.819  0.00  0.00    +0.000 A 
ATOM      5  C   UNL     1      51.351   6.412  16.476  0.00  0.00    +0.000 A 
ATOM      6  C   UNL     1      51.794   6.686  17.773  0.00  0.00    +0.000 A 
ATOM      7  C   UNL     1      51.256   7.804  18.422  0.00  0.00    +0.000 A 
ATOM      8  C   UNL     1      50.366   8.666  17.770  0.00  0.00    +0.000 A 
BRANCH   6   9
ATOM      9  N   UNL     1      52.664   5.835  18.476  0.00  0.00    +0.000 N 
ATOM     10  H   UNL     1      53.604   5.864  18.091  0.00  0.00    +0.000 HD
BRANCH   9  11
ATOM     11  C   UNL     1      52.181   4.475  18.741  0.00  0.00    +0.000 C 
BRANCH  11  12
ATOM     12  C   UNL     1      50.902   4.505  19.583  0.00  0.00    +0.000 C 
BRANCH  12  13
ATOM     13  C   UNL     1      49.678   4.248  18.737  0.00  0.00    +0.000 A 
ATOM     14  C   UNL     1      49.662   3.194  17.813  0.00  0.00    +0.000 A 
ATOM     15  C   UNL     1      48.542   2.974  17.010  0.00  0.00    +0.000 A 
ATOM     16  C   UNL     1      47.431   3.808  17.121  0.00  0.00    +0.000 A 
ATOM     17  C   UNL     1      47.441   4.864  18.030  0.00  0.00    +0.000 A 
ATOM     18  C   UNL     1      48.560   5.086  18.833  0.00  0.00    +0.000 A 
ENDBRANCH  12  13
ENDBRANCH  11  12
ENDBRANCH   9  11
ENDBRANCH   6   9
ENDBRANCH   1   3
BRANCH   1  21
ATOM     19  C   UNL     1      47.658   8.567  13.761  0.00  0.00    +0.000 C 
ATOM     20  O   UNL     1      48.271   9.332  13.021  0.00  0.00    +0.000 OA
ATOM     21  N   UNL     1      47.929   8.465  15.103  0.00  0.00    +0.000 N 
ATOM     22  H   UNL     1      47.273   7.977  15.692  0.00  0.00    +0.000 HD
BRANCH  19  28
ATOM     23  C   UNL     1      44.609   4.813  12.406  0.00  0.00    +0.000 A 
ATOM     24  N   UNL     1      45.312   3.741  12.831  0.00  0.00    +0.000 NA
ATOM     25  C   UNL     1      46.502   3.945  13.432  0.00  0.00    +0.000 A 
ATOM     26  C   UNL     1      47.078   5.190  13.667  0.00  0.00    +0.000 A 
ATOM     27  C   UNL     1      46.347   6.319  13.255  0.00  0.00    +0.000 A 
ATOM     28  C   UNL     1      46.553   7.746  13.271  0.00  0.00    +0.000 A 
ATOM     29  C   UNL     1      45.447   8.304  12.645  0.00  0.00    +0.000 A 
ATOM     30  N   UNL     1      44.596   7.307  12.274  0.00  0.00    +0.000 N 
ATOM     31  C   UNL     1      45.122   6.087  12.623  0.00  0.00    +0.000 A 
ATOM     32  H   UNL     1      43.717   7.425  11.790  0.00  0.00    +0.000 HD
BRANCH  23  34
ATOM     33  C   UNL     1      43.560   4.412  10.357  0.00  0.00    +0.000 C 
ATOM     34  O   UNL     1      43.405   4.665  11.749  0.00  0.00    +0.000 OA
ENDBRANCH  23  34
ENDBRANCH  19  28
ENDBRANCH   1  21
TORSDOF 8
ENDMDL
