MODEL 1
REMARK VINA RESULT:    -7.761      0.000      0.000
REMARK INTER + INTRA:         -10.965
REMARK INTER:                 -10.029
REMARK INTRA:                  -0.935
REMARK UNBOUND:                -0.935
REMARK  Name = 
REMARK  5 active torsions:
REMARK  status: ('A' for Active; 'I' for Inactive)
REMARK    1  A    between atoms: C_2  and  C_3
REMARK    2  A    between atoms: C_7  and  N_8
REMARK    3  A    between atoms: N_8  and  C_9
REMARK    4  A    between atoms: C_9  and  C_10
REMARK    5  A    between atoms: C_14  and  C_15
REMARK                            x       y       z     vdW  Elec       q    Type
REMARK                         _______ _______ _______ _____ _____    ______ ____
ROOT
ATOM      1  C   UNL     1      43.797   5.008  11.637  0.00  0.00    +0.000 C 
ATOM      2  C   UNL     1      42.501   5.369  12.368  0.00  0.00    +0.000 C 
ATOM      3  C   UNL     1      42.959   6.204  11.225  0.00  0.00    +0.000 C 
ENDROOT
BRANCH   1   4
ATOM      4  C   UNL     1      45.090   5.283  12.405  0.00  0.00    +0.000 A 
ATOM      5  C   UNL     1      45.692   4.316  13.218  0.00  0.00    +0.000 A 
ATOM      6  C   UNL     1      46.968   4.519  13.744  0.00  0.00    +0.000 A 
ATOM      7  C   UNL     1      47.675   5.685  13.438  0.00  0.00    +0.000 A 
ATOM      8  C   UNL     1      47.105   6.692  12.645  0.00  0.00    +0.000 A 
ATOM      9  C   UNL     1      45.785   6.493  12.212  0.00  0.00    +0.000 A 
BRANCH   8  10
ATOM     10  C   UNL     1      47.886   7.838  12.127  0.00  0.00    +0.000 A 
ATOM     11  C   UNL     1      47.331   9.130  12.118  0.00  0.00    +0.000 A 
ATOM     12  C   UNL     1      48.092  10.252  11.775  0.00  0.00    +0.000 A 
ATOM     13  C   UNL     1      49.432  10.105  11.437  0.00  0.00    +0.000 A 
ATOM     14  C   UNL     1      50.005   8.837  11.423  0.00  0.00    +0.000 A 
ATOM     15  C   UNL     1      49.238   7.715  11.755  0.00  0.00    +0.000 A 
ENDBRANCH   8  10
ENDBRANCH   1   4
BRANCH   1  16
ATOM     16  N   UNL     1      43.794   3.723  10.901  0.00  0.00    +0.000 N 
ATOM     17  H   UNL     1      43.825   2.924  11.534  0.00  0.00    +0.000 HD
BRANCH  16  22
ATOM     18  C   UNL     1      45.922   2.093   8.289  0.00  0.00    +0.000 A 
ATOM     19  C   UNL     1      46.284   3.231   7.585  0.00  0.00    +0.000 A 
ATOM     20  N   UNL     1      45.847   4.468   7.898  0.00  0.00    +0.000 NA
ATOM     21  C   UNL     1      45.023   4.564   8.972  0.00  0.00    +0.000 A 
ATOM     22  C   UNL     1      44.575   3.487   9.747  0.00  0.00    +0.000 A 
ATOM     23  C   UNL     1      45.055   2.231   9.376  0.00  0.00    +0.000 A 
BRANCH  18  25
ATOM     24  N   UNL     1      46.885  -0.215   7.612  0.00  0.00    +0.000 NA
ATOM     25  C   UNL     1      46.453   0.819   7.921  0.00  0.00    +0.000 C 
ENDBRANCH  18  25
ENDBRANCH  16  22
ENDBRANCH   1  16
TORSDOF 5
ENDMDL
MODEL 2
REMARK VINA RESULT:    -7.498      2.839      6.758
REMARK INTER + INTRA:         -10.625
REMARK INTER:                  -9.579
REMARK INTRA:                  -1.046
REMARK UNBOUND:                -0.935
REMARK  Name = 
REMARK  5 active torsions:
REMARK  status: ('A' for Active; 'I' for Inactive)
REMARK    1  A    between atoms: C_2  and  C_3
REMARK    2  A    between atoms: C_7  and  N_8
REMARK    3  A    between atoms: N_8  and  C_9
REMARK    4  A    between atoms: C_9  and  C_10
REMARK    5  A    between atoms: C_14  and  C_15
REMARK                            x       y       z     vdW  Elec       q    Type
REMARK                         _______ _______ _______ _____ _____    ______ ____
ROOT
ATOM      1  C   UNL     1      46.224   7.277  12.364  0.00  0.00    +0.000 C 
ATOM      2  C   UNL     1      46.149   8.677  11.749  0.00  0.00    +0.000 C 
ATOM      3  C   UNL     1      45.658   8.455  13.136  0.00  0.00    +0.000 C 
ENDROOT
BRANCH   1   4
ATOM      4  C   UNL     1      45.232   6.255  11.809  0.00  0.00    +0.000 A 
ATOM      5  C   UNL     1      43.852   6.372  12.010  0.00  0.00    +0.000 A 
ATOM      6  C   UNL     1      42.959   5.545  11.328  0.00  0.00    +0.000 A 
ATOM      7  C   UNL     1      43.434   4.604  10.410  0.00  0.00    +0.000 A 
ATOM      8  C   UNL     1      44.810   4.435  10.192  0.00  0.00    +0.000 A 
ATOM      9  C   UNL     1      45.680   5.220  10.964  0.00  0.00    +0.000 A 
BRANCH   8  10
ATOM     10  C   UNL     1      45.346   3.607   9.088  0.00  0.00    +0.000 A 
ATOM     11  C   UNL     1      45.959   4.216   7.978  0.00  0.00    +0.000 A 
ATOM     12  C   UNL     1      46.605   3.461   6.994  0.00  0.00    +0.000 A 
ATOM     13  C   UNL     1      46.656   2.076   7.102  0.00  0.00    +0.000 A 
ATOM     14  C   UNL     1      46.045   1.445   8.182  0.00  0.00    +0.000 A 
ATOM     15  C   UNL     1      45.390   2.202   9.159  0.00  0.00    +0.000 A 
ENDBRANCH   8  10
ENDBRANCH   1   4
BRANCH   1  16
ATOM     16  N   UNL     1      47.584   6.737  12.591  0.00  0.00    +0.000 N 
ATOM     17  H   UNL     1      47.865   6.095  11.851  0.00  0.00    +0.000 HD
BRANCH  16  22
ATOM     18  C   UNL     1      47.853   4.979  15.885  0.00  0.00    +0.000 A 
ATOM     19  C   UNL     1      48.923   5.689  16.406  0.00  0.00    +0.000 A 
ATOM     20  N   UNL     1      49.563   6.666  15.732  0.00  0.00    +0.000 NA
ATOM     21  C   UNL     1      49.099   6.948  14.489  0.00  0.00    +0.000 A 
ATOM     22  C   UNL     1      48.040   6.289  13.852  0.00  0.00    +0.000 A 
ATOM     23  C   UNL     1      47.417   5.285  14.593  0.00  0.00    +0.000 A 
BRANCH  18  25
ATOM     24  N   UNL     1      46.672   3.160  17.304  0.00  0.00    +0.000 NA
ATOM     25  C   UNL     1      47.200   3.980  16.670  0.00  0.00    +0.000 C 
ENDBRANCH  18  25
ENDBRANCH  16  22
ENDBRANCH   1  16
TORSDOF 5
ENDMDL
MODEL 3
REMARK VINA RESULT:    -7.360      1.714      3.731
REMARK INTER + INTRA:         -10.446
REMARK INTER:                  -9.783
REMARK INTRA:                  -0.663
REMARK UNBOUND:                -0.935
REMARK  Name = 
REMARK  5 active torsions:
REMARK  status: ('A' for Active; 'I' for Inactive)
REMARK    1  A    between atoms: C_2  and  C_3
REMARK    2  A    between atoms: C_7  and  N_8
REMARK    3  A    between atoms: N_8  and  C_9
REMARK    4  A    between atoms: C_9  and  C_10
REMARK    5  A    between atoms: C_14  and  C_15
REMARK                            x       y       z     vdW  Elec       q    Type
REMARK                         _______ _______ _______ _____ _____    ______ ____
ROOT
ATOM      1  C   UNL     1      43.956   4.829  11.852  0.00  0.00    +0.000 C 
ATOM      2  C   UNL     1      42.862   5.057  12.899  0.00  0.00    +0.000 C 
ATOM      3  C   UNL     1      42.929   5.936  11.701  0.00  0.00    +0.000 C 
ENDROOT
BRANCH   1   4
ATOM      4  C   UNL     1      45.370   5.228  12.272  0.00  0.00    +0.000 A 
ATOM      5  C   UNL     1      46.052   6.292  11.670  0.00  0.00    +0.000 A 
ATOM      6  C   UNL     1      47.252   6.763  12.203  0.00  0.00    +0.000 A 
ATOM      7  C   UNL     1      47.775   6.193  13.368  0.00  0.00    +0.000 A 
ATOM      8  C   UNL     1      47.138   5.111  13.993  0.00  0.00    +0.000 A 
ATOM      9  C   UNL     1      45.984   4.605  13.376  0.00  0.00    +0.000 A 
BRANCH   8  10
ATOM     10  C   UNL     1      47.536   4.616  15.331  0.00  0.00    +0.000 A 
ATOM     11  C   UNL     1      47.746   5.520  16.388  0.00  0.00    +0.000 A 
ATOM     12  C   UNL     1      47.978   5.077  17.694  0.00  0.00    +0.000 A 
ATOM     13  C   UNL     1      47.997   3.716  17.973  0.00  0.00    +0.000 A 
ATOM     14  C   UNL     1      47.808   2.797  16.944  0.00  0.00    +0.000 A 
ATOM     15  C   UNL     1      47.589   3.243  15.637  0.00  0.00    +0.000 A 
ENDBRANCH   8  10
ENDBRANCH   1   4
BRANCH   1  16
ATOM     16  N   UNL     1      43.886   3.551  11.106  0.00  0.00    +0.000 N 
ATOM     17  H   UNL     1      43.981   2.746  11.723  0.00  0.00    +0.000 HD
BRANCH  16  22
ATOM     18  C   UNL     1      45.843   1.991   8.323  0.00  0.00    +0.000 A 
ATOM     19  C   UNL     1      46.033   3.124   7.548  0.00  0.00    +0.000 A 
ATOM     20  N   UNL     1      45.533   4.335   7.871  0.00  0.00    +0.000 NA
ATOM     21  C   UNL     1      44.825   4.409   9.026  0.00  0.00    +0.000 A 
ATOM     22  C   UNL     1      44.553   3.332   9.879  0.00  0.00    +0.000 A 
ATOM     23  C   UNL     1      45.091   2.103   9.495  0.00  0.00    +0.000 A 
BRANCH  18  25
ATOM     24  N   UNL     1      46.915  -0.260   7.614  0.00  0.00    +0.000 NA
ATOM     25  C   UNL     1      46.432   0.748   7.937  0.00  0.00    +0.000 C 
ENDBRANCH  18  25
ENDBRANCH  16  22
ENDBRANCH   1  16
TORSDOF 5
ENDMDL
MODEL 4
REMARK VINA RESULT:    -6.815      3.182      7.087
REMARK INTER + INTRA:          -9.743
REMARK INTER:                  -8.823
REMARK INTRA:                  -0.919
REMARK UNBOUND:                -0.935
REMARK  Name = 
REMARK  5 active torsions:
REMARK  status: ('A' for Active; 'I' for Inactive)
REMARK    1  A    between atoms: C_2  and  C_3
REMARK    2  A    between atoms: C_7  and  N_8
REMARK    3  A    between atoms: N_8  and  C_9
REMARK    4  A    between atoms: C_9  and  C_10
REMARK    5  A    between atoms: C_14  and  C_15
REMARK                            x       y       z     vdW  Elec       q    Type
REMARK                         _______ _______ _______ _____ _____    ______ ____
ROOT
ATOM      1  C   UNL     1      46.345   7.240  12.375  0.00  0.00    +0.000 C 
ATOM      2  C   UNL     1      47.511   6.688  13.201  0.00  0.00    +0.000 C 
ATOM      3  C   UNL     1      47.763   7.213  11.832  0.00  0.00    +0.000 C 
ENDROOT
BRANCH   1   4
ATOM      4  C   UNL     1      45.363   6.200  11.837  0.00  0.00    +0.000 A 
ATOM      5  C   UNL     1      43.989   6.274  12.090  0.00  0.00    +0.000 A 
ATOM      6  C   UNL     1      43.094   5.434  11.425  0.00  0.00    +0.000 A 
ATOM      7  C   UNL     1      43.561   4.524  10.473  0.00  0.00    +0.000 A 
ATOM      8  C   UNL     1      44.932   4.398  10.202  0.00  0.00    +0.000 A 
ATOM      9  C   UNL     1      45.808   5.194  10.956  0.00  0.00    +0.000 A 
BRANCH   8  10
ATOM     10  C   UNL     1      45.450   3.607   9.063  0.00  0.00    +0.000 A 
ATOM     11  C   UNL     1      46.023   4.251   7.952  0.00  0.00    +0.000 A 
ATOM     12  C   UNL     1      46.652   3.531   6.932  0.00  0.00    +0.000 A 
ATOM     13  C   UNL     1      46.728   2.145   7.005  0.00  0.00    +0.000 A 
ATOM     14  C   UNL     1      46.157   1.479   8.085  0.00  0.00    +0.000 A 
ATOM     15  C   UNL     1      45.517   2.201   9.098  0.00  0.00    +0.000 A 
ENDBRANCH   8  10
ENDBRANCH   1   4
BRANCH   1  16
ATOM     16  N   UNL     1      45.700   8.466  12.896  0.00  0.00    +0.000 N 
ATOM     17  H   UNL     1      44.898   8.251  13.487  0.00  0.00    +0.000 HD
BRANCH  16  22
ATOM     18  C   UNL     1      44.135  10.931  10.555  0.00  0.00    +0.000 A 
ATOM     19  C   UNL     1      45.216  11.786  10.409  0.00  0.00    +0.000 A 
ATOM     20  N   UNL     1      46.389  11.615  11.051  0.00  0.00    +0.000 NA
ATOM     21  C   UNL     1      46.481  10.532  11.863  0.00  0.00    +0.000 A 
ATOM     22  C   UNL     1      45.454   9.611  12.104  0.00  0.00    +0.000 A 
ATOM     23  C   UNL     1      44.262   9.838  11.416  0.00  0.00    +0.000 A 
BRANCH  18  25
ATOM     24  N   UNL     1      41.955  11.348   9.215  0.00  0.00    +0.000 NA
ATOM     25  C   UNL     1      42.933  11.156   9.814  0.00  0.00    +0.000 C 
ENDBRANCH  18  25
ENDBRANCH  16  22
ENDBRANCH   1  16
TORSDOF 5
ENDMDL
MODEL 5
REMARK VINA RESULT:    -6.707      1.304      2.228
REMARK INTER + INTRA:          -9.603
REMARK INTER:                  -9.322
REMARK INTRA:                  -0.281
REMARK UNBOUND:                -0.935
REMARK  Name = 
REMARK  5 active torsions:
REMARK  status: ('A' for Active; 'I' for Inactive)
REMARK    1  A    between atoms: C_2  and  C_3
REMARK    2  A    between atoms: C_7  and  N_8
REMARK    3  A    between atoms: N_8  and  C_9
REMARK    4  A    between atoms: C_9  and  C_10
REMARK    5  A    between atoms: C_14  and  C_15
REMARK                            x       y       z     vdW  Elec       q    Type
REMARK                         _______ _______ _______ _____ _____    ______ ____
ROOT
ATOM      1  C   UNL     1      44.388   4.577  11.621  0.00  0.00    +0.000 C 
ATOM      2  C   UNL     1      45.149   3.588  12.510  0.00  0.00    +0.000 C 
ATOM      3  C   UNL     1      43.822   4.101  12.946  0.00  0.00    +0.000 C 
ENDROOT
BRANCH   1   4
ATOM      4  C   UNL     1      44.959   5.993  11.564  0.00  0.00    +0.000 A 
ATOM      5  C   UNL     1      44.149   7.114  11.348  0.00  0.00    +0.000 A 
ATOM      6  C   UNL     1      44.660   8.404  11.501  0.00  0.00    +0.000 A 
ATOM      7  C   UNL     1      45.986   8.591  11.902  0.00  0.00    +0.000 A 
ATOM      8  C   UNL     1      46.842   7.498  12.108  0.00  0.00    +0.000 A 
ATOM      9  C   UNL     1      46.319   6.221  11.854  0.00  0.00    +0.000 A 
BRANCH   8  10
ATOM     10  C   UNL     1      48.178   7.639  12.730  0.00  0.00    +0.000 A 
ATOM     11  C   UNL     1      49.098   8.578  12.231  0.00  0.00    +0.000 A 
ATOM     12  C   UNL     1      50.306   8.838  12.884  0.00  0.00    +0.000 A 
ATOM     13  C   UNL     1      50.619   8.164  14.059  0.00  0.00    +0.000 A 
ATOM     14  C   UNL     1      49.735   7.218  14.569  0.00  0.00    +0.000 A 
ATOM     15  C   UNL     1      48.532   6.952  13.906  0.00  0.00    +0.000 A 
ENDBRANCH   8  10
ENDBRANCH   1   4
BRANCH   1  16
ATOM     16  N   UNL     1      43.931   4.057  10.311  0.00  0.00    +0.000 N 
ATOM     17  H   UNL     1      43.154   3.406  10.412  0.00  0.00    +0.000 HD
BRANCH  16  22
ATOM     18  C   UNL     1      46.125   1.974   8.107  0.00  0.00    +0.000 A 
ATOM     19  C   UNL     1      46.742   3.000   7.408  0.00  0.00    +0.000 A 
ATOM     20  N   UNL     1      46.454   4.305   7.598  0.00  0.00    +0.000 NA
ATOM     21  C   UNL     1      45.517   4.587   8.538  0.00  0.00    +0.000 A 
ATOM     22  C   UNL     1      44.816   3.638   9.292  0.00  0.00    +0.000 A 
ATOM     23  C   UNL     1      45.151   2.305   9.053  0.00  0.00    +0.000 A 
BRANCH  18  25
ATOM     24  N   UNL     1      46.815  -0.487   7.683  0.00  0.00    +0.000 NA
ATOM     25  C   UNL     1      46.506   0.617   7.879  0.00  0.00    +0.000 C 
ENDBRANCH  18  25
ENDBRANCH  16  22
ENDBRANCH   1  16
TORSDOF 5
ENDMDL
MODEL 6
REMARK VINA RESULT:    -6.439      3.342      7.242
REMARK INTER + INTRA:          -9.256
REMARK INTER:                  -8.126
REMARK INTRA:                  -1.130
REMARK UNBOUND:                -0.935
REMARK  Name = 
REMARK  5 active torsions:
REMARK  status: ('A' for Active; 'I' for Inactive)
REMARK    1  A    between atoms: C_2  and  C_3
REMARK    2  A    between atoms: C_7  and  N_8
REMARK    3  A    between atoms: N_8  and  C_9
REMARK    4  A    between atoms: C_9  and  C_10
REMARK    5  A    between atoms: C_14  and  C_15
REMARK                            x       y       z     vdW  Elec       q    Type
REMARK                         _______ _______ _______ _____ _____    ______ ____
ROOT
ATOM      1  C   UNL     1      48.853   8.225  12.683  0.00  0.00    +0.000 C 
ATOM      2  C   UNL     1      49.603   8.805  11.480  0.00  0.00    +0.000 C 
ATOM      3  C   UNL     1      49.288   9.678  12.643  0.00  0.00    +0.000 C 
ENDROOT
BRANCH   1   4
ATOM      4  C   UNL     1      47.371   7.925  12.457  0.00  0.00    +0.000 A 
ATOM      5  C   UNL     1      46.380   8.897  12.635  0.00  0.00    +0.000 A 
ATOM      6  C   UNL     1      45.066   8.658  12.230  0.00  0.00    +0.000 A 
ATOM      7  C   UNL     1      44.729   7.450  11.615  0.00  0.00    +0.000 A 
ATOM      8  C   UNL     1      45.684   6.437  11.436  0.00  0.00    +0.000 A 
ATOM      9  C   UNL     1      46.972   6.677  11.939  0.00  0.00    +0.000 A 
BRANCH   8  10
ATOM     10  C   UNL     1      45.427   5.236  10.609  0.00  0.00    +0.000 A 
ATOM     11  C   UNL     1      44.698   4.154  11.135  0.00  0.00    +0.000 A 
ATOM     12  C   UNL     1      44.313   3.074  10.336  0.00  0.00    +0.000 A 
ATOM     13  C   UNL     1      44.646   3.054   8.986  0.00  0.00    +0.000 A 
ATOM     14  C   UNL     1      45.380   4.104   8.441  0.00  0.00    +0.000 A 
ATOM     15  C   UNL     1      45.774   5.178   9.246  0.00  0.00    +0.000 A 
ENDBRANCH   8  10
ENDBRANCH   1   4
BRANCH   1  16
ATOM     16  N   UNL     1      49.568   7.186  13.458  0.00  0.00    +0.000 N 
ATOM     17  H   UNL     1      49.715   6.338  12.911  0.00  0.00    +0.000 HD
BRANCH  16  22
ATOM     18  C   UNL     1      48.172   5.571  16.532  0.00  0.00    +0.000 A 
ATOM     19  C   UNL     1      48.554   6.531  17.457  0.00  0.00    +0.000 A 
ATOM     20  N   UNL     1      49.259   7.634  17.132  0.00  0.00    +0.000 NA
ATOM     21  C   UNL     1      49.579   7.783  15.821  0.00  0.00    +0.000 A 
ATOM     22  C   UNL     1      49.264   6.874  14.803  0.00  0.00    +0.000 A 
ATOM     23  C   UNL     1      48.538   5.750  15.196  0.00  0.00    +0.000 A 
BRANCH  18  25
ATOM     24  N   UNL     1      46.755   3.533  17.277  0.00  0.00    +0.000 NA
ATOM     25  C   UNL     1      47.395   4.444  16.944  0.00  0.00    +0.000 C 
ENDBRANCH  18  25
ENDBRANCH  16  22
ENDBRANCH   1  16
TORSDOF 5
ENDMDL
MODEL 7
REMARK VINA RESULT:    -6.389      3.374      7.372
REMARK INTER + INTRA:          -9.191
REMARK INTER:                  -8.223
REMARK INTRA:                  -0.968
REMARK UNBOUND:                -0.935
REMARK  Name = 
REMARK  5 active torsions:
REMARK  status: ('A' for Active; 'I' for Inactive)
REMARK    1  A    between atoms: C_2  and  C_3
REMARK    2  A    between atoms: C_7  and  N_8
REMARK    3  A    between atoms: N_8  and  C_9
REMARK    4  A    between atoms: C_9  and  C_10
REMARK    5  A    between atoms: C_14  and  C_15
REMARK                            x       y       z     vdW  Elec       q    Type
REMARK                         _______ _______ _______ _____ _____    ______ ____
ROOT
ATOM      1  C   UNL     1      47.181   7.002  13.099  0.00  0.00    +0.000 C 
ATOM      2  C   UNL     1      47.918   8.115  12.347  0.00  0.00    +0.000 C 
ATOM      3  C   UNL     1      47.148   8.442  13.577  0.00  0.00    +0.000 C 
ENDROOT
BRANCH   1   4
ATOM      4  C   UNL     1      45.928   6.456  12.414  0.00  0.00    +0.000 A 
ATOM      5  C   UNL     1      44.688   7.097  12.511  0.00  0.00    +0.000 A 
ATOM      6  C   UNL     1      43.612   6.696  11.718  0.00  0.00    +0.000 A 
ATOM      7  C   UNL     1      43.771   5.661  10.792  0.00  0.00    +0.000 A 
ATOM      8  C   UNL     1      44.989   4.975  10.674  0.00  0.00    +0.000 A 
ATOM      9  C   UNL     1      46.019   5.345  11.553  0.00  0.00    +0.000 A 
BRANCH   8  10
ATOM     10  C   UNL     1      45.265   4.024   9.573  0.00  0.00    +0.000 A 
ATOM     11  C   UNL     1      45.844   4.476   8.373  0.00  0.00    +0.000 A 
ATOM     12  C   UNL     1      46.251   3.585   7.376  0.00  0.00    +0.000 A 
ATOM     13  C   UNL     1      46.094   2.216   7.561  0.00  0.00    +0.000 A 
ATOM     14  C   UNL     1      45.512   1.740   8.732  0.00  0.00    +0.000 A 
ATOM     15  C   UNL     1      45.094   2.635   9.723  0.00  0.00    +0.000 A 
ENDBRANCH   8  10
ENDBRANCH   1   4
BRANCH   1  16
ATOM     16  N   UNL     1      48.031   5.961  13.719  0.00  0.00    +0.000 N 
ATOM     17  H   UNL     1      48.206   5.185  13.082  0.00  0.00    +0.000 HD
BRANCH  16  22
ATOM     18  C   UNL     1      48.348   5.482  17.418  0.00  0.00    +0.000 A 
ATOM     19  C   UNL     1      47.579   4.334  17.540  0.00  0.00    +0.000 A 
ATOM     20  N   UNL     1      46.953   3.748  16.499  0.00  0.00    +0.000 NA
ATOM     21  C   UNL     1      47.117   4.333  15.286  0.00  0.00    +0.000 A 
ATOM     22  C   UNL     1      47.852   5.500  15.044  0.00  0.00    +0.000 A 
ATOM     23  C   UNL     1      48.476   6.066  16.155  0.00  0.00    +0.000 A 
BRANCH  18  25
ATOM     24  N   UNL     1      49.544   6.473  19.492  0.00  0.00    +0.000 NA
ATOM     25  C   UNL     1      49.012   6.028  18.559  0.00  0.00    +0.000 C 
ENDBRANCH  18  25
ENDBRANCH  16  22
ENDBRANCH   1  16
TORSDOF 5
ENDMDL
MODEL 8
REMARK VINA RESULT:    -6.243      3.092      5.676
REMARK INTER + INTRA:          -9.003
REMARK INTER:                  -8.161
REMARK INTRA:                  -0.843
REMARK UNBOUND:                -0.935
REMARK  Name = 
REMARK  5 active torsions:
REMARK  status: ('A' for Active; 'I' for Inactive)
REMARK    1  A    between atoms: C_2  and  C_3
REMARK    2  A    between atoms: C_7  and  N_8
REMARK    3  A    between atoms: N_8  and  C_9
REMARK    4  A    between atoms: C_9  and  C_10
REMARK    5  A    between atoms: C_14  and  C_15
REMARK                            x       y       z     vdW  Elec       q    Type
REMARK                         _______ _______ _______ _____ _____    ______ ____
ROOT
ATOM      1  C   UNL     1      47.499   7.981  12.971  0.00  0.00    +0.000 C 
ATOM      2  C   UNL     1      47.803   9.229  12.137  0.00  0.00    +0.000 C 
ATOM      3  C   UNL     1      48.446   7.935  11.785  0.00  0.00    +0.000 C 
ENDROOT
BRANCH   1   4
ATOM      4  C   UNL     1      48.115   7.951  14.369  0.00  0.00    +0.000 A 
ATOM      5  C   UNL     1      48.088   9.063  15.218  0.00  0.00    +0.000 A 
ATOM      6  C   UNL     1      48.473   8.951  16.555  0.00  0.00    +0.000 A 
ATOM      7  C   UNL     1      48.867   7.713  17.070  0.00  0.00    +0.000 A 
ATOM      8  C   UNL     1      48.932   6.575  16.251  0.00  0.00    +0.000 A 
ATOM      9  C   UNL     1      48.626   6.747  14.893  0.00  0.00    +0.000 A 
BRANCH   8  10
ATOM     10  C   UNL     1      49.137   5.213  16.794  0.00  0.00    +0.000 A 
ATOM     11  C   UNL     1      48.152   4.224  16.623  0.00  0.00    +0.000 A 
ATOM     12  C   UNL     1      48.377   2.895  16.993  0.00  0.00    +0.000 A 
ATOM     13  C   UNL     1      49.601   2.523  17.538  0.00  0.00    +0.000 A 
ATOM     14  C   UNL     1      50.590   3.482  17.733  0.00  0.00    +0.000 A 
ATOM     15  C   UNL     1      50.357   4.814  17.374  0.00  0.00    +0.000 A 
ENDBRANCH   8  10
ENDBRANCH   1   4
BRANCH   1  16
ATOM     16  N   UNL     1      46.105   7.484  12.915  0.00  0.00    +0.000 N 
ATOM     17  H   UNL     1      45.577   7.742  13.748  0.00  0.00    +0.000 HD
BRANCH  16  22
ATOM     18  C   UNL     1      45.061   4.574  10.805  0.00  0.00    +0.000 A 
ATOM     19  C   UNL     1      44.873   3.647  11.819  0.00  0.00    +0.000 A 
ATOM     20  N   UNL     1      45.099   3.915  13.121  0.00  0.00    +0.000 NA
ATOM     21  C   UNL     1      45.519   5.171  13.415  0.00  0.00    +0.000 A 
ATOM     22  C   UNL     1      45.762   6.184  12.479  0.00  0.00    +0.000 A 
ATOM     23  C   UNL     1      45.514   5.851  11.147  0.00  0.00    +0.000 A 
BRANCH  18  25
ATOM     24  N   UNL     1      44.525   3.940   8.350  0.00  0.00    +0.000 NA
ATOM     25  C   UNL     1      44.767   4.230   9.450  0.00  0.00    +0.000 C 
ENDBRANCH  18  25
ENDBRANCH  16  22
ENDBRANCH   1  16
TORSDOF 5
ENDMDL
MODEL 9
REMARK VINA RESULT:    -6.208      2.447      4.879
REMARK INTER + INTRA:          -8.957
REMARK INTER:                  -8.169
REMARK INTRA:                  -0.788
REMARK UNBOUND:                -0.935
REMARK  Name = 
REMARK  5 active torsions:
REMARK  status: ('A' for Active; 'I' for Inactive)
REMARK    1  A    between atoms: C_2  and  C_3
REMARK    2  A    between atoms: C_7  and  N_8
REMARK    3  A    between atoms: N_8  and  C_9
REMARK    4  A    between atoms: C_9  and  C_10
REMARK    5  A    between atoms: C_14  and  C_15
REMARK                            x       y       z     vdW  Elec       q    Type
REMARK                         _______ _______ _______ _____ _____    ______ ____
ROOT
ATOM      1  C   UNL     1      45.706   7.504  12.685  0.00  0.00    +0.000 C 
ATOM      2  C   UNL     1      45.143   8.910  12.913  0.00  0.00    +0.000 C 
ATOM      3  C   UNL     1      45.648   8.527  11.567  0.00  0.00    +0.000 C 
ENDROOT
BRANCH   1   4
ATOM      4  C   UNL     1      47.069   7.224  13.318  0.00  0.00    +0.000 A 
ATOM      5  C   UNL     1      48.174   8.054  13.100  0.00  0.00    +0.000 A 
ATOM      6  C   UNL     1      49.344   7.895  13.844  0.00  0.00    +0.000 A 
ATOM      7  C   UNL     1      49.415   6.917  14.840  0.00  0.00    +0.000 A 
ATOM      8  C   UNL     1      48.341   6.048  15.079  0.00  0.00    +0.000 A 
ATOM      9  C   UNL     1      47.217   6.177  14.250  0.00  0.00    +0.000 A 
BRANCH   8  10
ATOM     10  C   UNL     1      48.291   5.145  16.252  0.00  0.00    +0.000 A 
ATOM     11  C   UNL     1      47.245   4.216  16.389  0.00  0.00    +0.000 A 
ATOM     12  C   UNL     1      47.249   3.254  17.403  0.00  0.00    +0.000 A 
ATOM     13  C   UNL     1      48.308   3.196  18.303  0.00  0.00    +0.000 A 
ATOM     14  C   UNL     1      49.350   4.112  18.201  0.00  0.00    +0.000 A 
ATOM     15  C   UNL     1      49.337   5.082  17.192  0.00  0.00    +0.000 A 
ENDBRANCH   8  10
ENDBRANCH   1   4
BRANCH   1  16
ATOM     16  N   UNL     1      44.741   6.387  12.813  0.00  0.00    +0.000 N 
ATOM     17  H   UNL     1      44.731   6.001  13.757  0.00  0.00    +0.000 HD
BRANCH  16  22
ATOM     18  C   UNL     1      45.045   4.352   9.687  0.00  0.00    +0.000 A 
ATOM     19  C   UNL     1      44.049   3.424   9.952  0.00  0.00    +0.000 A 
ATOM     20  N   UNL     1      43.327   3.417  11.091  0.00  0.00    +0.000 NA
ATOM     21  C   UNL     1      43.611   4.389  11.994  0.00  0.00    +0.000 A 
ATOM     22  C   UNL     1      44.603   5.366  11.846  0.00  0.00    +0.000 A 
ATOM     23  C   UNL     1      45.322   5.325  10.651  0.00  0.00    +0.000 A 
BRANCH  18  25
ATOM     24  N   UNL     1      46.311   4.303   7.426  0.00  0.00    +0.000 NA
ATOM     25  C   UNL     1      45.746   4.321   8.442  0.00  0.00    +0.000 C 
ENDBRANCH  18  25
ENDBRANCH  16  22
ENDBRANCH   1  16
TORSDOF 5
ENDMDL
