MODEL 1
REMARK VINA RESULT:    -8.122      0.000      0.000
REMARK INTER + INTRA:         -11.930
REMARK INTER:                 -10.971
REMARK INTRA:                  -0.959
REMARK UNBOUND:                -0.959
REMARK  Name = 
REMARK  6 active torsions:
REMARK  status: ('A' for Active; 'I' for Inactive)
REMARK    1  A    between atoms: C_2  and  C_25
REMARK    2  A    between atoms: N_3  and  C_4
REMARK    3  A    between atoms: C_4  and  C_5
REMARK    4  A    between atoms: C_8  and  C_9
REMARK    5  A    between atoms: C_9  and  N_10
REMARK    6  A    between atoms: C_11  and  C_13
REMARK                            x       y       z     vdW  Elec       q    Type
REMARK                         _______ _______ _______ _____ _____    ______ ____
ROOT
ATOM      1  C   UNL     1      45.359   4.425  12.557  0.00  0.00    +0.000 A 
ATOM      2  C   UNL     1      45.117   5.782  12.298  0.00  0.00    +0.000 A 
ATOM      3  C   UNL     1      45.965   6.771  12.811  0.00  0.00    +0.000 A 
ATOM      4  C   UNL     1      47.085   6.422  13.578  0.00  0.00    +0.000 A 
ATOM      5  C   UNL     1      47.317   5.066  13.849  0.00  0.00    +0.000 A 
ATOM      6  C   UNL     1      46.472   4.078  13.333  0.00  0.00    +0.000 A 
ENDROOT
BRANCH   1   7
ATOM      7  C   UNL     1      44.465   3.360  11.975  0.00  0.00    +0.000 C 
BRANCH   7  10
ATOM      8  O   UNL     1      44.049   4.306   9.367  0.00  0.00    +0.000 OA
ATOM      9  C   UNL     1      44.794   3.350   9.544  0.00  0.00    +0.000 C 
ATOM     10  N   UNL     1      45.043   2.793  10.778  0.00  0.00    +0.000 N 
ATOM     11  H   UNL     1      45.823   2.160  10.893  0.00  0.00    +0.000 HD
BRANCH   9  12
ATOM     12  C   UNL     1      45.537   2.751   8.401  0.00  0.00    +0.000 A 
ATOM     13  C   UNL     1      45.768   3.531   7.260  0.00  0.00    +0.000 A 
ATOM     14  C   UNL     1      46.504   3.009   6.192  0.00  0.00    +0.000 A 
ATOM     15  C   UNL     1      46.993   1.706   6.260  0.00  0.00    +0.000 A 
ATOM     16 CL   UNL     1      47.923   1.071   4.959  0.00  0.00    +0.000 Cl
ATOM     17  C   UNL     1      46.737   0.911   7.376  0.00  0.00    +0.000 A 
ATOM     18  C   UNL     1      46.004   1.430   8.447  0.00  0.00    +0.000 A 
ENDBRANCH   9  12
ENDBRANCH   7  10
ENDBRANCH   1   7
BRANCH   4  19
ATOM     19  C   UNL     1      48.011   7.477  14.129  0.00  0.00    +0.000 C 
BRANCH  19  20
ATOM     20  N   UNL     1      48.084   7.420  15.567  0.00  0.00    +0.000 N 
ATOM     21  C   UNL     1      49.202   6.946  16.207  0.00  0.00    +0.000 C 
ATOM     22  O   UNL     1      50.204   6.592  15.592  0.00  0.00    +0.000 OA
ATOM     23  H   UNL     1      47.204   7.464  16.073  0.00  0.00    +0.000 HD
BRANCH  21  24
ATOM     24  C   UNL     1      49.163   6.945  17.676  0.00  0.00    +0.000 A 
ATOM     25  C   UNL     1      49.371   8.128  18.374  0.00  0.00    +0.000 A 
ATOM     26  S   UNL     1      49.236   7.955  20.066  0.00  0.00    +0.000 S 
ATOM     27  C   UNL     1      48.952   6.283  19.929  0.00  0.00    +0.000 A 
ATOM     28  N   UNL     1      48.779   5.507  21.033  0.00  0.00    +0.000 NA
ATOM     29  C   UNL     1      48.602   4.254  20.782  0.00  0.00    +0.000 A 
ATOM     30  N   UNL     1      48.577   3.706  19.527  0.00  0.00    +0.000 N 
ATOM     31  C   UNL     1      48.719   4.453  18.382  0.00  0.00    +0.000 A 
ATOM     32  O   UNL     1      48.649   3.936  17.272  0.00  0.00    +0.000 OA
ATOM     33  C   UNL     1      48.936   5.868  18.609  0.00  0.00    +0.000 A 
ATOM     34  H   UNL     1      48.420   2.714  19.401  0.00  0.00    +0.000 HD
ENDBRANCH  21  24
ENDBRANCH  19  20
ENDBRANCH   4  19
TORSDOF 6
ENDMDL
MODEL 2
REMARK VINA RESULT:    -7.877      1.421      1.860
REMARK INTER + INTRA:         -11.598
REMARK INTER:                 -10.616
REMARK INTRA:                  -0.983
REMARK UNBOUND:                -0.959
REMARK  Name = 
REMARK  6 active torsions:
REMARK  status: ('A' for Active; 'I' for Inactive)
REMARK    1  A    between atoms: C_2  and  C_25
REMARK    2  A    between atoms: N_3  and  C_4
REMARK    3  A    between atoms: C_4  and  C_5
REMARK    4  A    between atoms: C_8  and  C_9
REMARK    5  A    between atoms: C_9  and  N_10
REMARK    6  A    between atoms: C_11  and  C_13
REMARK                            x       y       z     vdW  Elec       q    Type
REMARK                         _______ _______ _______ _____ _____    ______ ____
ROOT
ATOM      1  C   UNL     1      45.123   6.571  11.574  0.00  0.00    +0.000 A 
ATOM      2  C   UNL     1      44.902   7.932  11.835  0.00  0.00    +0.000 A 
ATOM      3  C   UNL     1      45.757   8.644  12.686  0.00  0.00    +0.000 A 
ATOM      4  C   UNL     1      46.860   8.016  13.279  0.00  0.00    +0.000 A 
ATOM      5  C   UNL     1      47.070   6.652  13.029  0.00  0.00    +0.000 A 
ATOM      6  C   UNL     1      46.219   5.941  12.176  0.00  0.00    +0.000 A 
ENDROOT
BRANCH   1   7
ATOM      7  C   UNL     1      44.223   5.813  10.632  0.00  0.00    +0.000 C 
BRANCH   7  10
ATOM      8  O   UNL     1      43.995   3.048  10.215  0.00  0.00    +0.000 OA
ATOM      9  C   UNL     1      44.788   3.691   9.538  0.00  0.00    +0.000 C 
ATOM     10  N   UNL     1      44.995   5.044   9.683  0.00  0.00    +0.000 N 
ATOM     11  H   UNL     1      45.488   5.554   8.962  0.00  0.00    +0.000 HD
BRANCH   9  12
ATOM     12  C   UNL     1      45.559   3.031   8.449  0.00  0.00    +0.000 A 
ATOM     13  C   UNL     1      45.906   1.681   8.587  0.00  0.00    +0.000 A 
ATOM     14  C   UNL     1      46.588   1.023   7.558  0.00  0.00    +0.000 A 
ATOM     15  C   UNL     1      46.935   1.721   6.403  0.00  0.00    +0.000 A 
ATOM     16 CL   UNL     1      47.750   0.908   5.124  0.00  0.00    +0.000 Cl
ATOM     17  C   UNL     1      46.625   3.073   6.272  0.00  0.00    +0.000 A 
ATOM     18  C   UNL     1      45.941   3.733   7.297  0.00  0.00    +0.000 A 
ENDBRANCH   9  12
ENDBRANCH   7  10
ENDBRANCH   1   7
BRANCH   4  19
ATOM     19  C   UNL     1      47.792   8.774  14.189  0.00  0.00    +0.000 C 
BRANCH  19  20
ATOM     20  N   UNL     1      48.092   8.026  15.384  0.00  0.00    +0.000 N 
ATOM     21  C   UNL     1      49.343   7.507  15.605  0.00  0.00    +0.000 C 
ATOM     22  O   UNL     1      50.273   7.691  14.825  0.00  0.00    +0.000 OA
ATOM     23  H   UNL     1      47.302   7.655  15.902  0.00  0.00    +0.000 HD
BRANCH  21  24
ATOM     24  C   UNL     1      49.531   6.771  16.863  0.00  0.00    +0.000 A 
ATOM     25  C   UNL     1      50.337   7.303  17.862  0.00  0.00    +0.000 A 
ATOM     26  S   UNL     1      50.400   6.345  19.272  0.00  0.00    +0.000 S 
ATOM     27  C   UNL     1      49.399   5.157  18.576  0.00  0.00    +0.000 A 
ATOM     28  N   UNL     1      49.075   4.024  19.258  0.00  0.00    +0.000 NA
ATOM     29  C   UNL     1      48.335   3.199  18.598  0.00  0.00    +0.000 A 
ATOM     30  N   UNL     1      47.883   3.404  17.321  0.00  0.00    +0.000 N 
ATOM     31  C   UNL     1      48.160   4.544  16.605  0.00  0.00    +0.000 A 
ATOM     32  O   UNL     1      47.705   4.714  15.479  0.00  0.00    +0.000 OA
ATOM     33  C   UNL     1      49.004   5.499  17.296  0.00  0.00    +0.000 A 
ATOM     34  H   UNL     1      47.294   2.718  16.867  0.00  0.00    +0.000 HD
ENDBRANCH  21  24
ENDBRANCH  19  20
ENDBRANCH   4  19
TORSDOF 6
ENDMDL
MODEL 3
REMARK VINA RESULT:    -7.742      1.499      2.107
REMARK INTER + INTRA:         -11.417
REMARK INTER:                 -10.596
REMARK INTRA:                  -0.821
REMARK UNBOUND:                -0.959
REMARK  Name = 
REMARK  6 active torsions:
REMARK  status: ('A' for Active; 'I' for Inactive)
REMARK    1  A    between atoms: C_2  and  C_25
REMARK    2  A    between atoms: N_3  and  C_4
REMARK    3  A    between atoms: C_4  and  C_5
REMARK    4  A    between atoms: C_8  and  C_9
REMARK    5  A    between atoms: C_9  and  N_10
REMARK    6  A    between atoms: C_11  and  C_13
REMARK                            x       y       z     vdW  Elec       q    Type
REMARK                         _______ _______ _______ _____ _____    ______ ____
ROOT
ATOM      1  C   UNL     1      45.428   6.605  11.924  0.00  0.00    +0.000 A 
ATOM      2  C   UNL     1      46.693   6.176  12.353  0.00  0.00    +0.000 A 
ATOM      3  C   UNL     1      47.535   7.037  13.069  0.00  0.00    +0.000 A 
ATOM      4  C   UNL     1      47.121   8.337  13.388  0.00  0.00    +0.000 A 
ATOM      5  C   UNL     1      45.863   8.769  12.945  0.00  0.00    +0.000 A 
ATOM      6  C   UNL     1      45.021   7.908  12.233  0.00  0.00    +0.000 A 
ENDROOT
BRANCH   1   7
ATOM      7  C   UNL     1      44.510   5.667  11.183  0.00  0.00    +0.000 C 
BRANCH   7  10
ATOM      8  O   UNL     1      43.715   3.189  10.135  0.00  0.00    +0.000 OA
ATOM      9  C   UNL     1      44.743   3.712   9.721  0.00  0.00    +0.000 C 
ATOM     10  N   UNL     1      45.233   4.910  10.187  0.00  0.00    +0.000 N 
ATOM     11  H   UNL     1      45.950   5.395   9.665  0.00  0.00    +0.000 HD
BRANCH   9  12
ATOM     12  C   UNL     1      45.514   3.084   8.613  0.00  0.00    +0.000 A 
ATOM     13  C   UNL     1      45.818   1.718   8.688  0.00  0.00    +0.000 A 
ATOM     14  C   UNL     1      46.501   1.092   7.640  0.00  0.00    +0.000 A 
ATOM     15  C   UNL     1      46.891   1.836   6.528  0.00  0.00    +0.000 A 
ATOM     16 CL   UNL     1      47.707   1.064   5.225  0.00  0.00    +0.000 Cl
ATOM     17  C   UNL     1      46.625   3.203   6.462  0.00  0.00    +0.000 A 
ATOM     18  C   UNL     1      45.941   3.831   7.506  0.00  0.00    +0.000 A 
ENDBRANCH   9  12
ENDBRANCH   7  10
ENDBRANCH   1   7
BRANCH   4  19
ATOM     19  C   UNL     1      48.014   9.270  14.166  0.00  0.00    +0.000 C 
BRANCH  19  20
ATOM     20  N   UNL     1      47.741   9.209  15.580  0.00  0.00    +0.000 N 
ATOM     21  C   UNL     1      48.582   8.551  16.441  0.00  0.00    +0.000 C 
ATOM     22  O   UNL     1      49.624   8.023  16.061  0.00  0.00    +0.000 OA
ATOM     23  H   UNL     1      46.789   9.409  15.871  0.00  0.00    +0.000 HD
BRANCH  21  24
ATOM     24  C   UNL     1      48.204   8.565  17.862  0.00  0.00    +0.000 A 
ATOM     25  C   UNL     1      48.040   9.776  18.521  0.00  0.00    +0.000 A 
ATOM     26  S   UNL     1      47.548   9.608  20.146  0.00  0.00    +0.000 S 
ATOM     27  C   UNL     1      47.592   7.910  20.042  0.00  0.00    +0.000 A 
ATOM     28  N   UNL     1      47.302   7.132  21.120  0.00  0.00    +0.000 NA
ATOM     29  C   UNL     1      47.404   5.864  20.906  0.00  0.00    +0.000 A 
ATOM     30  N   UNL     1      47.765   5.301  19.710  0.00  0.00    +0.000 N 
ATOM     31  C   UNL     1      48.039   6.044  18.587  0.00  0.00    +0.000 A 
ATOM     32  O   UNL     1      48.318   5.506  17.521  0.00  0.00    +0.000 OA
ATOM     33  C   UNL     1      47.954   7.479  18.778  0.00  0.00    +0.000 A 
ATOM     34  H   UNL     1      47.813   4.295  19.608  0.00  0.00    +0.000 HD
ENDBRANCH  21  24
ENDBRANCH  19  20
ENDBRANCH   4  19
TORSDOF 6
ENDMDL
MODEL 4
REMARK VINA RESULT:    -7.650      1.873      2.242
REMARK INTER + INTRA:         -11.293
REMARK INTER:                 -10.204
REMARK INTRA:                  -1.088
REMARK UNBOUND:                -0.959
REMARK  Name = 
REMARK  6 active torsions:
REMARK  status: ('A' for Active; 'I' for Inactive)
REMARK    1  A    between atoms: C_2  and  C_25
REMARK    2  A    between atoms: N_3  and  C_4
REMARK    3  A    between atoms: C_4  and  C_5
REMARK    4  A    between atoms: C_8  and  C_9
REMARK    5  A    between atoms: C_9  and  N_10
REMARK    6  A    between atoms: C_11  and  C_13
REMARK                            x       y       z     vdW  Elec       q    Type
REMARK                         _______ _______ _______ _____ _____    ______ ____
ROOT
ATOM      1  C   UNL     1      45.383   4.465  12.555  0.00  0.00    +0.000 A 
ATOM      2  C   UNL     1      45.151   5.820  12.276  0.00  0.00    +0.000 A 
ATOM      3  C   UNL     1      45.975   6.813  12.822  0.00  0.00    +0.000 A 
ATOM      4  C   UNL     1      47.058   6.471  13.642  0.00  0.00    +0.000 A 
ATOM      5  C   UNL     1      47.278   5.117  13.932  0.00  0.00    +0.000 A 
ATOM      6  C   UNL     1      46.458   4.125  13.384  0.00  0.00    +0.000 A 
ENDROOT
BRANCH   1   7
ATOM      7  C   UNL     1      44.517   3.395  11.940  0.00  0.00    +0.000 C 
BRANCH   7  10
ATOM      8  O   UNL     1      44.016   4.251   9.315  0.00  0.00    +0.000 OA
ATOM      9  C   UNL     1      44.833   3.359   9.507  0.00  0.00    +0.000 C 
ATOM     10  N   UNL     1      45.131   2.850  10.751  0.00  0.00    +0.000 N 
ATOM     11  H   UNL     1      45.958   2.282  10.874  0.00  0.00    +0.000 HD
BRANCH   9  12
ATOM     12  C   UNL     1      45.616   2.795   8.372  0.00  0.00    +0.000 A 
ATOM     13  C   UNL     1      46.014   1.453   8.425  0.00  0.00    +0.000 A 
ATOM     14  C   UNL     1      46.709   0.886   7.352  0.00  0.00    +0.000 A 
ATOM     15  C   UNL     1      47.017   1.665   6.238  0.00  0.00    +0.000 A 
ATOM     16 CL   UNL     1      47.848   0.962   4.905  0.00  0.00    +0.000 Cl
ATOM     17  C   UNL     1      46.656   3.010   6.194  0.00  0.00    +0.000 A 
ATOM     18  C   UNL     1      45.959   3.580   7.263  0.00  0.00    +0.000 A 
ENDBRANCH   9  12
ENDBRANCH   7  10
ENDBRANCH   1   7
BRANCH   4  19
ATOM     19  C   UNL     1      47.957   7.530  14.228  0.00  0.00    +0.000 C 
BRANCH  19  20
ATOM     20  N   UNL     1      49.136   6.954  14.824  0.00  0.00    +0.000 N 
ATOM     21  C   UNL     1      49.566   7.338  16.070  0.00  0.00    +0.000 C 
ATOM     22  O   UNL     1      48.948   8.152  16.750  0.00  0.00    +0.000 OA
ATOM     23  H   UNL     1      49.784   6.486  14.199  0.00  0.00    +0.000 HD
BRANCH  21  24
ATOM     24  C   UNL     1      50.775   6.674  16.577  0.00  0.00    +0.000 A 
ATOM     25  C   UNL     1      51.977   7.367  16.621  0.00  0.00    +0.000 A 
ATOM     26  S   UNL     1      53.262   6.464  17.288  0.00  0.00    +0.000 S 
ATOM     27  C   UNL     1      52.270   5.096  17.488  0.00  0.00    +0.000 A 
ATOM     28  N   UNL     1      52.769   3.936  17.994  0.00  0.00    +0.000 NA
ATOM     29  C   UNL     1      51.912   2.972  18.062  0.00  0.00    +0.000 A 
ATOM     30  N   UNL     1      50.602   3.065  17.676  0.00  0.00    +0.000 N 
ATOM     31  C   UNL     1      50.047   4.223  17.186  0.00  0.00    +0.000 A 
ATOM     32  O   UNL     1      48.859   4.283  16.889  0.00  0.00    +0.000 OA
ATOM     33  C   UNL     1      50.972   5.334  17.074  0.00  0.00    +0.000 A 
ATOM     34  H   UNL     1      49.980   2.272  17.769  0.00  0.00    +0.000 HD
ENDBRANCH  21  24
ENDBRANCH  19  20
ENDBRANCH   4  19
TORSDOF 6
ENDMDL
MODEL 5
REMARK VINA RESULT:    -7.489      1.572      2.471
REMARK INTER + INTRA:         -11.075
REMARK INTER:                 -10.217
REMARK INTRA:                  -0.859
REMARK UNBOUND:                -0.959
REMARK  Name = 
REMARK  6 active torsions:
REMARK  status: ('A' for Active; 'I' for Inactive)
REMARK    1  A    between atoms: C_2  and  C_25
REMARK    2  A    between atoms: N_3  and  C_4
REMARK    3  A    between atoms: C_4  and  C_5
REMARK    4  A    between atoms: C_8  and  C_9
REMARK    5  A    between atoms: C_9  and  N_10
REMARK    6  A    between atoms: C_11  and  C_13
REMARK                            x       y       z     vdW  Elec       q    Type
REMARK                         _______ _______ _______ _____ _____    ______ ____
ROOT
ATOM      1  C   UNL     1      45.572   6.378  11.717  0.00  0.00    +0.000 A 
ATOM      2  C   UNL     1      46.558   5.626  12.371  0.00  0.00    +0.000 A 
ATOM      3  C   UNL     1      47.426   6.230  13.290  0.00  0.00    +0.000 A 
ATOM      4  C   UNL     1      47.313   7.594  13.588  0.00  0.00    +0.000 A 
ATOM      5  C   UNL     1      46.336   8.348  12.921  0.00  0.00    +0.000 A 
ATOM      6  C   UNL     1      45.467   7.744  12.006  0.00  0.00    +0.000 A 
ENDROOT
BRANCH   1   7
ATOM      7  C   UNL     1      44.617   5.721  10.753  0.00  0.00    +0.000 C 
BRANCH   7  10
ATOM      8  O   UNL     1      44.009   3.085  10.009  0.00  0.00    +0.000 OA
ATOM      9  C   UNL     1      44.933   3.666   9.452  0.00  0.00    +0.000 C 
ATOM     10  N   UNL     1      45.328   4.947   9.762  0.00  0.00    +0.000 N 
ATOM     11  H   UNL     1      45.940   5.448   9.132  0.00  0.00    +0.000 HD
BRANCH   9  12
ATOM     12  C   UNL     1      45.670   3.014   8.334  0.00  0.00    +0.000 A 
ATOM     13  C   UNL     1      46.018   1.662   8.450  0.00  0.00    +0.000 A 
ATOM     14  C   UNL     1      46.668   1.012   7.396  0.00  0.00    +0.000 A 
ATOM     15  C   UNL     1      46.982   1.719   6.236  0.00  0.00    +0.000 A 
ATOM     16 CL   UNL     1      47.757   0.916   4.927  0.00  0.00    +0.000 Cl
ATOM     17  C   UNL     1      46.671   3.074   6.127  0.00  0.00    +0.000 A 
ATOM     18  C   UNL     1      46.019   3.725   7.178  0.00  0.00    +0.000 A 
ENDBRANCH   9  12
ENDBRANCH   7  10
ENDBRANCH   1   7
BRANCH   4  19
ATOM     19  C   UNL     1      48.235   8.254  14.582  0.00  0.00    +0.000 C 
BRANCH  19  20
ATOM     20  N   UNL     1      48.110   7.666  15.892  0.00  0.00    +0.000 N 
ATOM     21  C   UNL     1      49.055   6.795  16.375  0.00  0.00    +0.000 C 
ATOM     22  O   UNL     1      50.066   6.511  15.740  0.00  0.00    +0.000 OA
ATOM     23  H   UNL     1      47.188   7.683  16.316  0.00  0.00    +0.000 HD
BRANCH  21  24
ATOM     24  C   UNL     1      48.825   6.267  17.727  0.00  0.00    +0.000 A 
ATOM     25  C   UNL     1      49.081   4.930  18.000  0.00  0.00    +0.000 A 
ATOM     26  S   UNL     1      48.813   4.501  19.629  0.00  0.00    +0.000 S 
ATOM     27  C   UNL     1      48.289   6.074  20.015  0.00  0.00    +0.000 A 
ATOM     28  N   UNL     1      47.873   6.387  21.272  0.00  0.00    +0.000 NA
ATOM     29  C   UNL     1      47.475   7.606  21.413  0.00  0.00    +0.000 A 
ATOM     30  N   UNL     1      47.462   8.544  20.415  0.00  0.00    +0.000 N 
ATOM     31  C   UNL     1      47.899   8.282  19.138  0.00  0.00    +0.000 A 
ATOM     32  O   UNL     1      47.912   9.156  18.279  0.00  0.00    +0.000 OA
ATOM     33  C   UNL     1      48.342   6.918  18.921  0.00  0.00    +0.000 A 
ATOM     34  H   UNL     1      47.148   9.488  20.599  0.00  0.00    +0.000 HD
ENDBRANCH  21  24
ENDBRANCH  19  20
ENDBRANCH   4  19
TORSDOF 6
ENDMDL
MODEL 6
REMARK VINA RESULT:    -7.273      1.553      2.116
REMARK INTER + INTRA:         -10.783
REMARK INTER:                  -9.749
REMARK INTRA:                  -1.035
REMARK UNBOUND:                -0.959
REMARK  Name = 
REMARK  6 active torsions:
REMARK  status: ('A' for Active; 'I' for Inactive)
REMARK    1  A    between atoms: C_2  and  C_25
REMARK    2  A    between atoms: N_3  and  C_4
REMARK    3  A    between atoms: C_4  and  C_5
REMARK    4  A    between atoms: C_8  and  C_9
REMARK    5  A    between atoms: C_9  and  N_10
REMARK    6  A    between atoms: C_11  and  C_13
REMARK                            x       y       z     vdW  Elec       q    Type
REMARK                         _______ _______ _______ _____ _____    ______ ____
ROOT
ATOM      1  C   UNL     1      45.674   4.580  12.554  0.00  0.00    +0.000 A 
ATOM      2  C   UNL     1      46.337   4.103  13.694  0.00  0.00    +0.000 A 
ATOM      3  C   UNL     1      47.249   4.914  14.382  0.00  0.00    +0.000 A 
ATOM      4  C   UNL     1      47.501   6.225  13.956  0.00  0.00    +0.000 A 
ATOM      5  C   UNL     1      46.848   6.694  12.807  0.00  0.00    +0.000 A 
ATOM      6  C   UNL     1      45.935   5.886  12.122  0.00  0.00    +0.000 A 
ENDROOT
BRANCH   1   7
ATOM      7  C   UNL     1      44.668   3.719  11.834  0.00  0.00    +0.000 C 
BRANCH   7  10
ATOM      8  O   UNL     1      44.057   4.380   9.176  0.00  0.00    +0.000 OA
ATOM      9  C   UNL     1      44.900   3.520   9.400  0.00  0.00    +0.000 C 
ATOM     10  N   UNL     1      45.252   3.104  10.664  0.00  0.00    +0.000 N 
ATOM     11  H   UNL     1      46.096   2.562  10.796  0.00  0.00    +0.000 HD
BRANCH   9  12
ATOM     12  C   UNL     1      45.656   2.894   8.279  0.00  0.00    +0.000 A 
ATOM     13  C   UNL     1      46.075   1.564   8.405  0.00  0.00    +0.000 A 
ATOM     14  C   UNL     1      46.745   0.937   7.349  0.00  0.00    +0.000 A 
ATOM     15  C   UNL     1      47.007   1.646   6.178  0.00  0.00    +0.000 A 
ATOM     16 CL   UNL     1      47.806   0.870   4.867  0.00  0.00    +0.000 Cl
ATOM     17  C   UNL     1      46.624   2.981   6.059  0.00  0.00    +0.000 A 
ATOM     18  C   UNL     1      45.953   3.610   7.111  0.00  0.00    +0.000 A 
ENDBRANCH   9  12
ENDBRANCH   7  10
ENDBRANCH   1   7
BRANCH   4  19
ATOM     19  C   UNL     1      48.473   7.111  14.693  0.00  0.00    +0.000 C 
BRANCH  19  20
ATOM     20  N   UNL     1      48.998   6.460  15.867  0.00  0.00    +0.000 N 
ATOM     21  C   UNL     1      50.328   6.549  16.197  0.00  0.00    +0.000 C 
ATOM     22  O   UNL     1      51.120   7.218  15.539  0.00  0.00    +0.000 OA
ATOM     23  H   UNL     1      48.436   5.716  16.269  0.00  0.00    +0.000 HD
BRANCH  21  24
ATOM     24  C   UNL     1      50.745   5.851  17.421  0.00  0.00    +0.000 A 
ATOM     25  C   UNL     1      51.820   4.974  17.385  0.00  0.00    +0.000 A 
ATOM     26  S   UNL     1      52.200   4.295  18.903  0.00  0.00    +0.000 S 
ATOM     27  C   UNL     1      50.905   5.105  19.652  0.00  0.00    +0.000 A 
ATOM     28  N   UNL     1      50.641   4.935  20.976  0.00  0.00    +0.000 NA
ATOM     29  C   UNL     1      49.612   5.587  21.403  0.00  0.00    +0.000 A 
ATOM     30  N   UNL     1      48.826   6.398  20.628  0.00  0.00    +0.000 N 
ATOM     31  C   UNL     1      49.071   6.623  19.295  0.00  0.00    +0.000 A 
ATOM     32  O   UNL     1      48.372   7.389  18.640  0.00  0.00    +0.000 OA
ATOM     33  C   UNL     1      50.208   5.901  18.760  0.00  0.00    +0.000 A 
ATOM     34  H   UNL     1      48.040   6.891  21.032  0.00  0.00    +0.000 HD
ENDBRANCH  21  24
ENDBRANCH  19  20
ENDBRANCH   4  19
TORSDOF 6
ENDMDL
MODEL 7
REMARK VINA RESULT:    -7.181      5.490      7.502
REMARK INTER + INTRA:         -10.659
REMARK INTER:                  -9.623
REMARK INTRA:                  -1.036
REMARK UNBOUND:                -0.959
REMARK  Name = 
REMARK  6 active torsions:
REMARK  status: ('A' for Active; 'I' for Inactive)
REMARK    1  A    between atoms: C_2  and  C_25
REMARK    2  A    between atoms: N_3  and  C_4
REMARK    3  A    between atoms: C_4  and  C_5
REMARK    4  A    between atoms: C_8  and  C_9
REMARK    5  A    between atoms: C_9  and  N_10
REMARK    6  A    between atoms: C_11  and  C_13
REMARK                            x       y       z     vdW  Elec       q    Type
REMARK                         _______ _______ _______ _____ _____    ______ ____
ROOT
ATOM      1  C   UNL     1      44.934   9.153  11.897  0.00  0.00    +0.000 A 
ATOM      2  C   UNL     1      46.020   8.998  12.771  0.00  0.00    +0.000 A 
ATOM      3  C   UNL     1      46.434   7.724  13.179  0.00  0.00    +0.000 A 
ATOM      4  C   UNL     1      45.783   6.577  12.705  0.00  0.00    +0.000 A 
ATOM      5  C   UNL     1      44.688   6.734  11.843  0.00  0.00    +0.000 A 
ATOM      6  C   UNL     1      44.277   8.007  11.433  0.00  0.00    +0.000 A 
ENDROOT
BRANCH   1   7
ATOM      7  C   UNL     1      44.511  10.523  11.432  0.00  0.00    +0.000 C 
BRANCH   7  10
ATOM      8  O   UNL     1      42.227  10.686   9.809  0.00  0.00    +0.000 OA
ATOM      9  C   UNL     1      42.118  10.870  11.016  0.00  0.00    +0.000 C 
ATOM     10  N   UNL     1      43.178  10.839  11.893  0.00  0.00    +0.000 N 
ATOM     11  H   UNL     1      43.003  10.778  12.887  0.00  0.00    +0.000 HD
BRANCH   9  12
ATOM     12  C   UNL     1      40.778  11.092  11.627  0.00  0.00    +0.000 A 
ATOM     13  C   UNL     1      40.649  12.040  12.650  0.00  0.00    +0.000 A 
ATOM     14  C   UNL     1      39.393  12.302  13.208  0.00  0.00    +0.000 A 
ATOM     15  C   UNL     1      38.276  11.604  12.755  0.00  0.00    +0.000 A 
ATOM     16 CL   UNL     1      36.726  11.943  13.422  0.00  0.00    +0.000 Cl
ATOM     17  C   UNL     1      38.402  10.632  11.764  0.00  0.00    +0.000 A 
ATOM     18  C   UNL     1      39.654  10.370  11.201  0.00  0.00    +0.000 A 
ENDBRANCH   9  12
ENDBRANCH   7  10
ENDBRANCH   1   7
BRANCH   4  19
ATOM     19  C   UNL     1      46.225   5.199  13.129  0.00  0.00    +0.000 C 
BRANCH  19  20
ATOM     20  N   UNL     1      46.763   5.203  14.466  0.00  0.00    +0.000 N 
ATOM     21  C   UNL     1      47.322   4.074  15.013  0.00  0.00    +0.000 C 
ATOM     22  O   UNL     1      47.429   3.027  14.380  0.00  0.00    +0.000 OA
ATOM     23  H   UNL     1      46.465   5.955  15.078  0.00  0.00    +0.000 HD
BRANCH  21  24
ATOM     24  C   UNL     1      47.846   4.202  16.380  0.00  0.00    +0.000 A 
ATOM     25  C   UNL     1      47.409   3.335  17.372  0.00  0.00    +0.000 A 
ATOM     26  S   UNL     1      48.160   3.590  18.882  0.00  0.00    +0.000 S 
ATOM     27  C   UNL     1      49.054   4.906  18.278  0.00  0.00    +0.000 A 
ATOM     28  N   UNL     1      49.894   5.612  19.082  0.00  0.00    +0.000 NA
ATOM     29  C   UNL     1      50.484   6.601  18.499  0.00  0.00    +0.000 A 
ATOM     30  N   UNL     1      50.315   6.945  17.184  0.00  0.00    +0.000 N 
ATOM     31  C   UNL     1      49.500   6.244  16.327  0.00  0.00    +0.000 A 
ATOM     32  O   UNL     1      49.404   6.554  15.145  0.00  0.00    +0.000 OA
ATOM     33  C   UNL     1      48.800   5.131  16.937  0.00  0.00    +0.000 A 
ATOM     34  H   UNL     1      50.820   7.727  16.787  0.00  0.00    +0.000 HD
ENDBRANCH  21  24
ENDBRANCH  19  20
ENDBRANCH   4  19
TORSDOF 6
ENDMDL
MODEL 8
REMARK VINA RESULT:    -7.153      5.273      7.069
REMARK INTER + INTRA:         -10.621
REMARK INTER:                  -9.852
REMARK INTRA:                  -0.769
REMARK UNBOUND:                -0.959
REMARK  Name = 
REMARK  6 active torsions:
REMARK  status: ('A' for Active; 'I' for Inactive)
REMARK    1  A    between atoms: C_2  and  C_25
REMARK    2  A    between atoms: N_3  and  C_4
REMARK    3  A    between atoms: C_4  and  C_5
REMARK    4  A    between atoms: C_8  and  C_9
REMARK    5  A    between atoms: C_9  and  N_10
REMARK    6  A    between atoms: C_11  and  C_13
REMARK                            x       y       z     vdW  Elec       q    Type
REMARK                         _______ _______ _______ _____ _____    ______ ____
ROOT
ATOM      1  C   UNL     1      45.065   8.037  11.832  0.00  0.00    +0.000 A 
ATOM      2  C   UNL     1      44.277   6.877  11.810  0.00  0.00    +0.000 A 
ATOM      3  C   UNL     1      44.664   5.735  12.523  0.00  0.00    +0.000 A 
ATOM      4  C   UNL     1      45.838   5.736  13.288  0.00  0.00    +0.000 A 
ATOM      5  C   UNL     1      46.632   6.891  13.297  0.00  0.00    +0.000 A 
ATOM      6  C   UNL     1      46.244   8.033  12.588  0.00  0.00    +0.000 A 
ENDROOT
BRANCH   1   7
ATOM      7  C   UNL     1      44.630   9.276  11.092  0.00  0.00    +0.000 C 
BRANCH   7  10
ATOM      8  O   UNL     1      42.694  10.610   9.561  0.00  0.00    +0.000 OA
ATOM      9  C   UNL     1      42.468  10.380  10.743  0.00  0.00    +0.000 C 
ATOM     10  N   UNL     1      43.360   9.757  11.585  0.00  0.00    +0.000 N 
ATOM     11  H   UNL     1      43.041   9.399  12.475  0.00  0.00    +0.000 HD
BRANCH   9  12
ATOM     12  C   UNL     1      41.147  10.725  11.339  0.00  0.00    +0.000 A 
ATOM     13  C   UNL     1      41.103  11.618  12.417  0.00  0.00    +0.000 A 
ATOM     14  C   UNL     1      39.873  11.996  12.965  0.00  0.00    +0.000 A 
ATOM     15  C   UNL     1      38.693  11.467  12.445  0.00  0.00    +0.000 A 
ATOM     16 CL   UNL     1      37.177  11.951  13.099  0.00  0.00    +0.000 Cl
ATOM     17  C   UNL     1      38.730  10.550  11.396  0.00  0.00    +0.000 A 
ATOM     18  C   UNL     1      39.957  10.172  10.844  0.00  0.00    +0.000 A 
ENDBRANCH   9  12
ENDBRANCH   7  10
ENDBRANCH   1   7
BRANCH   4  19
ATOM     19  C   UNL     1      46.261   4.517  14.068  0.00  0.00    +0.000 C 
BRANCH  19  20
ATOM     20  N   UNL     1      47.347   4.813  14.967  0.00  0.00    +0.000 N 
ATOM     21  C   UNL     1      47.408   4.256  16.221  0.00  0.00    +0.000 C 
ATOM     22  O   UNL     1      46.570   3.451  16.618  0.00  0.00    +0.000 OA
ATOM     23  H   UNL     1      47.894   5.644  14.767  0.00  0.00    +0.000 HD
BRANCH  21  24
ATOM     24  C   UNL     1      48.568   4.626  17.044  0.00  0.00    +0.000 A 
ATOM     25  C   UNL     1      48.634   5.889  17.617  0.00  0.00    +0.000 A 
ATOM     26  S   UNL     1      50.020   6.129  18.584  0.00  0.00    +0.000 S 
ATOM     27  C   UNL     1      50.608   4.573  18.224  0.00  0.00    +0.000 A 
ATOM     28  N   UNL     1      51.799   4.140  18.720  0.00  0.00    +0.000 NA
ATOM     29  C   UNL     1      52.134   2.953  18.342  0.00  0.00    +0.000 A 
ATOM     30  N   UNL     1      51.385   2.156  17.517  0.00  0.00    +0.000 N 
ATOM     31  C   UNL     1      50.164   2.539  17.015  0.00  0.00    +0.000 A 
ATOM     32  O   UNL     1      49.500   1.783  16.314  0.00  0.00    +0.000 OA
ATOM     33  C   UNL     1      49.747   3.873  17.398  0.00  0.00    +0.000 A 
ATOM     34  H   UNL     1      51.703   1.227  17.270  0.00  0.00    +0.000 HD
ENDBRANCH  21  24
ENDBRANCH  19  20
ENDBRANCH   4  19
TORSDOF 6
ENDMDL
MODEL 9
REMARK VINA RESULT:    -7.115      4.539      6.156
REMARK INTER + INTRA:         -10.570
REMARK INTER:                  -9.330
REMARK INTRA:                  -1.240
REMARK UNBOUND:                -0.959
REMARK  Name = 
REMARK  6 active torsions:
REMARK  status: ('A' for Active; 'I' for Inactive)
REMARK    1  A    between atoms: C_2  and  C_25
REMARK    2  A    between atoms: N_3  and  C_4
REMARK    3  A    between atoms: C_4  and  C_5
REMARK    4  A    between atoms: C_8  and  C_9
REMARK    5  A    between atoms: C_9  and  N_10
REMARK    6  A    between atoms: C_11  and  C_13
REMARK                            x       y       z     vdW  Elec       q    Type
REMARK                         _______ _______ _______ _____ _____    ______ ____
ROOT
ATOM      1  C   UNL     1      45.572   6.486  12.608  0.00  0.00    +0.000 A 
ATOM      2  C   UNL     1      45.108   7.751  12.221  0.00  0.00    +0.000 A 
ATOM      3  C   UNL     1      45.881   8.897  12.448  0.00  0.00    +0.000 A 
ATOM      4  C   UNL     1      47.143   8.797  13.050  0.00  0.00    +0.000 A 
ATOM      5  C   UNL     1      47.599   7.533  13.449  0.00  0.00    +0.000 A 
ATOM      6  C   UNL     1      46.828   6.389  13.219  0.00  0.00    +0.000 A 
ENDROOT
BRANCH   1   7
ATOM      7  C   UNL     1      44.754   5.250  12.332  0.00  0.00    +0.000 C 
BRANCH   7  10
ATOM      8  O   UNL     1      43.516   4.665   9.883  0.00  0.00    +0.000 OA
ATOM      9  C   UNL     1      44.653   4.259  10.090  0.00  0.00    +0.000 C 
ATOM     10  N   UNL     1      45.337   4.468  11.267  0.00  0.00    +0.000 N 
ATOM     11  H   UNL     1      46.335   4.306  11.301  0.00  0.00    +0.000 HD
BRANCH   9  12
ATOM     12  C   UNL     1      45.403   3.538   9.024  0.00  0.00    +0.000 A 
ATOM     13  C   UNL     1      45.480   2.140   9.077  0.00  0.00    +0.000 A 
ATOM     14  C   UNL     1      46.138   1.436   8.064  0.00  0.00    +0.000 A 
ATOM     15  C   UNL     1      46.730   2.130   7.011  0.00  0.00    +0.000 A 
ATOM     16 CL   UNL     1      47.516   1.265   5.748  0.00  0.00    +0.000 Cl
ATOM     17  C   UNL     1      46.689   3.523   6.970  0.00  0.00    +0.000 A 
ATOM     18  C   UNL     1      46.030   4.231   7.979  0.00  0.00    +0.000 A 
ENDBRANCH   9  12
ENDBRANCH   7  10
ENDBRANCH   1   7
BRANCH   4  19
ATOM     19  C   UNL     1      47.990  10.022  13.291  0.00  0.00    +0.000 C 
BRANCH  19  20
ATOM     20  N   UNL     1      49.278   9.910  12.655  0.00  0.00    +0.000 N 
ATOM     21  C   UNL     1      49.501  10.425  11.402  0.00  0.00    +0.000 C 
ATOM     22  O   UNL     1      48.636  11.041  10.786  0.00  0.00    +0.000 OA
ATOM     23  H   UNL     1      49.911   9.207  13.022  0.00  0.00    +0.000 HD
BRANCH  21  24
ATOM     24  C   UNL     1      50.857  10.258  10.860  0.00  0.00    +0.000 A 
ATOM     25  C   UNL     1      51.575  11.370  10.440  0.00  0.00    +0.000 A 
ATOM     26  S   UNL     1      53.148  11.000   9.891  0.00  0.00    +0.000 S 
ATOM     27  C   UNL     1      52.904   9.335  10.143  0.00  0.00    +0.000 A 
ATOM     28  N   UNL     1      53.873   8.430   9.838  0.00  0.00    +0.000 NA
ATOM     29  C   UNL     1      53.541   7.201  10.052  0.00  0.00    +0.000 A 
ATOM     30  N   UNL     1      52.331   6.795  10.548  0.00  0.00    +0.000 N 
ATOM     31  C   UNL     1      51.333   7.674  10.896  0.00  0.00    +0.000 A 
ATOM     32  O   UNL     1      50.277   7.279  11.377  0.00  0.00    +0.000 OA
ATOM     33  C   UNL     1      51.649   9.069  10.660  0.00  0.00    +0.000 A 
ATOM     34  H   UNL     1      52.141   5.813  10.704  0.00  0.00    +0.000 HD
ENDBRANCH  21  24
ENDBRANCH  19  20
ENDBRANCH   4  19
TORSDOF 6
ENDMDL
