MODEL 1
REMARK VINA RESULT:    -7.751      0.000      0.000
REMARK INTER + INTRA:         -12.071
REMARK INTER:                 -10.697
REMARK INTRA:                  -1.374
REMARK UNBOUND:                -1.374
REMARK  Name = 
REMARK  8 active torsions:
REMARK  status: ('A' for Active; 'I' for Inactive)
REMARK    1  A    between atoms: C_1  and  N_2
REMARK    2  A    between atoms: N_2  and  C_3
REMARK    3  A    between atoms: C_3  and  C_4
REMARK    4  A    between atoms: C_7  and  C_8
REMARK    5  A    between atoms: C_8  and  N_9
REMARK    6  A    between atoms: N_9  and  C_10
REMARK    7  A    between atoms: C_15  and  O_16
REMARK    8  A    between atoms: C_19  and  C_21
REMARK                            x       y       z     vdW  Elec       q    Type
REMARK                         _______ _______ _______ _____ _____    ______ ____
ROOT
ATOM      1  C   UNL     1      47.580   5.760  13.939  0.00  0.00    +0.000 A 
ATOM      2  C   UNL     1      48.438   6.538  14.731  0.00  0.00    +0.000 A 
ATOM      3  C   UNL     1      48.677   6.185  16.056  0.00  0.00    +0.000 A 
ATOM      4  C   UNL     1      48.058   5.056  16.608  0.00  0.00    +0.000 A 
ATOM      5  C   UNL     1      47.196   4.289  15.816  0.00  0.00    +0.000 A 
ATOM      6  C   UNL     1      46.959   4.635  14.490  0.00  0.00    +0.000 A 
ENDROOT
BRANCH   1   7
ATOM      7  C   UNL     1      47.327   6.137  12.507  0.00  0.00    +0.000 C 
BRANCH   7   9
ATOM      8  C   UNL     1      46.616   8.561  12.283  0.00  0.00    +0.000 C 
ATOM      9  N   UNL     1      46.291   7.139  12.238  0.00  0.00    +0.000 N 
ATOM     10  C   UNL     1      45.027   6.810  11.718  0.00  0.00    +0.000 C 
ATOM     11  O   UNL     1      44.244   7.684  11.354  0.00  0.00    +0.000 OA
BRANCH  10  12
ATOM     12  C   UNL     1      44.624   5.398  11.637  0.00  0.00    +0.000 A 
ATOM     13  C   UNL     1      43.882   4.733  12.602  0.00  0.00    +0.000 A 
ATOM     14  S   UNL     1      43.535   3.111  12.204  0.00  0.00    +0.000 S 
ATOM     15  C   UNL     1      44.215   3.294  10.657  0.00  0.00    +0.000 A 
ATOM     16  N   UNL     1      44.141   2.293   9.740  0.00  0.00    +0.000 NA
ATOM     17  C   UNL     1      44.624   2.606   8.583  0.00  0.00    +0.000 A 
ATOM     18  N   UNL     1      45.214   3.806   8.277  0.00  0.00    +0.000 N 
ATOM     19  C   UNL     1      45.451   4.785   9.218  0.00  0.00    +0.000 A 
ATOM     20  O   UNL     1      46.206   5.720   8.980  0.00  0.00    +0.000 OA
ATOM     21  C   UNL     1      44.797   4.537  10.491  0.00  0.00    +0.000 A 
ATOM     22  H   UNL     1      45.635   3.956   7.373  0.00  0.00    +0.000 HD
ENDBRANCH  10  12
ENDBRANCH   7   9
ENDBRANCH   1   7
BRANCH   4  23
ATOM     23  C   UNL     1      48.370   4.627  18.016  0.00  0.00    +0.000 C 
BRANCH  23  24
ATOM     24  N   UNL     1      47.345   5.061  18.959  0.00  0.00    +0.000 NA
ATOM     25  H   UNL     1      47.040   4.270  19.531  0.00  0.00    +0.000 HD
BRANCH  24  26
ATOM     26  C   UNL     1      47.819   6.137  19.846  0.00  0.00    +0.000 C 
ATOM     27  C   UNL     1      47.434   7.522  19.309  0.00  0.00    +0.000 C 
ATOM     28  C   UNL     1      47.823   8.636  20.269  0.00  0.00    +0.000 C 
ATOM     29  C   UNL     1      47.234   8.411  21.655  0.00  0.00    +0.000 C 
ATOM     30  C   UNL     1      47.629   7.048  22.212  0.00  0.00    +0.000 C 
ATOM     31  C   UNL     1      47.229   5.917  21.264  0.00  0.00    +0.000 C 
BRANCH  31  32
ATOM     32  O   UNL     1      47.686   4.672  21.806  0.00  0.00    +0.000 OA
ATOM     33  H   UNL     1      48.535   4.455  21.385  0.00  0.00    +0.000 HD
ENDBRANCH  31  32
ENDBRANCH  24  26
ENDBRANCH  23  24
ENDBRANCH   4  23
TORSDOF 7
ENDMDL
MODEL 2
REMARK VINA RESULT:    -7.522      2.264      3.486
REMARK INTER + INTRA:         -11.755
REMARK INTER:                 -10.414
REMARK INTRA:                  -1.341
REMARK UNBOUND:                -1.374
REMARK  Name = 
REMARK  8 active torsions:
REMARK  status: ('A' for Active; 'I' for Inactive)
REMARK    1  A    between atoms: C_1  and  N_2
REMARK    2  A    between atoms: N_2  and  C_3
REMARK    3  A    between atoms: C_3  and  C_4
REMARK    4  A    between atoms: C_7  and  C_8
REMARK    5  A    between atoms: C_8  and  N_9
REMARK    6  A    between atoms: N_9  and  C_10
REMARK    7  A    between atoms: C_15  and  O_16
REMARK    8  A    between atoms: C_19  and  C_21
REMARK                            x       y       z     vdW  Elec       q    Type
REMARK                         _______ _______ _______ _____ _____    ______ ____
ROOT
ATOM      1  C   UNL     1      47.690   6.047  13.751  0.00  0.00    +0.000 A 
ATOM      2  C   UNL     1      48.561   6.921  14.418  0.00  0.00    +0.000 A 
ATOM      3  C   UNL     1      48.912   6.682  15.743  0.00  0.00    +0.000 A 
ATOM      4  C   UNL     1      48.393   5.570  16.420  0.00  0.00    +0.000 A 
ATOM      5  C   UNL     1      47.517   4.706  15.753  0.00  0.00    +0.000 A 
ATOM      6  C   UNL     1      47.169   4.939  14.426  0.00  0.00    +0.000 A 
ENDROOT
BRANCH   1   7
ATOM      7  C   UNL     1      47.317   6.302  12.318  0.00  0.00    +0.000 C 
BRANCH   7   9
ATOM      8  C   UNL     1      46.544   8.699  12.021  0.00  0.00    +0.000 C 
ATOM      9  N   UNL     1      46.248   7.270  12.053  0.00  0.00    +0.000 N 
ATOM     10  C   UNL     1      44.970   6.894  11.606  0.00  0.00    +0.000 C 
ATOM     11  O   UNL     1      44.153   7.735  11.241  0.00  0.00    +0.000 OA
BRANCH  10  12
ATOM     12  C   UNL     1      44.594   5.471  11.605  0.00  0.00    +0.000 A 
ATOM     13  C   UNL     1      43.879   4.844  12.615  0.00  0.00    +0.000 A 
ATOM     14  S   UNL     1      43.559   3.197  12.307  0.00  0.00    +0.000 S 
ATOM     15  C   UNL     1      44.212   3.311  10.743  0.00  0.00    +0.000 A 
ATOM     16  N   UNL     1      44.145   2.263   9.880  0.00  0.00    +0.000 NA
ATOM     17  C   UNL     1      44.604   2.524   8.701  0.00  0.00    +0.000 A 
ATOM     18  N   UNL     1      45.165   3.718   8.324  0.00  0.00    +0.000 N 
ATOM     19  C   UNL     1      45.396   4.750   9.208  0.00  0.00    +0.000 A 
ATOM     20  O   UNL     1      46.129   5.685   8.910  0.00  0.00    +0.000 OA
ATOM     21  C   UNL     1      44.767   4.555  10.503  0.00  0.00    +0.000 A 
ATOM     22  H   UNL     1      45.570   3.829   7.407  0.00  0.00    +0.000 HD
ENDBRANCH  10  12
ENDBRANCH   7   9
ENDBRANCH   1   7
BRANCH   4  23
ATOM     23  C   UNL     1      48.826   5.264  17.828  0.00  0.00    +0.000 C 
BRANCH  23  24
ATOM     24  N   UNL     1      49.063   3.838  18.029  0.00  0.00    +0.000 NA
ATOM     25  H   UNL     1      48.393   3.294  17.480  0.00  0.00    +0.000 HD
BRANCH  24  26
ATOM     26  C   UNL     1      50.428   3.438  17.652  0.00  0.00    +0.000 C 
ATOM     27  C   UNL     1      51.440   3.771  18.756  0.00  0.00    +0.000 C 
ATOM     28  C   UNL     1      52.836   3.265  18.424  0.00  0.00    +0.000 C 
ATOM     29  C   UNL     1      52.834   1.772  18.126  0.00  0.00    +0.000 C 
ATOM     30  C   UNL     1      51.850   1.429  17.013  0.00  0.00    +0.000 C 
ATOM     31  C   UNL     1      50.439   1.917  17.342  0.00  0.00    +0.000 C 
BRANCH  31  32
ATOM     32  O   UNL     1      49.577   1.629  16.234  0.00  0.00    +0.000 OA
ATOM     33  H   UNL     1      49.801   2.242  15.513  0.00  0.00    +0.000 HD
ENDBRANCH  31  32
ENDBRANCH  24  26
ENDBRANCH  23  24
ENDBRANCH   4  23
TORSDOF 7
ENDMDL
MODEL 3
REMARK VINA RESULT:    -7.355      2.982      8.824
REMARK INTER + INTRA:         -11.523
REMARK INTER:                 -10.320
REMARK INTRA:                  -1.203
REMARK UNBOUND:                -1.374
REMARK  Name = 
REMARK  8 active torsions:
REMARK  status: ('A' for Active; 'I' for Inactive)
REMARK    1  A    between atoms: C_1  and  N_2
REMARK    2  A    between atoms: N_2  and  C_3
REMARK    3  A    between atoms: C_3  and  C_4
REMARK    4  A    between atoms: C_7  and  C_8
REMARK    5  A    between atoms: C_8  and  N_9
REMARK    6  A    between atoms: N_9  and  C_10
REMARK    7  A    between atoms: C_15  and  O_16
REMARK    8  A    between atoms: C_19  and  C_21
REMARK                            x       y       z     vdW  Elec       q    Type
REMARK                         _______ _______ _______ _____ _____    ______ ____
ROOT
ATOM      1  C   UNL     1      48.110   6.683  14.039  0.00  0.00    +0.000 A 
ATOM      2  C   UNL     1      47.317   5.528  13.972  0.00  0.00    +0.000 A 
ATOM      3  C   UNL     1      46.307   5.429  13.019  0.00  0.00    +0.000 A 
ATOM      4  C   UNL     1      46.074   6.484  12.126  0.00  0.00    +0.000 A 
ATOM      5  C   UNL     1      46.862   7.637  12.204  0.00  0.00    +0.000 A 
ATOM      6  C   UNL     1      47.877   7.737  13.151  0.00  0.00    +0.000 A 
ENDROOT
BRANCH   1   7
ATOM      7  C   UNL     1      49.205   6.787  15.063  0.00  0.00    +0.000 C 
BRANCH   7   9
ATOM      8  C   UNL     1      48.840   8.940  16.353  0.00  0.00    +0.000 C 
ATOM      9  N   UNL     1      48.901   7.482  16.318  0.00  0.00    +0.000 N 
ATOM     10  C   UNL     1      48.444   6.816  17.468  0.00  0.00    +0.000 C 
ATOM     11  O   UNL     1      48.047   7.443  18.448  0.00  0.00    +0.000 OA
BRANCH  10  12
ATOM     12  C   UNL     1      48.470   5.346  17.512  0.00  0.00    +0.000 A 
ATOM     13  C   UNL     1      47.365   4.532  17.314  0.00  0.00    +0.000 A 
ATOM     14  S   UNL     1      47.721   2.864  17.384  0.00  0.00    +0.000 S 
ATOM     15  C   UNL     1      49.387   3.175  17.508  0.00  0.00    +0.000 A 
ATOM     16  N   UNL     1      50.289   2.159  17.487  0.00  0.00    +0.000 NA
ATOM     17  C   UNL     1      51.520   2.551  17.503  0.00  0.00    +0.000 A 
ATOM     18  N   UNL     1      51.927   3.858  17.585  0.00  0.00    +0.000 N 
ATOM     19  C   UNL     1      51.049   4.906  17.766  0.00  0.00    +0.000 A 
ATOM     20  O   UNL     1      51.449   6.015  18.098  0.00  0.00    +0.000 OA
ATOM     21  C   UNL     1      49.655   4.528  17.609  0.00  0.00    +0.000 A 
ATOM     22  H   UNL     1      52.905   4.088  17.666  0.00  0.00    +0.000 HD
ENDBRANCH  10  12
ENDBRANCH   7   9
ENDBRANCH   1   7
BRANCH   4  23
ATOM     23  C   UNL     1      45.034   6.353  11.046  0.00  0.00    +0.000 C 
BRANCH  23  24
ATOM     24  N   UNL     1      44.259   5.124  11.181  0.00  0.00    +0.000 NA
ATOM     25  H   UNL     1      43.280   5.350  11.375  0.00  0.00    +0.000 HD
BRANCH  24  26
ATOM     26  C   UNL     1      44.326   4.284   9.973  0.00  0.00    +0.000 C 
ATOM     27  C   UNL     1      45.464   4.722   9.043  0.00  0.00    +0.000 C 
ATOM     28  C   UNL     1      45.612   3.796   7.845  0.00  0.00    +0.000 C 
ATOM     29  C   UNL     1      45.794   2.347   8.276  0.00  0.00    +0.000 C 
ATOM     30  C   UNL     1      44.656   1.890   9.182  0.00  0.00    +0.000 C 
ATOM     31  C   UNL     1      44.507   2.803  10.400  0.00  0.00    +0.000 C 
BRANCH  31  32
ATOM     32  O   UNL     1      43.383   2.367  11.173  0.00  0.00    +0.000 OA
ATOM     33  H   UNL     1      43.004   1.584  10.738  0.00  0.00    +0.000 HD
ENDBRANCH  31  32
ENDBRANCH  24  26
ENDBRANCH  23  24
ENDBRANCH   4  23
TORSDOF 7
ENDMDL
MODEL 4
REMARK VINA RESULT:    -7.353      2.947      9.189
REMARK INTER + INTRA:         -11.521
REMARK INTER:                 -10.388
REMARK INTRA:                  -1.132
REMARK UNBOUND:                -1.374
REMARK  Name = 
REMARK  8 active torsions:
REMARK  status: ('A' for Active; 'I' for Inactive)
REMARK    1  A    between atoms: C_1  and  N_2
REMARK    2  A    between atoms: N_2  and  C_3
REMARK    3  A    between atoms: C_3  and  C_4
REMARK    4  A    between atoms: C_7  and  C_8
REMARK    5  A    between atoms: C_8  and  N_9
REMARK    6  A    between atoms: N_9  and  C_10
REMARK    7  A    between atoms: C_15  and  O_16
REMARK    8  A    between atoms: C_19  and  C_21
REMARK                            x       y       z     vdW  Elec       q    Type
REMARK                         _______ _______ _______ _____ _____    ______ ____
ROOT
ATOM      1  C   UNL     1      46.451   6.423  13.215  0.00  0.00    +0.000 A 
ATOM      2  C   UNL     1      45.393   6.762  12.358  0.00  0.00    +0.000 A 
ATOM      3  C   UNL     1      44.611   5.763  11.785  0.00  0.00    +0.000 A 
ATOM      4  C   UNL     1      44.880   4.415  12.057  0.00  0.00    +0.000 A 
ATOM      5  C   UNL     1      45.942   4.082  12.905  0.00  0.00    +0.000 A 
ATOM      6  C   UNL     1      46.721   5.079  13.484  0.00  0.00    +0.000 A 
ENDROOT
BRANCH   1   7
ATOM      7  C   UNL     1      47.291   7.501  13.838  0.00  0.00    +0.000 C 
BRANCH   7   9
ATOM      8  C   UNL     1      49.359   7.071  12.436  0.00  0.00    +0.000 C 
ATOM      9  N   UNL     1      48.748   7.384  13.724  0.00  0.00    +0.000 N 
ATOM     10  C   UNL     1      49.628   7.771  14.749  0.00  0.00    +0.000 C 
ATOM     11  O   UNL     1      50.842   7.810  14.561  0.00  0.00    +0.000 OA
BRANCH  10  12
ATOM     12  C   UNL     1      49.090   8.104  16.077  0.00  0.00    +0.000 A 
ATOM     13  C   UNL     1      48.806   9.390  16.512  0.00  0.00    +0.000 A 
ATOM     14  S   UNL     1      48.152   9.453  18.087  0.00  0.00    +0.000 S 
ATOM     15  C   UNL     1      48.066   7.758  18.171  0.00  0.00    +0.000 A 
ATOM     16  N   UNL     1      47.480   7.140  19.231  0.00  0.00    +0.000 NA
ATOM     17  C   UNL     1      47.411   5.855  19.117  0.00  0.00    +0.000 A 
ATOM     18  N   UNL     1      47.915   5.133  18.066  0.00  0.00    +0.000 N 
ATOM     19  C   UNL     1      48.654   5.702  17.051  0.00  0.00    +0.000 A 
ATOM     20  O   UNL     1      49.309   5.010  16.281  0.00  0.00    +0.000 OA
ATOM     21  C   UNL     1      48.632   7.155  17.063  0.00  0.00    +0.000 A 
ATOM     22  H   UNL     1      47.891   4.124  18.076  0.00  0.00    +0.000 HD
ENDBRANCH  10  12
ENDBRANCH   7   9
ENDBRANCH   1   7
BRANCH   4  23
ATOM     23  C   UNL     1      43.992   3.334  11.500  0.00  0.00    +0.000 C 
BRANCH  23  24
ATOM     24  N   UNL     1      43.882   3.412  10.048  0.00  0.00    +0.000 NA
ATOM     25  H   UNL     1      43.592   4.353   9.771  0.00  0.00    +0.000 HD
BRANCH  24  26
ATOM     26  C   UNL     1      45.147   3.084   9.370  0.00  0.00    +0.000 C 
ATOM     27  C   UNL     1      45.145   1.646   8.835  0.00  0.00    +0.000 C 
ATOM     28  C   UNL     1      46.403   1.329   8.040  0.00  0.00    +0.000 C 
ATOM     29  C   UNL     1      46.616   2.327   6.909  0.00  0.00    +0.000 C 
ATOM     30  C   UNL     1      46.646   3.759   7.430  0.00  0.00    +0.000 C 
ATOM     31  C   UNL     1      45.379   4.096   8.217  0.00  0.00    +0.000 C 
BRANCH  31  32
ATOM     32  O   UNL     1      45.495   5.426   8.738  0.00  0.00    +0.000 OA
ATOM     33  H   UNL     1      45.576   5.364   9.705  0.00  0.00    +0.000 HD
ENDBRANCH  31  32
ENDBRANCH  24  26
ENDBRANCH  23  24
ENDBRANCH   4  23
TORSDOF 7
ENDMDL
MODEL 5
REMARK VINA RESULT:    -7.094      3.034      9.346
REMARK INTER + INTRA:         -11.164
REMARK INTER:                  -9.838
REMARK INTRA:                  -1.325
REMARK UNBOUND:                -1.374
REMARK  Name = 
REMARK  8 active torsions:
REMARK  status: ('A' for Active; 'I' for Inactive)
REMARK    1  A    between atoms: C_1  and  N_2
REMARK    2  A    between atoms: N_2  and  C_3
REMARK    3  A    between atoms: C_3  and  C_4
REMARK    4  A    between atoms: C_7  and  C_8
REMARK    5  A    between atoms: C_8  and  N_9
REMARK    6  A    between atoms: N_9  and  C_10
REMARK    7  A    between atoms: C_15  and  O_16
REMARK    8  A    between atoms: C_19  and  C_21
REMARK                            x       y       z     vdW  Elec       q    Type
REMARK                         _______ _______ _______ _____ _____    ______ ____
ROOT
ATOM      1  C   UNL     1      46.259   6.597  12.991  0.00  0.00    +0.000 A 
ATOM      2  C   UNL     1      45.103   6.921  12.265  0.00  0.00    +0.000 A 
ATOM      3  C   UNL     1      44.315   5.912  11.719  0.00  0.00    +0.000 A 
ATOM      4  C   UNL     1      44.676   4.568  11.886  0.00  0.00    +0.000 A 
ATOM      5  C   UNL     1      45.835   4.251  12.602  0.00  0.00    +0.000 A 
ATOM      6  C   UNL     1      46.621   5.257  13.155  0.00  0.00    +0.000 A 
ENDROOT
BRANCH   1   7
ATOM      7  C   UNL     1      47.105   7.686  13.586  0.00  0.00    +0.000 C 
BRANCH   7   9
ATOM      8  C   UNL     1      49.121   7.890  12.061  0.00  0.00    +0.000 C 
ATOM      9  N   UNL     1      48.555   7.614  13.378  0.00  0.00    +0.000 N 
ATOM     10  C   UNL     1      49.474   7.506  14.436  0.00  0.00    +0.000 C 
ATOM     11  O   UNL     1      50.682   7.610  14.239  0.00  0.00    +0.000 OA
BRANCH  10  12
ATOM     12  C   UNL     1      48.983   7.231  15.795  0.00  0.00    +0.000 A 
ATOM     13  C   UNL     1      48.870   5.966  16.352  0.00  0.00    +0.000 A 
ATOM     14  S   UNL     1      48.309   5.974  17.963  0.00  0.00    +0.000 S 
ATOM     15  C   UNL     1      48.363   7.671  18.026  0.00  0.00    +0.000 A 
ATOM     16  N   UNL     1      48.113   8.335  19.185  0.00  0.00    +0.000 NA
ATOM     17  C   UNL     1      48.275   9.614  19.103  0.00  0.00    +0.000 A 
ATOM     18  N   UNL     1      48.617  10.289  17.959  0.00  0.00    +0.000 N 
ATOM     19  C   UNL     1      48.725   9.675  16.730  0.00  0.00    +0.000 A 
ATOM     20  O   UNL     1      48.768  10.331  15.697  0.00  0.00    +0.000 OA
ATOM     21  C   UNL     1      48.694   8.224  16.802  0.00  0.00    +0.000 A 
ATOM     22  H   UNL     1      48.655  11.297  17.949  0.00  0.00    +0.000 HD
ENDBRANCH  10  12
ENDBRANCH   7   9
ENDBRANCH   1   7
BRANCH   4  23
ATOM     23  C   UNL     1      43.789   3.470  11.362  0.00  0.00    +0.000 C 
BRANCH  23  24
ATOM     24  N   UNL     1      43.746   3.452   9.904  0.00  0.00    +0.000 NA
ATOM     25  H   UNL     1      43.466   4.371   9.552  0.00  0.00    +0.000 HD
BRANCH  24  26
ATOM     26  C   UNL     1      45.043   3.088   9.309  0.00  0.00    +0.000 C 
ATOM     27  C   UNL     1      45.049   1.638   8.809  0.00  0.00    +0.000 C 
ATOM     28  C   UNL     1      46.346   1.283   8.097  0.00  0.00    +0.000 C 
ATOM     29  C   UNL     1      46.640   2.249   6.956  0.00  0.00    +0.000 C 
ATOM     30  C   UNL     1      46.662   3.693   7.444  0.00  0.00    +0.000 C 
ATOM     31  C   UNL     1      45.357   4.068   8.148  0.00  0.00    +0.000 C 
BRANCH  31  32
ATOM     32  O   UNL     1      45.464   5.409   8.642  0.00  0.00    +0.000 OA
ATOM     33  H   UNL     1      46.188   5.848   8.165  0.00  0.00    +0.000 HD
ENDBRANCH  31  32
ENDBRANCH  24  26
ENDBRANCH  23  24
ENDBRANCH   4  23
TORSDOF 7
ENDMDL
MODEL 6
REMARK VINA RESULT:    -6.850      2.958      8.334
REMARK INTER + INTRA:         -10.826
REMARK INTER:                  -9.547
REMARK INTRA:                  -1.280
REMARK UNBOUND:                -1.374
REMARK  Name = 
REMARK  8 active torsions:
REMARK  status: ('A' for Active; 'I' for Inactive)
REMARK    1  A    between atoms: C_1  and  N_2
REMARK    2  A    between atoms: N_2  and  C_3
REMARK    3  A    between atoms: C_3  and  C_4
REMARK    4  A    between atoms: C_7  and  C_8
REMARK    5  A    between atoms: C_8  and  N_9
REMARK    6  A    between atoms: N_9  and  C_10
REMARK    7  A    between atoms: C_15  and  O_16
REMARK    8  A    between atoms: C_19  and  C_21
REMARK                            x       y       z     vdW  Elec       q    Type
REMARK                         _______ _______ _______ _____ _____    ______ ____
ROOT
ATOM      1  C   UNL     1      48.667   7.206  14.875  0.00  0.00    +0.000 A 
ATOM      2  C   UNL     1      48.164   6.078  14.211  0.00  0.00    +0.000 A 
ATOM      3  C   UNL     1      47.164   6.218  13.253  0.00  0.00    +0.000 A 
ATOM      4  C   UNL     1      46.651   7.487  12.951  0.00  0.00    +0.000 A 
ATOM      5  C   UNL     1      47.149   8.608  13.622  0.00  0.00    +0.000 A 
ATOM      6  C   UNL     1      48.153   8.472  14.576  0.00  0.00    +0.000 A 
ENDROOT
BRANCH   1   7
ATOM      7  C   UNL     1      49.751   7.056  15.904  0.00  0.00    +0.000 C 
BRANCH   7   9
ATOM      8  C   UNL     1      49.500   8.799  17.728  0.00  0.00    +0.000 C 
ATOM      9  N   UNL     1      49.429   7.409  17.290  0.00  0.00    +0.000 N 
ATOM     10  C   UNL     1      48.838   6.507  18.191  0.00  0.00    +0.000 C 
ATOM     11  O   UNL     1      48.436   6.880  19.290  0.00  0.00    +0.000 OA
BRANCH  10  12
ATOM     12  C   UNL     1      48.726   5.086  17.824  0.00  0.00    +0.000 A 
ATOM     13  C   UNL     1      47.595   4.500  17.277  0.00  0.00    +0.000 A 
ATOM     14  S   UNL     1      47.786   2.843  16.918  0.00  0.00    +0.000 S 
ATOM     15  C   UNL     1      49.436   2.896  17.320  0.00  0.00    +0.000 A 
ATOM     16  N   UNL     1      50.238   1.817  17.122  0.00  0.00    +0.000 NA
ATOM     17  C   UNL     1      51.483   2.031  17.392  0.00  0.00    +0.000 A 
ATOM     18  N   UNL     1      51.988   3.208  17.884  0.00  0.00    +0.000 N 
ATOM     19  C   UNL     1      51.190   4.272  18.247  0.00  0.00    +0.000 A 
ATOM     20  O   UNL     1      51.633   5.194  18.921  0.00  0.00    +0.000 OA
ATOM     21  C   UNL     1      49.806   4.129  17.827  0.00  0.00    +0.000 A 
ATOM     22  H   UNL     1      52.960   3.283  18.141  0.00  0.00    +0.000 HD
ENDBRANCH  10  12
ENDBRANCH   7   9
ENDBRANCH   1   7
BRANCH   4  23
ATOM     23  C   UNL     1      45.623   7.654  11.864  0.00  0.00    +0.000 C 
BRANCH  23  24
ATOM     24  N   UNL     1      44.301   7.208  12.289  0.00  0.00    +0.000 NA
ATOM     25  H   UNL     1      43.616   7.952  12.134  0.00  0.00    +0.000 HD
BRANCH  24  26
ATOM     26  C   UNL     1      43.861   5.998  11.576  0.00  0.00    +0.000 C 
ATOM     27  C   UNL     1      44.887   5.558  10.523  0.00  0.00    +0.000 C 
ATOM     28  C   UNL     1      44.495   4.249   9.854  0.00  0.00    +0.000 C 
ATOM     29  C   UNL     1      44.263   3.145  10.877  0.00  0.00    +0.000 C 
ATOM     30  C   UNL     1      43.227   3.558  11.915  0.00  0.00    +0.000 C 
ATOM     31  C   UNL     1      43.617   4.865  12.608  0.00  0.00    +0.000 C 
BRANCH  31  32
ATOM     32  O   UNL     1      42.575   5.237  13.519  0.00  0.00    +0.000 OA
ATOM     33  H   UNL     1      41.786   4.714  13.302  0.00  0.00    +0.000 HD
ENDBRANCH  31  32
ENDBRANCH  24  26
ENDBRANCH  23  24
ENDBRANCH   4  23
TORSDOF 7
ENDMDL
MODEL 7
REMARK VINA RESULT:    -6.762      3.167      8.271
REMARK INTER + INTRA:         -10.706
REMARK INTER:                  -9.268
REMARK INTRA:                  -1.438
REMARK UNBOUND:                -1.374
REMARK  Name = 
REMARK  8 active torsions:
REMARK  status: ('A' for Active; 'I' for Inactive)
REMARK    1  A    between atoms: C_1  and  N_2
REMARK    2  A    between atoms: N_2  and  C_3
REMARK    3  A    between atoms: C_3  and  C_4
REMARK    4  A    between atoms: C_7  and  C_8
REMARK    5  A    between atoms: C_8  and  N_9
REMARK    6  A    between atoms: N_9  and  C_10
REMARK    7  A    between atoms: C_15  and  O_16
REMARK    8  A    between atoms: C_19  and  C_21
REMARK                            x       y       z     vdW  Elec       q    Type
REMARK                         _______ _______ _______ _____ _____    ______ ____
ROOT
ATOM      1  C   UNL     1      48.601   8.038  15.314  0.00  0.00    +0.000 A 
ATOM      2  C   UNL     1      47.966   9.105  14.661  0.00  0.00    +0.000 A 
ATOM      3  C   UNL     1      47.205   8.871  13.519  0.00  0.00    +0.000 A 
ATOM      4  C   UNL     1      47.074   7.570  13.014  0.00  0.00    +0.000 A 
ATOM      5  C   UNL     1      47.717   6.512  13.664  0.00  0.00    +0.000 A 
ATOM      6  C   UNL     1      48.473   6.741  14.809  0.00  0.00    +0.000 A 
ENDROOT
BRANCH   1   7
ATOM      7  C   UNL     1      49.417   8.290  16.550  0.00  0.00    +0.000 C 
BRANCH   7   9
ATOM      8  C   UNL     1      47.780   9.076  18.320  0.00  0.00    +0.000 C 
ATOM      9  N   UNL     1      48.763   8.105  17.850  0.00  0.00    +0.000 N 
ATOM     10  C   UNL     1      48.863   6.917  18.593  0.00  0.00    +0.000 C 
ATOM     11  O   UNL     1      48.176   6.737  19.596  0.00  0.00    +0.000 OA
BRANCH  10  12
ATOM     12  C   UNL     1      49.830   5.887  18.183  0.00  0.00    +0.000 A 
ATOM     13  C   UNL     1      51.197   5.954  18.407  0.00  0.00    +0.000 A 
ATOM     14  S   UNL     1      52.051   4.586  17.852  0.00  0.00    +0.000 S 
ATOM     15  C   UNL     1      50.607   3.785  17.453  0.00  0.00    +0.000 A 
ATOM     16  N   UNL     1      50.619   2.494  17.027  0.00  0.00    +0.000 NA
ATOM     17  C   UNL     1      49.443   1.991  16.844  0.00  0.00    +0.000 A 
ATOM     18  N   UNL     1      48.264   2.674  17.002  0.00  0.00    +0.000 N 
ATOM     19  C   UNL     1      48.211   4.023  17.279  0.00  0.00    +0.000 A 
ATOM     20  O   UNL     1      47.169   4.654  17.153  0.00  0.00    +0.000 OA
ATOM     21  C   UNL     1      49.500   4.594  17.634  0.00  0.00    +0.000 A 
ATOM     22  H   UNL     1      47.384   2.240  16.772  0.00  0.00    +0.000 HD
ENDBRANCH  10  12
ENDBRANCH   7   9
ENDBRANCH   1   7
BRANCH   4  23
ATOM     23  C   UNL     1      46.193   7.300  11.824  0.00  0.00    +0.000 C 
BRANCH  23  24
ATOM     24  N   UNL     1      44.796   7.124  12.208  0.00  0.00    +0.000 NA
ATOM     25  H   UNL     1      44.269   7.978  12.006  0.00  0.00    +0.000 HD
BRANCH  24  26
ATOM     26  C   UNL     1      44.161   5.995  11.509  0.00  0.00    +0.000 C 
ATOM     27  C   UNL     1      45.101   5.373  10.468  0.00  0.00    +0.000 C 
ATOM     28  C   UNL     1      44.496   4.139   9.815  0.00  0.00    +0.000 C 
ATOM     29  C   UNL     1      44.080   3.104  10.852  0.00  0.00    +0.000 C 
ATOM     30  C   UNL     1      43.125   3.702  11.880  0.00  0.00    +0.000 C 
ATOM     31  C   UNL     1      43.728   4.934  12.556  0.00  0.00    +0.000 C 
BRANCH  31  32
ATOM     32  O   UNL     1      42.762   5.489  13.457  0.00  0.00    +0.000 OA
ATOM     33  H   UNL     1      43.147   5.487  14.349  0.00  0.00    +0.000 HD
ENDBRANCH  31  32
ENDBRANCH  24  26
ENDBRANCH  23  24
ENDBRANCH   4  23
TORSDOF 7
ENDMDL
MODEL 8
REMARK VINA RESULT:    -6.639      5.310     11.332
REMARK INTER + INTRA:         -10.536
REMARK INTER:                 -10.278
REMARK INTRA:                  -0.258
REMARK UNBOUND:                -1.374
REMARK  Name = 
REMARK  8 active torsions:
REMARK  status: ('A' for Active; 'I' for Inactive)
REMARK    1  A    between atoms: C_1  and  N_2
REMARK    2  A    between atoms: N_2  and  C_3
REMARK    3  A    between atoms: C_3  and  C_4
REMARK    4  A    between atoms: C_7  and  C_8
REMARK    5  A    between atoms: C_8  and  N_9
REMARK    6  A    between atoms: N_9  and  C_10
REMARK    7  A    between atoms: C_15  and  O_16
REMARK    8  A    between atoms: C_19  and  C_21
REMARK                            x       y       z     vdW  Elec       q    Type
REMARK                         _______ _______ _______ _____ _____    ______ ____
ROOT
ATOM      1  C   UNL     1      45.086   3.364   8.730  0.00  0.00    +0.000 A 
ATOM      2  C   UNL     1      45.758   4.099   7.742  0.00  0.00    +0.000 A 
ATOM      3  C   UNL     1      46.571   3.447   6.819  0.00  0.00    +0.000 A 
ATOM      4  C   UNL     1      46.726   2.055   6.875  0.00  0.00    +0.000 A 
ATOM      5  C   UNL     1      46.061   1.329   7.868  0.00  0.00    +0.000 A 
ATOM      6  C   UNL     1      45.243   1.976   8.789  0.00  0.00    +0.000 A 
ENDROOT
BRANCH   1   7
ATOM      7  C   UNL     1      44.204   4.067   9.723  0.00  0.00    +0.000 C 
BRANCH   7   9
ATOM      8  C   UNL     1      43.605   2.137  11.255  0.00  0.00    +0.000 C 
ATOM      9  N   UNL     1      44.103   3.496  11.070  0.00  0.00    +0.000 N 
ATOM     10  C   UNL     1      44.667   4.107  12.203  0.00  0.00    +0.000 C 
ATOM     11  O   UNL     1      44.703   3.526  13.285  0.00  0.00    +0.000 OA
BRANCH  10  12
ATOM     12  C   UNL     1      45.194   5.477  12.099  0.00  0.00    +0.000 A 
ATOM     13  C   UNL     1      46.539   5.811  12.164  0.00  0.00    +0.000 A 
ATOM     14  S   UNL     1      46.841   7.478  11.968  0.00  0.00    +0.000 S 
ATOM     15  C   UNL     1      45.207   7.784  11.619  0.00  0.00    +0.000 A 
ATOM     16  N   UNL     1      44.794   9.021  11.236  0.00  0.00    +0.000 NA
ATOM     17  C   UNL     1      43.543   9.083  10.921  0.00  0.00    +0.000 A 
ATOM     18  N   UNL     1      42.661   8.034  11.000  0.00  0.00    +0.000 N 
ATOM     19  C   UNL     1      43.000   6.809  11.531  0.00  0.00    +0.000 A 
ATOM     20  O   UNL     1      42.140   5.990  11.832  0.00  0.00    +0.000 OA
ATOM     21  C   UNL     1      44.426   6.651  11.762  0.00  0.00    +0.000 A 
ATOM     22  H   UNL     1      41.681   8.172  10.808  0.00  0.00    +0.000 HD
ENDBRANCH  10  12
ENDBRANCH   7   9
ENDBRANCH   1   7
BRANCH   4  23
ATOM     23  C   UNL     1      47.543   1.337   5.835  0.00  0.00    +0.000 C 
BRANCH  23  24
ATOM     24  N   UNL     1      47.109   1.662   4.480  0.00  0.00    +0.000 NA
ATOM     25  H   UNL     1      47.752   2.339   4.062  0.00  0.00    +0.000 HD
BRANCH  24  26
ATOM     26  C   UNL     1      47.038   0.474   3.614  0.00  0.00    +0.000 C 
ATOM     27  C   UNL     1      47.249  -0.820   4.411  0.00  0.00    +0.000 C 
ATOM     28  C   UNL     1      47.071  -2.060   3.547  0.00  0.00    +0.000 C 
ATOM     29  C   UNL     1      45.716  -2.068   2.852  0.00  0.00    +0.000 C 
ATOM     30  C   UNL     1      45.504  -0.799   2.035  0.00  0.00    +0.000 C 
ATOM     31  C   UNL     1      45.663   0.456   2.895  0.00  0.00    +0.000 C 
BRANCH  31  32
ATOM     32  O   UNL     1      45.521   1.613   2.062  0.00  0.00    +0.000 OA
ATOM     33  H   UNL     1      46.249   1.609   1.417  0.00  0.00    +0.000 HD
ENDBRANCH  31  32
ENDBRANCH  24  26
ENDBRANCH  23  24
ENDBRANCH   4  23
TORSDOF 7
ENDMDL
MODEL 9
REMARK VINA RESULT:    -6.552      3.577      9.131
REMARK INTER + INTRA:         -10.416
REMARK INTER:                  -9.534
REMARK INTRA:                  -0.882
REMARK UNBOUND:                -1.374
REMARK  Name = 
REMARK  8 active torsions:
REMARK  status: ('A' for Active; 'I' for Inactive)
REMARK    1  A    between atoms: C_1  and  N_2
REMARK    2  A    between atoms: N_2  and  C_3
REMARK    3  A    between atoms: C_3  and  C_4
REMARK    4  A    between atoms: C_7  and  C_8
REMARK    5  A    between atoms: C_8  and  N_9
REMARK    6  A    between atoms: N_9  and  C_10
REMARK    7  A    between atoms: C_15  and  O_16
REMARK    8  A    between atoms: C_19  and  C_21
REMARK                            x       y       z     vdW  Elec       q    Type
REMARK                         _______ _______ _______ _____ _____    ______ ____
ROOT
ATOM      1  C   UNL     1      48.539   7.026  13.085  0.00  0.00    +0.000 A 
ATOM      2  C   UNL     1      47.935   7.342  11.859  0.00  0.00    +0.000 A 
ATOM      3  C   UNL     1      46.773   6.687  11.463  0.00  0.00    +0.000 A 
ATOM      4  C   UNL     1      46.203   5.704  12.284  0.00  0.00    +0.000 A 
ATOM      5  C   UNL     1      46.815   5.385  13.501  0.00  0.00    +0.000 A 
ATOM      6  C   UNL     1      47.974   6.043  13.902  0.00  0.00    +0.000 A 
ENDROOT
BRANCH   1   7
ATOM      7  C   UNL     1      49.790   7.738  13.515  0.00  0.00    +0.000 C 
BRANCH   7   9
ATOM      8  C   UNL     1      48.725   9.882  14.352  0.00  0.00    +0.000 C 
ATOM      9  N   UNL     1      49.664   8.780  14.539  0.00  0.00    +0.000 N 
ATOM     10  C   UNL     1      50.244   8.672  15.814  0.00  0.00    +0.000 C 
ATOM     11  O   UNL     1      49.986   9.485  16.699  0.00  0.00    +0.000 OA
BRANCH  10  12
ATOM     12  C   UNL     1      51.199   7.586  16.085  0.00  0.00    +0.000 A 
ATOM     13  C   UNL     1      52.557   7.645  15.810  0.00  0.00    +0.000 A 
ATOM     14  S   UNL     1      53.412   6.244  16.276  0.00  0.00    +0.000 S 
ATOM     15  C   UNL     1      52.030   5.587  17.015  0.00  0.00    +0.000 A 
ATOM     16  N   UNL     1      52.101   4.428  17.722  0.00  0.00    +0.000 NA
ATOM     17  C   UNL     1      50.993   4.097  18.298  0.00  0.00    +0.000 A 
ATOM     18  N   UNL     1      49.815   4.792  18.192  0.00  0.00    +0.000 N 
ATOM     19  C   UNL     1      49.659   5.880  17.361  0.00  0.00    +0.000 A 
ATOM     20  O   UNL     1      48.546   6.312  17.086  0.00  0.00    +0.000 OA
ATOM     21  C   UNL     1      50.910   6.372  16.809  0.00  0.00    +0.000 A 
ATOM     22  H   UNL     1      48.969   4.436  18.610  0.00  0.00    +0.000 HD
ENDBRANCH  10  12
ENDBRANCH   7   9
ENDBRANCH   1   7
BRANCH   4  23
ATOM     23  C   UNL     1      44.907   5.045  11.896  0.00  0.00    +0.000 C 
BRANCH  23  24
ATOM     24  N   UNL     1      44.421   5.514  10.603  0.00  0.00    +0.000 NA
ATOM     25  H   UNL     1      44.982   6.309  10.288  0.00  0.00    +0.000 HD
BRANCH  24  26
ATOM     26  C   UNL     1      44.464   4.462   9.573  0.00  0.00    +0.000 C 
ATOM     27  C   UNL     1      45.722   4.576   8.702  0.00  0.00    +0.000 C 
ATOM     28  C   UNL     1      45.832   3.432   7.704  0.00  0.00    +0.000 C 
ATOM     29  C   UNL     1      45.775   2.077   8.397  0.00  0.00    +0.000 C 
ATOM     30  C   UNL     1      44.517   1.941   9.247  0.00  0.00    +0.000 C 
ATOM     31  C   UNL     1      44.402   3.075  10.266  0.00  0.00    +0.000 C 
BRANCH  31  32
ATOM     32  O   UNL     1      43.171   2.932  10.985  0.00  0.00    +0.000 OA
ATOM     33  H   UNL     1      42.818   2.046  10.801  0.00  0.00    +0.000 HD
ENDBRANCH  31  32
ENDBRANCH  24  26
ENDBRANCH  23  24
ENDBRANCH   4  23
TORSDOF 7
ENDMDL
