MODEL 1
REMARK VINA RESULT:    -7.295      0.000      0.000
REMARK INTER + INTRA:          -9.580
REMARK INTER:                  -9.001
REMARK INTRA:                  -0.579
REMARK UNBOUND:                -0.579
REMARK  Name = 
REMARK  5 active torsions:
REMARK  status: ('A' for Active; 'I' for Inactive)
REMARK    1  A    between atoms: C_1  and  O_2
REMARK    2  A    between atoms: O_2  and  C_3
REMARK    3  A    between atoms: C_7  and  C_8
REMARK    4  A    between atoms: C_8  and  N_9
REMARK    5  A    between atoms: C_10  and  C_12
REMARK                            x       y       z     vdW  Elec       q    Type
REMARK                         _______ _______ _______ _____ _____    ______ ____
ROOT
ATOM      1  N   UNL     1      46.797   4.493  15.868  0.00  0.00    +0.000 N 
ATOM      2  C   UNL     1      46.882   4.191  14.533  0.00  0.00    +0.000 C 
ATOM      3  O   UNL     1      47.213   3.080  14.126  0.00  0.00    +0.000 OA
ATOM      4  H   UNL     1      46.832   5.469  16.143  0.00  0.00    +0.000 HD
ENDROOT
BRANCH   2   5
ATOM      5  C   UNL     1      46.476   5.255  13.603  0.00  0.00    +0.000 A 
ATOM      6  C   UNL     1      47.356   6.288  13.307  0.00  0.00    +0.000 A 
ATOM      7  S   UNL     1      46.748   7.397  12.161  0.00  0.00    +0.000 S 
ATOM      8  C   UNL     1      45.263   6.567  12.066  0.00  0.00    +0.000 A 
ATOM      9  N   UNL     1      44.255   7.022  11.272  0.00  0.00    +0.000 NA
ATOM     10  C   UNL     1      43.176   6.315  11.326  0.00  0.00    +0.000 A 
ATOM     11  N   UNL     1      43.012   5.195  12.103  0.00  0.00    +0.000 N 
ATOM     12  C   UNL     1      44.016   4.682  12.889  0.00  0.00    +0.000 A 
ATOM     13  O   UNL     1      43.859   3.645  13.530  0.00  0.00    +0.000 OA
ATOM     14  C   UNL     1      45.243   5.450  12.876  0.00  0.00    +0.000 A 
ATOM     15  H   UNL     1      42.143   4.682  12.097  0.00  0.00    +0.000 HD
ENDBRANCH   2   5
BRANCH   1  16
ATOM     16  C   UNL     1      47.111   3.530  16.898  0.00  0.00    +0.000 C 
BRANCH  16  21
ATOM     17  C   UNL     1      50.682   2.266  17.430  0.00  0.00    +0.000 A 
ATOM     18  C   UNL     1      51.377   3.467  17.570  0.00  0.00    +0.000 A 
ATOM     19  C   UNL     1      50.693   4.681  17.549  0.00  0.00    +0.000 A 
ATOM     20  C   UNL     1      49.310   4.706  17.360  0.00  0.00    +0.000 A 
ATOM     21  C   UNL     1      48.593   3.512  17.189  0.00  0.00    +0.000 A 
ATOM     22  C   UNL     1      49.293   2.297  17.242  0.00  0.00    +0.000 A 
BRANCH  17  24
ATOM     23  C   UNL     1      52.610   0.956  17.847  0.00  0.00    +0.000 C 
ATOM     24  O   UNL     1      51.243   1.018  17.452  0.00  0.00    +0.000 OA
ENDBRANCH  17  24
ENDBRANCH  16  21
ENDBRANCH   1  16
TORSDOF 4
ENDMDL
MODEL 2
REMARK VINA RESULT:    -6.971      1.133      1.955
REMARK INTER + INTRA:          -9.181
REMARK INTER:                  -8.594
REMARK INTRA:                  -0.586
REMARK UNBOUND:                -0.579
REMARK  Name = 
REMARK  5 active torsions:
REMARK  status: ('A' for Active; 'I' for Inactive)
REMARK    1  A    between atoms: C_1  and  O_2
REMARK    2  A    between atoms: O_2  and  C_3
REMARK    3  A    between atoms: C_7  and  C_8
REMARK    4  A    between atoms: C_8  and  N_9
REMARK    5  A    between atoms: C_10  and  C_12
REMARK                            x       y       z     vdW  Elec       q    Type
REMARK                         _______ _______ _______ _____ _____    ______ ____
ROOT
ATOM      1  N   UNL     1      46.890   4.450  15.889  0.00  0.00    +0.000 N 
ATOM      2  C   UNL     1      46.903   4.176  14.546  0.00  0.00    +0.000 C 
ATOM      3  O   UNL     1      47.200   3.071  14.099  0.00  0.00    +0.000 OA
ATOM      4  H   UNL     1      46.951   5.420  16.182  0.00  0.00    +0.000 HD
ENDROOT
BRANCH   2   5
ATOM      5  C   UNL     1      46.462   5.264  13.661  0.00  0.00    +0.000 A 
ATOM      6  C   UNL     1      47.302   6.343  13.419  0.00  0.00    +0.000 A 
ATOM      7  S   UNL     1      46.658   7.478  12.318  0.00  0.00    +0.000 S 
ATOM      8  C   UNL     1      45.209   6.594  12.172  0.00  0.00    +0.000 A 
ATOM      9  N   UNL     1      44.189   7.043  11.390  0.00  0.00    +0.000 NA
ATOM     10  C   UNL     1      43.139   6.292  11.402  0.00  0.00    +0.000 A 
ATOM     11  N   UNL     1      43.014   5.132  12.127  0.00  0.00    +0.000 N 
ATOM     12  C   UNL     1      44.032   4.625  12.898  0.00  0.00    +0.000 A 
ATOM     13  O   UNL     1      43.913   3.555  13.491  0.00  0.00    +0.000 OA
ATOM     14  C   UNL     1      45.228   5.442  12.931  0.00  0.00    +0.000 A 
ATOM     15  H   UNL     1      42.167   4.586  12.090  0.00  0.00    +0.000 HD
ENDBRANCH   2   5
BRANCH   1  16
ATOM     16  C   UNL     1      47.246   3.462  16.882  0.00  0.00    +0.000 C 
BRANCH  16  21
ATOM     17  C   UNL     1      50.833   4.535  17.665  0.00  0.00    +0.000 A 
ATOM     18  C   UNL     1      51.499   3.311  17.616  0.00  0.00    +0.000 A 
ATOM     19  C   UNL     1      50.810   2.149  17.278  0.00  0.00    +0.000 A 
ATOM     20  C   UNL     1      49.440   2.196  17.012  0.00  0.00    +0.000 A 
ATOM     21  C   UNL     1      48.743   3.411  17.083  0.00  0.00    +0.000 A 
ATOM     22  C   UNL     1      49.459   4.577  17.396  0.00  0.00    +0.000 A 
BRANCH  17  24
ATOM     23  C   UNL     1      50.550   6.709  18.561  0.00  0.00    +0.000 C 
ATOM     24  O   UNL     1      51.409   5.740  17.967  0.00  0.00    +0.000 OA
ENDBRANCH  17  24
ENDBRANCH  16  21
ENDBRANCH   1  16
TORSDOF 4
ENDMDL
MODEL 3
REMARK VINA RESULT:    -6.900      2.925      7.191
REMARK INTER + INTRA:          -9.092
REMARK INTER:                  -8.329
REMARK INTRA:                  -0.763
REMARK UNBOUND:                -0.579
REMARK  Name = 
REMARK  5 active torsions:
REMARK  status: ('A' for Active; 'I' for Inactive)
REMARK    1  A    between atoms: C_1  and  O_2
REMARK    2  A    between atoms: O_2  and  C_3
REMARK    3  A    between atoms: C_7  and  C_8
REMARK    4  A    between atoms: C_8  and  N_9
REMARK    5  A    between atoms: C_10  and  C_12
REMARK                            x       y       z     vdW  Elec       q    Type
REMARK                         _______ _______ _______ _____ _____    ______ ____
ROOT
ATOM      1  N   UNL     1      46.745   6.710  13.668  0.00  0.00    +0.000 N 
ATOM      2  C   UNL     1      48.083   6.454  13.824  0.00  0.00    +0.000 C 
ATOM      3  O   UNL     1      48.878   6.500  12.889  0.00  0.00    +0.000 OA
ATOM      4  H   UNL     1      46.103   6.360  14.371  0.00  0.00    +0.000 HD
ENDROOT
BRANCH   2   5
ATOM      5  C   UNL     1      48.534   6.193  15.198  0.00  0.00    +0.000 A 
ATOM      6  C   UNL     1      49.428   7.063  15.811  0.00  0.00    +0.000 A 
ATOM      7  S   UNL     1      49.790   6.646  17.426  0.00  0.00    +0.000 S 
ATOM      8  C   UNL     1      48.811   5.255  17.343  0.00  0.00    +0.000 A 
ATOM      9  N   UNL     1      48.705   4.408  18.404  0.00  0.00    +0.000 NA
ATOM     10  C   UNL     1      47.959   3.377  18.188  0.00  0.00    +0.000 A 
ATOM     11  N   UNL     1      47.309   3.113  17.007  0.00  0.00    +0.000 N 
ATOM     12  C   UNL     1      47.360   3.961  15.927  0.00  0.00    +0.000 A 
ATOM     13  O   UNL     1      46.722   3.729  14.902  0.00  0.00    +0.000 OA
ATOM     14  C   UNL     1      48.200   5.126  16.113  0.00  0.00    +0.000 A 
ATOM     15  H   UNL     1      46.736   2.291  16.903  0.00  0.00    +0.000 HD
ENDBRANCH   2   5
BRANCH   1  16
ATOM     16  C   UNL     1      46.166   7.035  12.384  0.00  0.00    +0.000 C 
BRANCH  16  21
ATOM     17  C   UNL     1      44.088   4.493  10.421  0.00  0.00    +0.000 A 
ATOM     18  C   UNL     1      43.144   4.119  11.377  0.00  0.00    +0.000 A 
ATOM     19  C   UNL     1      43.139   4.721  12.633  0.00  0.00    +0.000 A 
ATOM     20  C   UNL     1      44.096   5.685  12.955  0.00  0.00    +0.000 A 
ATOM     21  C   UNL     1      45.073   6.058  12.020  0.00  0.00    +0.000 A 
ATOM     22  C   UNL     1      45.046   5.462  10.749  0.00  0.00    +0.000 A 
BRANCH  17  24
ATOM     23  C   UNL     1      44.668   2.650   9.051  0.00  0.00    +0.000 C 
ATOM     24  O   UNL     1      44.179   3.984   9.154  0.00  0.00    +0.000 OA
ENDBRANCH  17  24
ENDBRANCH  16  21
ENDBRANCH   1  16
TORSDOF 4
ENDMDL
MODEL 4
REMARK VINA RESULT:    -6.862      1.789      2.817
REMARK INTER + INTRA:          -9.045
REMARK INTER:                  -8.218
REMARK INTRA:                  -0.828
REMARK UNBOUND:                -0.579
REMARK  Name = 
REMARK  5 active torsions:
REMARK  status: ('A' for Active; 'I' for Inactive)
REMARK    1  A    between atoms: C_1  and  O_2
REMARK    2  A    between atoms: O_2  and  C_3
REMARK    3  A    between atoms: C_7  and  C_8
REMARK    4  A    between atoms: C_8  and  N_9
REMARK    5  A    between atoms: C_10  and  C_12
REMARK                            x       y       z     vdW  Elec       q    Type
REMARK                         _______ _______ _______ _____ _____    ______ ____
ROOT
ATOM      1  N   UNL     1      47.000   4.543  15.942  0.00  0.00    +0.000 N 
ATOM      2  C   UNL     1      46.997   4.255  14.601  0.00  0.00    +0.000 C 
ATOM      3  O   UNL     1      47.224   3.129  14.167  0.00  0.00    +0.000 OA
ATOM      4  H   UNL     1      47.121   5.509  16.226  0.00  0.00    +0.000 HD
ENDROOT
BRANCH   2   5
ATOM      5  C   UNL     1      46.627   5.359  13.705  0.00  0.00    +0.000 A 
ATOM      6  C   UNL     1      45.432   5.307  12.997  0.00  0.00    +0.000 A 
ATOM      7  S   UNL     1      45.132   6.701  12.059  0.00  0.00    +0.000 S 
ATOM      8  C   UNL     1      46.617   7.397  12.519  0.00  0.00    +0.000 A 
ATOM      9  N   UNL     1      47.006   8.606  12.029  0.00  0.00    +0.000 NA
ATOM     10  C   UNL     1      48.170   8.994  12.434  0.00  0.00    +0.000 A 
ATOM     11  N   UNL     1      48.980   8.282  13.285  0.00  0.00    +0.000 N 
ATOM     12  C   UNL     1      48.608   7.078  13.831  0.00  0.00    +0.000 A 
ATOM     13  O   UNL     1      49.329   6.490  14.634  0.00  0.00    +0.000 OA
ATOM     14  C   UNL     1      47.317   6.590  13.393  0.00  0.00    +0.000 A 
ATOM     15  H   UNL     1      49.877   8.644  13.569  0.00  0.00    +0.000 HD
ENDBRANCH   2   5
BRANCH   1  16
ATOM     16  C   UNL     1      47.291   3.545  16.945  0.00  0.00    +0.000 C 
BRANCH  16  21
ATOM     17  C   UNL     1      50.856   2.221  17.360  0.00  0.00    +0.000 A 
ATOM     18  C   UNL     1      51.552   3.398  17.635  0.00  0.00    +0.000 A 
ATOM     19  C   UNL     1      50.871   4.608  17.742  0.00  0.00    +0.000 A 
ATOM     20  C   UNL     1      49.489   4.658  17.548  0.00  0.00    +0.000 A 
ATOM     21  C   UNL     1      48.771   3.491  17.242  0.00  0.00    +0.000 A 
ATOM     22  C   UNL     1      49.469   2.276  17.166  0.00  0.00    +0.000 A 
BRANCH  17  24
ATOM     23  C   UNL     1      52.815   0.898  17.497  0.00  0.00    +0.000 C 
ATOM     24  O   UNL     1      51.415   0.976  17.247  0.00  0.00    +0.000 OA
ENDBRANCH  17  24
ENDBRANCH  16  21
ENDBRANCH   1  16
TORSDOF 4
ENDMDL
MODEL 5
REMARK VINA RESULT:    -6.756      2.142      2.832
REMARK INTER + INTRA:          -8.914
REMARK INTER:                  -8.243
REMARK INTRA:                  -0.672
REMARK UNBOUND:                -0.579
REMARK  Name = 
REMARK  5 active torsions:
REMARK  status: ('A' for Active; 'I' for Inactive)
REMARK    1  A    between atoms: C_1  and  O_2
REMARK    2  A    between atoms: O_2  and  C_3
REMARK    3  A    between atoms: C_7  and  C_8
REMARK    4  A    between atoms: C_8  and  N_9
REMARK    5  A    between atoms: C_10  and  C_12
REMARK                            x       y       z     vdW  Elec       q    Type
REMARK                         _______ _______ _______ _____ _____    ______ ____
ROOT
ATOM      1  N   UNL     1      47.666   6.438  14.843  0.00  0.00    +0.000 N 
ATOM      2  C   UNL     1      47.768   6.230  13.492  0.00  0.00    +0.000 C 
ATOM      3  O   UNL     1      48.849   6.107  12.922  0.00  0.00    +0.000 OA
ATOM      4  H   UNL     1      46.806   6.839  15.204  0.00  0.00    +0.000 HD
ENDROOT
BRANCH   2   5
ATOM      5  C   UNL     1      46.500   6.084  12.763  0.00  0.00    +0.000 A 
ATOM      6  C   UNL     1      45.893   7.198  12.198  0.00  0.00    +0.000 A 
ATOM      7  S   UNL     1      44.466   6.835  11.334  0.00  0.00    +0.000 S 
ATOM      8  C   UNL     1      44.577   5.184  11.738  0.00  0.00    +0.000 A 
ATOM      9  N   UNL     1      43.626   4.298  11.334  0.00  0.00    +0.000 NA
ATOM     10  C   UNL     1      43.819   3.088  11.742  0.00  0.00    +0.000 A 
ATOM     11  N   UNL     1      44.877   2.683  12.519  0.00  0.00    +0.000 N 
ATOM     12  C   UNL     1      45.878   3.538  12.914  0.00  0.00    +0.000 A 
ATOM     13  O   UNL     1      46.843   3.136  13.561  0.00  0.00    +0.000 OA
ATOM     14  C   UNL     1      45.698   4.912  12.496  0.00  0.00    +0.000 A 
ATOM     15  H   UNL     1      44.974   1.720  12.800  0.00  0.00    +0.000 HD
ENDBRANCH   2   5
BRANCH   1  16
ATOM     16  C   UNL     1      48.826   6.548  15.697  0.00  0.00    +0.000 C 
BRANCH  16  21
ATOM     17  C   UNL     1      49.682   4.590  18.871  0.00  0.00    +0.000 A 
ATOM     18  C   UNL     1      48.708   3.592  18.845  0.00  0.00    +0.000 A 
ATOM     19  C   UNL     1      47.812   3.513  17.781  0.00  0.00    +0.000 A 
ATOM     20  C   UNL     1      47.863   4.449  16.746  0.00  0.00    +0.000 A 
ATOM     21  C   UNL     1      48.815   5.479  16.765  0.00  0.00    +0.000 A 
ATOM     22  C   UNL     1      49.729   5.527  17.829  0.00  0.00    +0.000 A 
BRANCH  17  24
ATOM     23  C   UNL     1      51.973   4.511  19.468  0.00  0.00    +0.000 C 
ATOM     24  O   UNL     1      50.623   4.756  19.851  0.00  0.00    +0.000 OA
ENDBRANCH  17  24
ENDBRANCH  16  21
ENDBRANCH   1  16
TORSDOF 4
ENDMDL
MODEL 6
REMARK VINA RESULT:    -6.319      2.987      6.972
REMARK INTER + INTRA:          -8.375
REMARK INTER:                  -7.512
REMARK INTRA:                  -0.863
REMARK UNBOUND:                -0.579
REMARK  Name = 
REMARK  5 active torsions:
REMARK  status: ('A' for Active; 'I' for Inactive)
REMARK    1  A    between atoms: C_1  and  O_2
REMARK    2  A    between atoms: O_2  and  C_3
REMARK    3  A    between atoms: C_7  and  C_8
REMARK    4  A    between atoms: C_8  and  N_9
REMARK    5  A    between atoms: C_10  and  C_12
REMARK                            x       y       z     vdW  Elec       q    Type
REMARK                         _______ _______ _______ _____ _____    ______ ____
ROOT
ATOM      1  N   UNL     1      46.736   6.746  12.630  0.00  0.00    +0.000 N 
ATOM      2  C   UNL     1      48.051   6.677  13.016  0.00  0.00    +0.000 C 
ATOM      3  O   UNL     1      48.980   6.811  12.224  0.00  0.00    +0.000 OA
ATOM      4  H   UNL     1      46.036   6.326  13.233  0.00  0.00    +0.000 HD
ENDROOT
BRANCH   2   5
ATOM      5  C   UNL     1      48.293   6.512  14.456  0.00  0.00    +0.000 A 
ATOM      6  C   UNL     1      49.024   7.467  15.150  0.00  0.00    +0.000 A 
ATOM      7  S   UNL     1      49.151   7.150  16.823  0.00  0.00    +0.000 S 
ATOM      8  C   UNL     1      48.283   5.693  16.667  0.00  0.00    +0.000 A 
ATOM      9  N   UNL     1      48.060   4.891  17.744  0.00  0.00    +0.000 NA
ATOM     10  C   UNL     1      47.422   3.802  17.472  0.00  0.00    +0.000 A 
ATOM     11  N   UNL     1      46.985   3.441  16.221  0.00  0.00    +0.000 N 
ATOM     12  C   UNL     1      47.155   4.240  15.117  0.00  0.00    +0.000 A 
ATOM     13  O   UNL     1      46.702   3.918  14.020  0.00  0.00    +0.000 OA
ATOM     14  C   UNL     1      47.882   5.467  15.366  0.00  0.00    +0.000 A 
ATOM     15  H   UNL     1      46.485   2.577  16.076  0.00  0.00    +0.000 HD
ENDBRANCH   2   5
BRANCH   1  16
ATOM     16  C   UNL     1      46.345   6.960  11.256  0.00  0.00    +0.000 C 
BRANCH  16  21
ATOM     17  C   UNL     1      44.242   3.784  10.906  0.00  0.00    +0.000 A 
ATOM     18  C   UNL     1      44.424   3.485   9.556  0.00  0.00    +0.000 A 
ATOM     19  C   UNL     1      45.266   4.270   8.770  0.00  0.00    +0.000 A 
ATOM     20  C   UNL     1      45.912   5.378   9.321  0.00  0.00    +0.000 A 
ATOM     21  C   UNL     1      45.722   5.715  10.670  0.00  0.00    +0.000 A 
ATOM     22  C   UNL     1      44.893   4.898  11.454  0.00  0.00    +0.000 A 
BRANCH  17  24
ATOM     23  C   UNL     1      43.275   3.658  13.065  0.00  0.00    +0.000 C 
ATOM     24  O   UNL     1      43.455   3.078  11.776  0.00  0.00    +0.000 OA
ENDBRANCH  17  24
ENDBRANCH  16  21
ENDBRANCH   1  16
TORSDOF 4
ENDMDL
MODEL 7
REMARK VINA RESULT:    -6.290      3.378      7.299
REMARK INTER + INTRA:          -8.340
REMARK INTER:                  -7.657
REMARK INTRA:                  -0.683
REMARK UNBOUND:                -0.579
REMARK  Name = 
REMARK  5 active torsions:
REMARK  status: ('A' for Active; 'I' for Inactive)
REMARK    1  A    between atoms: C_1  and  O_2
REMARK    2  A    between atoms: O_2  and  C_3
REMARK    3  A    between atoms: C_7  and  C_8
REMARK    4  A    between atoms: C_8  and  N_9
REMARK    5  A    between atoms: C_10  and  C_12
REMARK                            x       y       z     vdW  Elec       q    Type
REMARK                         _______ _______ _______ _____ _____    ______ ____
ROOT
ATOM      1  N   UNL     1      46.754   4.235  14.542  0.00  0.00    +0.000 N 
ATOM      2  C   UNL     1      47.613   3.818  15.526  0.00  0.00    +0.000 C 
ATOM      3  O   UNL     1      48.214   2.748  15.469  0.00  0.00    +0.000 OA
ATOM      4  H   UNL     1      46.065   4.942  14.774  0.00  0.00    +0.000 HD
ENDROOT
BRANCH   2   5
ATOM      5  C   UNL     1      47.840   4.763  16.629  0.00  0.00    +0.000 A 
ATOM      6  C   UNL     1      47.388   4.458  17.906  0.00  0.00    +0.000 A 
ATOM      7  S   UNL     1      47.794   5.634  19.075  0.00  0.00    +0.000 S 
ATOM      8  C   UNL     1      48.537   6.621  17.901  0.00  0.00    +0.000 A 
ATOM      9  N   UNL     1      49.074   7.825  18.237  0.00  0.00    +0.000 NA
ATOM     10  C   UNL     1      49.571   8.482  17.241  0.00  0.00    +0.000 A 
ATOM     11  N   UNL     1      49.579   8.043  15.940  0.00  0.00    +0.000 N 
ATOM     12  C   UNL     1      49.082   6.817  15.567  0.00  0.00    +0.000 A 
ATOM     13  O   UNL     1      49.154   6.426  14.404  0.00  0.00    +0.000 OA
ATOM     14  C   UNL     1      48.497   6.049  16.646  0.00  0.00    +0.000 A 
ATOM     15  H   UNL     1      49.988   8.601  15.207  0.00  0.00    +0.000 HD
ENDBRANCH   2   5
BRANCH   1  16
ATOM     16  C   UNL     1      46.476   3.436  13.370  0.00  0.00    +0.000 C 
BRANCH  16  21
ATOM     17  C   UNL     1      43.999   4.128  10.539  0.00  0.00    +0.000 A 
ATOM     18  C   UNL     1      43.028   4.877  11.204  0.00  0.00    +0.000 A 
ATOM     19  C   UNL     1      43.194   5.207  12.547  0.00  0.00    +0.000 A 
ATOM     20  C   UNL     1      44.321   4.768  13.246  0.00  0.00    +0.000 A 
ATOM     21  C   UNL     1      45.297   3.990  12.605  0.00  0.00    +0.000 A 
ATOM     22  C   UNL     1      45.128   3.691  11.244  0.00  0.00    +0.000 A 
BRANCH  17  24
ATOM     23  C   UNL     1      45.080   4.122   8.431  0.00  0.00    +0.000 C 
ATOM     24  O   UNL     1      43.952   3.760   9.221  0.00  0.00    +0.000 OA
ENDBRANCH  17  24
ENDBRANCH  16  21
ENDBRANCH   1  16
TORSDOF 4
ENDMDL
MODEL 8
REMARK VINA RESULT:    -6.269      3.023      3.730
REMARK INTER + INTRA:          -8.314
REMARK INTER:                  -7.820
REMARK INTRA:                  -0.494
REMARK UNBOUND:                -0.579
REMARK  Name = 
REMARK  5 active torsions:
REMARK  status: ('A' for Active; 'I' for Inactive)
REMARK    1  A    between atoms: C_1  and  O_2
REMARK    2  A    between atoms: O_2  and  C_3
REMARK    3  A    between atoms: C_7  and  C_8
REMARK    4  A    between atoms: C_8  and  N_9
REMARK    5  A    between atoms: C_10  and  C_12
REMARK                            x       y       z     vdW  Elec       q    Type
REMARK                         _______ _______ _______ _____ _____    ______ ____
ROOT
ATOM      1  N   UNL     1      47.726   6.336  15.014  0.00  0.00    +0.000 N 
ATOM      2  C   UNL     1      47.830   6.234  13.651  0.00  0.00    +0.000 C 
ATOM      3  O   UNL     1      48.913   6.179  13.073  0.00  0.00    +0.000 OA
ATOM      4  H   UNL     1      46.858   6.688  15.405  0.00  0.00    +0.000 HD
ENDROOT
BRANCH   2   5
ATOM      5  C   UNL     1      46.564   6.115  12.913  0.00  0.00    +0.000 A 
ATOM      6  C   UNL     1      45.961   7.249  12.385  0.00  0.00    +0.000 A 
ATOM      7  S   UNL     1      44.536   6.919  11.504  0.00  0.00    +0.000 S 
ATOM      8  C   UNL     1      44.644   5.255  11.850  0.00  0.00    +0.000 A 
ATOM      9  N   UNL     1      43.694   4.384  11.413  0.00  0.00    +0.000 NA
ATOM     10  C   UNL     1      43.884   3.161  11.779  0.00  0.00    +0.000 A 
ATOM     11  N   UNL     1      44.938   2.728  12.544  0.00  0.00    +0.000 N 
ATOM     12  C   UNL     1      45.938   3.566  12.973  0.00  0.00    +0.000 A 
ATOM     13  O   UNL     1      46.901   3.140  13.609  0.00  0.00    +0.000 OA
ATOM     14  C   UNL     1      45.762   4.955  12.603  0.00  0.00    +0.000 A 
ATOM     15  H   UNL     1      45.033   1.755  12.793  0.00  0.00    +0.000 HD
ENDBRANCH   2   5
BRANCH   1  16
ATOM     16  C   UNL     1      48.885   6.406  15.874  0.00  0.00    +0.000 C 
BRANCH  16  21
ATOM     17  C   UNL     1      47.979   6.563  19.587  0.00  0.00    +0.000 A 
ATOM     18  C   UNL     1      47.989   7.939  19.811  0.00  0.00    +0.000 A 
ATOM     19  C   UNL     1      48.231   8.821  18.760  0.00  0.00    +0.000 A 
ATOM     20  C   UNL     1      48.494   8.331  17.478  0.00  0.00    +0.000 A 
ATOM     21  C   UNL     1      48.518   6.950  17.235  0.00  0.00    +0.000 A 
ATOM     22  C   UNL     1      48.242   6.077  18.299  0.00  0.00    +0.000 A 
BRANCH  17  24
ATOM     23  C   UNL     1      48.795   4.682  20.773  0.00  0.00    +0.000 C 
ATOM     24  O   UNL     1      47.737   5.606  20.536  0.00  0.00    +0.000 OA
ENDBRANCH  17  24
ENDBRANCH  16  21
ENDBRANCH   1  16
TORSDOF 4
ENDMDL
MODEL 9
REMARK VINA RESULT:    -6.193      2.732      3.740
REMARK INTER + INTRA:          -8.220
REMARK INTER:                  -7.407
REMARK INTRA:                  -0.814
REMARK UNBOUND:                -0.579
REMARK  Name = 
REMARK  5 active torsions:
REMARK  status: ('A' for Active; 'I' for Inactive)
REMARK    1  A    between atoms: C_1  and  O_2
REMARK    2  A    between atoms: O_2  and  C_3
REMARK    3  A    between atoms: C_7  and  C_8
REMARK    4  A    between atoms: C_8  and  N_9
REMARK    5  A    between atoms: C_10  and  C_12
REMARK                            x       y       z     vdW  Elec       q    Type
REMARK                         _______ _______ _______ _____ _____    ______ ____
ROOT
ATOM      1  N   UNL     1      47.594   6.149  12.647  0.00  0.00    +0.000 N 
ATOM      2  C   UNL     1      46.582   6.636  11.860  0.00  0.00    +0.000 C 
ATOM      3  O   UNL     1      46.348   7.837  11.752  0.00  0.00    +0.000 OA
ATOM      4  H   UNL     1      47.547   5.181  12.946  0.00  0.00    +0.000 HD
ENDROOT
BRANCH   2   5
ATOM      5  C   UNL     1      45.833   5.639  11.082  0.00  0.00    +0.000 A 
ATOM      6  C   UNL     1      45.870   5.674   9.693  0.00  0.00    +0.000 A 
ATOM      7  S   UNL     1      45.000   4.404   8.954  0.00  0.00    +0.000 S 
ATOM      8  C   UNL     1      44.494   3.800  10.464  0.00  0.00    +0.000 A 
ATOM      9  N   UNL     1      43.674   2.717  10.547  0.00  0.00    +0.000 NA
ATOM     10  C   UNL     1      43.342   2.392  11.752  0.00  0.00    +0.000 A 
ATOM     11  N   UNL     1      43.756   3.052  12.883  0.00  0.00    +0.000 N 
ATOM     12  C   UNL     1      44.614   4.124  12.845  0.00  0.00    +0.000 A 
ATOM     13  O   UNL     1      45.014   4.659  13.877  0.00  0.00    +0.000 OA
ATOM     14  C   UNL     1      45.002   4.539  11.513  0.00  0.00    +0.000 A 
ATOM     15  H   UNL     1      43.466   2.743  13.798  0.00  0.00    +0.000 HD
ENDBRANCH   2   5
BRANCH   1  16
ATOM     16  C   UNL     1      48.450   7.014  13.426  0.00  0.00    +0.000 C 
BRANCH  16  21
ATOM     17  C   UNL     1      48.046   4.952  16.623  0.00  0.00    +0.000 A 
ATOM     18  C   UNL     1      48.502   5.853  17.586  0.00  0.00    +0.000 A 
ATOM     19  C   UNL     1      48.887   7.140  17.218  0.00  0.00    +0.000 A 
ATOM     20  C   UNL     1      48.845   7.531  15.878  0.00  0.00    +0.000 A 
ATOM     21  C   UNL     1      48.418   6.633  14.888  0.00  0.00    +0.000 A 
ATOM     22  C   UNL     1      48.006   5.350  15.280  0.00  0.00    +0.000 A 
BRANCH  17  24
ATOM     23  C   UNL     1      48.142   3.065  18.051  0.00  0.00    +0.000 C 
ATOM     24  O   UNL     1      47.628   3.672  16.869  0.00  0.00    +0.000 OA
ENDBRANCH  17  24
ENDBRANCH  16  21
ENDBRANCH   1  16
TORSDOF 4
ENDMDL
