MODEL 1
REMARK VINA RESULT:    -8.093      0.000      0.000
REMARK INTER + INTRA:         -11.656
REMARK INTER:                 -11.405
REMARK INTRA:                  -0.250
REMARK UNBOUND:                -0.250
REMARK  Name = 
REMARK  8 active torsions:
REMARK  status: ('A' for Active; 'I' for Inactive)
REMARK    1  A    between atoms: C_1  and  O_2
REMARK    2  A    between atoms: O_2  and  C_3
REMARK    3  A    between atoms: C_3  and  C_4
REMARK    4  A    between atoms: C_4  and  N_5
REMARK    5  A    between atoms: C_4  and  C_18
REMARK    6  A    between atoms: C_6  and  C_8
REMARK    7  A    between atoms: C_21  and  O_22
REMARK    8  A    between atoms: O_22  and  C_23
REMARK                            x       y       z     vdW  Elec       q    Type
REMARK                         _______ _______ _______ _____ _____    ______ ____
ROOT
ATOM      1  C   UNL     1      46.647   7.723  12.825  0.00  0.00    +0.000 C 
ENDROOT
BRANCH   1   2
ATOM      2  C   UNL     1      46.125   6.544  12.017  0.00  0.00    +0.000 A 
ATOM      3  C   UNL     1      45.365   5.552  12.642  0.00  0.00    +0.000 A 
ATOM      4  C   UNL     1      44.841   4.493  11.900  0.00  0.00    +0.000 A 
ATOM      5  C   UNL     1      45.019   4.443  10.513  0.00  0.00    +0.000 A 
ATOM      6  C   UNL     1      45.813   5.395   9.888  0.00  0.00    +0.000 A 
ATOM      7  C   UNL     1      46.371   6.432  10.636  0.00  0.00    +0.000 A 
BRANCH   5   8
ATOM      8  O   UNL     1      44.489   3.458   9.712  0.00  0.00    +0.000 OA
BRANCH   8   9
ATOM      9  C   UNL     1      45.292   2.941   8.701  0.00  0.00    +0.000 A 
ATOM     10  C   UNL     1      45.712   3.839   7.729  0.00  0.00    +0.000 A 
ATOM     11  C   UNL     1      46.559   3.376   6.727  0.00  0.00    +0.000 A 
ATOM     12  C   UNL     1      46.953   2.042   6.732  0.00  0.00    +0.000 A 
ATOM     13  C   UNL     1      46.453   1.223   7.729  0.00  0.00    +0.000 A 
ATOM     14 CL   UNL     1      46.914  -0.426   7.832  0.00  0.00    +0.000 Cl
ATOM     15  N   UNL     1      45.620   1.631   8.699  0.00  0.00    +0.000 NA
ENDBRANCH   8   9
ENDBRANCH   5   8
ENDBRANCH   1   2
BRANCH   1  16
ATOM     16  N   UNL     1      47.189   7.247  14.089  0.00  0.00    +0.000 N 
ATOM     17  C   UNL     1      48.458   6.764  14.255  0.00  0.00    +0.000 C 
ATOM     18  O   UNL     1      49.309   6.793  13.373  0.00  0.00    +0.000 OA
ATOM     19  H   UNL     1      46.505   7.073  14.811  0.00  0.00    +0.000 HD
BRANCH  17  20
ATOM     20  C   UNL     1      48.758   6.256  15.604  0.00  0.00    +0.000 A 
ATOM     21  C   UNL     1      49.659   6.927  16.420  0.00  0.00    +0.000 A 
ATOM     22  S   UNL     1      49.851   6.212  17.957  0.00  0.00    +0.000 S 
ATOM     23  C   UNL     1      48.784   4.944  17.566  0.00  0.00    +0.000 A 
ATOM     24  N   UNL     1      48.525   3.944  18.453  0.00  0.00    +0.000 NA
ATOM     25  C   UNL     1      47.741   3.021  18.003  0.00  0.00    +0.000 A 
ATOM     26  N   UNL     1      47.184   3.014  16.751  0.00  0.00    +0.000 N 
ATOM     27  C   UNL     1      47.327   4.058  15.871  0.00  0.00    +0.000 A 
ATOM     28  O   UNL     1      46.654   4.103  14.848  0.00  0.00    +0.000 OA
ATOM     29  C   UNL     1      48.260   5.086  16.294  0.00  0.00    +0.000 A 
ATOM     30  H   UNL     1      46.543   2.286  16.473  0.00  0.00    +0.000 HD
ENDBRANCH  17  20
ENDBRANCH   1  16
BRANCH   1  31
ATOM     31  C   UNL     1      45.512   8.742  13.070  0.00  0.00    +0.000 C 
BRANCH  31  33
ATOM     32  C   UNL     1      47.026  10.267  12.103  0.00  0.00    +0.000 C 
ATOM     33  O   UNL     1      45.661   9.887  12.222  0.00  0.00    +0.000 OA
ENDBRANCH  31  33
ENDBRANCH   1  31
TORSDOF 7
ENDMDL
MODEL 2
REMARK VINA RESULT:    -7.777      2.232      4.602
REMARK INTER + INTRA:         -11.210
REMARK INTER:                 -10.004
REMARK INTRA:                  -1.206
REMARK UNBOUND:                -0.250
REMARK  Name = 
REMARK  8 active torsions:
REMARK  status: ('A' for Active; 'I' for Inactive)
REMARK    1  A    between atoms: C_1  and  O_2
REMARK    2  A    between atoms: O_2  and  C_3
REMARK    3  A    between atoms: C_3  and  C_4
REMARK    4  A    between atoms: C_4  and  N_5
REMARK    5  A    between atoms: C_4  and  C_18
REMARK    6  A    between atoms: C_6  and  C_8
REMARK    7  A    between atoms: C_21  and  O_22
REMARK    8  A    between atoms: O_22  and  C_23
REMARK                            x       y       z     vdW  Elec       q    Type
REMARK                         _______ _______ _______ _____ _____    ______ ____
ROOT
ATOM      1  C   UNL     1      46.884   5.344  14.398  0.00  0.00    +0.000 C 
ENDROOT
BRANCH   1   2
ATOM      2  C   UNL     1      46.168   4.874  13.141  0.00  0.00    +0.000 A 
ATOM      3  C   UNL     1      45.929   5.770  12.096  0.00  0.00    +0.000 A 
ATOM      4  C   UNL     1      45.317   5.336  10.920  0.00  0.00    +0.000 A 
ATOM      5  C   UNL     1      44.988   3.987  10.748  0.00  0.00    +0.000 A 
ATOM      6  C   UNL     1      45.175   3.096  11.797  0.00  0.00    +0.000 A 
ATOM      7  C   UNL     1      45.750   3.538  12.988  0.00  0.00    +0.000 A 
BRANCH   5   8
ATOM      8  O   UNL     1      44.430   3.479   9.598  0.00  0.00    +0.000 OA
BRANCH   8   9
ATOM      9  C   UNL     1      45.288   2.975   8.626  0.00  0.00    +0.000 A 
ATOM     10  C   UNL     1      45.801   3.896   7.723  0.00  0.00    +0.000 A 
ATOM     11  C   UNL     1      46.705   3.445   6.765  0.00  0.00    +0.000 A 
ATOM     12  C   UNL     1      47.059   2.099   6.744  0.00  0.00    +0.000 A 
ATOM     13  C   UNL     1      46.466   1.260   7.671  0.00  0.00    +0.000 A 
ATOM     14 CL   UNL     1      46.871  -0.405   7.741  0.00  0.00    +0.000 Cl
ATOM     15  N   UNL     1      45.577   1.658   8.596  0.00  0.00    +0.000 NA
ENDBRANCH   8   9
ENDBRANCH   5   8
ENDBRANCH   1   2
BRANCH   1  16
ATOM     16  N   UNL     1      48.048   6.138  14.029  0.00  0.00    +0.000 N 
ATOM     17  C   UNL     1      48.724   6.964  14.884  0.00  0.00    +0.000 C 
ATOM     18  O   UNL     1      48.485   7.031  16.084  0.00  0.00    +0.000 OA
ATOM     19  H   UNL     1      48.207   6.229  13.036  0.00  0.00    +0.000 HD
BRANCH  17  20
ATOM     20  C   UNL     1      49.816   7.735  14.267  0.00  0.00    +0.000 A 
ATOM     21  C   UNL     1      51.101   7.667  14.788  0.00  0.00    +0.000 A 
ATOM     22  S   UNL     1      52.240   8.597  13.922  0.00  0.00    +0.000 S 
ATOM     23  C   UNL     1      51.044   9.175  12.856  0.00  0.00    +0.000 A 
ATOM     24  N   UNL     1      51.351  10.061  11.868  0.00  0.00    +0.000 NA
ATOM     25  C   UNL     1      50.338  10.454  11.171  0.00  0.00    +0.000 A 
ATOM     26  N   UNL     1      49.048  10.034  11.364  0.00  0.00    +0.000 N 
ATOM     27  C   UNL     1      48.716   9.058  12.269  0.00  0.00    +0.000 A 
ATOM     28  O   UNL     1      47.591   8.569  12.270  0.00  0.00    +0.000 OA
ATOM     29  C   UNL     1      49.801   8.635  13.134  0.00  0.00    +0.000 A 
ATOM     30  H   UNL     1      48.305  10.345  10.756  0.00  0.00    +0.000 HD
ENDBRANCH  17  20
ENDBRANCH   1  16
BRANCH   1  31
ATOM     31  C   UNL     1      47.304   4.129  15.254  0.00  0.00    +0.000 C 
BRANCH  31  33
ATOM     32  C   UNL     1      47.334   3.942  17.604  0.00  0.00    +0.000 C 
ATOM     33  O   UNL     1      46.514   4.047  16.447  0.00  0.00    +0.000 OA
ENDBRANCH  31  33
ENDBRANCH   1  31
TORSDOF 7
ENDMDL
MODEL 3
REMARK VINA RESULT:    -7.707      4.931      9.553
REMARK INTER + INTRA:         -11.111
REMARK INTER:                  -9.882
REMARK INTRA:                  -1.229
REMARK UNBOUND:                -0.250
REMARK  Name = 
REMARK  8 active torsions:
REMARK  status: ('A' for Active; 'I' for Inactive)
REMARK    1  A    between atoms: C_1  and  O_2
REMARK    2  A    between atoms: O_2  and  C_3
REMARK    3  A    between atoms: C_3  and  C_4
REMARK    4  A    between atoms: C_4  and  N_5
REMARK    5  A    between atoms: C_4  and  C_18
REMARK    6  A    between atoms: C_6  and  C_8
REMARK    7  A    between atoms: C_21  and  O_22
REMARK    8  A    between atoms: O_22  and  C_23
REMARK                            x       y       z     vdW  Elec       q    Type
REMARK                         _______ _______ _______ _____ _____    ______ ____
ROOT
ATOM      1  C   UNL     1      48.358   4.561  16.168  0.00  0.00    +0.000 C 
ENDROOT
BRANCH   1   2
ATOM      2  C   UNL     1      48.282   5.592  17.284  0.00  0.00    +0.000 A 
ATOM      3  C   UNL     1      47.325   5.460  18.293  0.00  0.00    +0.000 A 
ATOM      4  C   UNL     1      47.279   6.374  19.346  0.00  0.00    +0.000 A 
ATOM      5  C   UNL     1      48.228   7.398  19.437  0.00  0.00    +0.000 A 
ATOM      6  C   UNL     1      49.152   7.570  18.416  0.00  0.00    +0.000 A 
ATOM      7  C   UNL     1      49.173   6.681  17.342  0.00  0.00    +0.000 A 
BRANCH   5   8
ATOM      8  O   UNL     1      48.275   8.303  20.472  0.00  0.00    +0.000 OA
BRANCH   8   9
ATOM      9  C   UNL     1      47.426   9.403  20.413  0.00  0.00    +0.000 A 
ATOM     10  C   UNL     1      46.468   9.495  21.413  0.00  0.00    +0.000 A 
ATOM     11  C   UNL     1      45.631  10.607  21.423  0.00  0.00    +0.000 A 
ATOM     12  C   UNL     1      45.780  11.579  20.439  0.00  0.00    +0.000 A 
ATOM     13  C   UNL     1      46.746  11.376  19.469  0.00  0.00    +0.000 A 
ATOM     14 CL   UNL     1      47.022  12.539  18.240  0.00  0.00    +0.000 Cl
ATOM     15  N   UNL     1      47.557  10.307  19.419  0.00  0.00    +0.000 NA
ENDBRANCH   8   9
ENDBRANCH   5   8
ENDBRANCH   1   2
BRANCH   1  16
ATOM     16  N   UNL     1      47.358   4.864  15.154  0.00  0.00    +0.000 N 
ATOM     17  C   UNL     1      47.578   5.661  14.064  0.00  0.00    +0.000 C 
ATOM     18  O   UNL     1      48.681   6.108  13.769  0.00  0.00    +0.000 OA
ATOM     19  H   UNL     1      46.407   4.640  15.409  0.00  0.00    +0.000 HD
BRANCH  17  20
ATOM     20  C   UNL     1      46.395   5.898  13.220  0.00  0.00    +0.000 A 
ATOM     21  C   UNL     1      46.047   7.191  12.851  0.00  0.00    +0.000 A 
ATOM     22  S   UNL     1      44.671   7.267  11.845  0.00  0.00    +0.000 S 
ATOM     23  C   UNL     1      44.453   5.580  11.917  0.00  0.00    +0.000 A 
ATOM     24  N   UNL     1      43.409   4.978  11.283  0.00  0.00    +0.000 NA
ATOM     25  C   UNL     1      43.336   3.702  11.467  0.00  0.00    +0.000 A 
ATOM     26  N   UNL     1      44.220   2.972  12.219  0.00  0.00    +0.000 N 
ATOM     27  C   UNL     1      45.347   3.520  12.776  0.00  0.00    +0.000 A 
ATOM     28  O   UNL     1      46.210   2.801  13.266  0.00  0.00    +0.000 OA
ATOM     29  C   UNL     1      45.439   4.964  12.666  0.00  0.00    +0.000 A 
ATOM     30  H   UNL     1      44.135   1.969  12.289  0.00  0.00    +0.000 HD
ENDBRANCH  17  20
ENDBRANCH   1  16
BRANCH   1  31
ATOM     31  C   UNL     1      48.137   3.143  16.741  0.00  0.00    +0.000 C 
BRANCH  31  33
ATOM     32  C   UNL     1      50.194   2.022  17.001  0.00  0.00    +0.000 C 
ATOM     33  O   UNL     1      49.059   2.210  16.165  0.00  0.00    +0.000 OA
ENDBRANCH  31  33
ENDBRANCH   1  31
TORSDOF 7
ENDMDL
MODEL 4
REMARK VINA RESULT:    -7.682      3.932      7.829
REMARK INTER + INTRA:         -11.076
REMARK INTER:                  -9.799
REMARK INTRA:                  -1.276
REMARK UNBOUND:                -0.250
REMARK  Name = 
REMARK  8 active torsions:
REMARK  status: ('A' for Active; 'I' for Inactive)
REMARK    1  A    between atoms: C_1  and  O_2
REMARK    2  A    between atoms: O_2  and  C_3
REMARK    3  A    between atoms: C_3  and  C_4
REMARK    4  A    between atoms: C_4  and  N_5
REMARK    5  A    between atoms: C_4  and  C_18
REMARK    6  A    between atoms: C_6  and  C_8
REMARK    7  A    between atoms: C_21  and  O_22
REMARK    8  A    between atoms: O_22  and  C_23
REMARK                            x       y       z     vdW  Elec       q    Type
REMARK                         _______ _______ _______ _____ _____    ______ ____
ROOT
ATOM      1  C   UNL     1      48.218   7.291  13.312  0.00  0.00    +0.000 C 
ENDROOT
BRANCH   1   2
ATOM      2  C   UNL     1      48.499   6.589  14.632  0.00  0.00    +0.000 A 
ATOM      3  C   UNL     1      47.686   5.530  15.046  0.00  0.00    +0.000 A 
ATOM      4  C   UNL     1      47.965   4.849  16.231  0.00  0.00    +0.000 A 
ATOM      5  C   UNL     1      49.094   5.177  16.989  0.00  0.00    +0.000 A 
ATOM      6  C   UNL     1      49.880   6.259  16.616  0.00  0.00    +0.000 A 
ATOM      7  C   UNL     1      49.579   6.966  15.452  0.00  0.00    +0.000 A 
BRANCH   5   8
ATOM      8  O   UNL     1      49.458   4.517  18.140  0.00  0.00    +0.000 OA
BRANCH   8   9
ATOM      9  C   UNL     1      50.533   3.637  18.071  0.00  0.00    +0.000 A 
ATOM     10  C   UNL     1      50.293   2.421  17.446  0.00  0.00    +0.000 A 
ATOM     11  C   UNL     1      51.353   1.530  17.309  0.00  0.00    +0.000 A 
ATOM     12  C   UNL     1      52.606   1.884  17.799  0.00  0.00    +0.000 A 
ATOM     13  C   UNL     1      52.731   3.108  18.433  0.00  0.00    +0.000 A 
ATOM     14 CL   UNL     1      54.246   3.640  19.035  0.00  0.00    +0.000 Cl
ATOM     15  N   UNL     1      51.726   3.982  18.599  0.00  0.00    +0.000 NA
ENDBRANCH   8   9
ENDBRANCH   5   8
ENDBRANCH   1   2
BRANCH   1  16
ATOM     16  N   UNL     1      47.480   6.398  12.431  0.00  0.00    +0.000 N 
ATOM     17  C   UNL     1      46.354   6.750  11.739  0.00  0.00    +0.000 C 
ATOM     18  O   UNL     1      45.918   7.895  11.701  0.00  0.00    +0.000 OA
ATOM     19  H   UNL     1      47.707   5.418  12.525  0.00  0.00    +0.000 HD
BRANCH  17  20
ATOM     20  C   UNL     1      45.726   5.657  10.979  0.00  0.00    +0.000 A 
ATOM     21  C   UNL     1      45.827   5.618   9.594  0.00  0.00    +0.000 A 
ATOM     22  S   UNL     1      45.069   4.261   8.892  0.00  0.00    +0.000 S 
ATOM     23  C   UNL     1      44.524   3.707  10.407  0.00  0.00    +0.000 A 
ATOM     24  N   UNL     1      43.766   2.580  10.514  0.00  0.00    +0.000 NA
ATOM     25  C   UNL     1      43.379   2.309  11.715  0.00  0.00    +0.000 A 
ATOM     26  N   UNL     1      43.690   3.056  12.821  0.00  0.00    +0.000 N 
ATOM     27  C   UNL     1      44.543   4.130  12.774  0.00  0.00    +0.000 A 
ATOM     28  O   UNL     1      44.952   4.643  13.809  0.00  0.00    +0.000 OA
ATOM     29  C   UNL     1      44.948   4.526  11.438  0.00  0.00    +0.000 A 
ATOM     30  H   UNL     1      43.393   2.767  13.741  0.00  0.00    +0.000 HD
ENDBRANCH  17  20
ENDBRANCH   1  16
BRANCH   1  31
ATOM     31  C   UNL     1      49.546   7.729  12.653  0.00  0.00    +0.000 C 
BRANCH  31  33
ATOM     32  C   UNL     1      48.986   9.731  11.542  0.00  0.00    +0.000 C 
ATOM     33  O   UNL     1      49.305   8.355  11.387  0.00  0.00    +0.000 OA
ENDBRANCH  31  33
ENDBRANCH   1  31
TORSDOF 7
ENDMDL
MODEL 5
REMARK VINA RESULT:    -7.629      3.882      6.020
REMARK INTER + INTRA:         -11.001
REMARK INTER:                 -10.003
REMARK INTRA:                  -0.998
REMARK UNBOUND:                -0.250
REMARK  Name = 
REMARK  8 active torsions:
REMARK  status: ('A' for Active; 'I' for Inactive)
REMARK    1  A    between atoms: C_1  and  O_2
REMARK    2  A    between atoms: O_2  and  C_3
REMARK    3  A    between atoms: C_3  and  C_4
REMARK    4  A    between atoms: C_4  and  N_5
REMARK    5  A    between atoms: C_4  and  C_18
REMARK    6  A    between atoms: C_6  and  C_8
REMARK    7  A    between atoms: C_21  and  O_22
REMARK    8  A    between atoms: O_22  and  C_23
REMARK                            x       y       z     vdW  Elec       q    Type
REMARK                         _______ _______ _______ _____ _____    ______ ____
ROOT
ATOM      1  C   UNL     1      46.203   4.985  14.010  0.00  0.00    +0.000 C 
ENDROOT
BRANCH   1   2
ATOM      2  C   UNL     1      46.070   6.319  13.290  0.00  0.00    +0.000 A 
ATOM      3  C   UNL     1      44.955   6.572  12.487  0.00  0.00    +0.000 A 
ATOM      4  C   UNL     1      44.801   7.810  11.862  0.00  0.00    +0.000 A 
ATOM      5  C   UNL     1      45.729   8.834  12.079  0.00  0.00    +0.000 A 
ATOM      6  C   UNL     1      46.867   8.580  12.834  0.00  0.00    +0.000 A 
ATOM      7  C   UNL     1      47.042   7.329  13.426  0.00  0.00    +0.000 A 
BRANCH   5   8
ATOM      8  O   UNL     1      45.615  10.093  11.538  0.00  0.00    +0.000 OA
BRANCH   8   9
ATOM      9  C   UNL     1      44.366  10.488  11.070  0.00  0.00    +0.000 A 
ATOM     10  C   UNL     1      44.196  10.483   9.692  0.00  0.00    +0.000 A 
ATOM     11  C   UNL     1      42.946  10.821   9.182  0.00  0.00    +0.000 A 
ATOM     12  C   UNL     1      41.920  11.152  10.061  0.00  0.00    +0.000 A 
ATOM     13  C   UNL     1      42.203  11.156  11.415  0.00  0.00    +0.000 A 
ATOM     14 CL   UNL     1      40.989  11.516  12.570  0.00  0.00    +0.000 Cl
ATOM     15  N   UNL     1      43.402  10.853  11.940  0.00  0.00    +0.000 NA
ENDBRANCH   8   9
ENDBRANCH   5   8
ENDBRANCH   1   2
BRANCH   1  16
ATOM     16  N   UNL     1      47.309   5.048  14.955  0.00  0.00    +0.000 N 
ATOM     17  C   UNL     1      47.336   4.400  16.159  0.00  0.00    +0.000 C 
ATOM     18  O   UNL     1      46.474   3.603  16.513  0.00  0.00    +0.000 OA
ATOM     19  H   UNL     1      47.977   5.786  14.784  0.00  0.00    +0.000 HD
BRANCH  17  20
ATOM     20  C   UNL     1      48.519   4.681  16.988  0.00  0.00    +0.000 A 
ATOM     21  C   UNL     1      48.657   5.913  17.615  0.00  0.00    +0.000 A 
ATOM     22  S   UNL     1      50.072   6.043  18.561  0.00  0.00    +0.000 S 
ATOM     23  C   UNL     1      50.582   4.480  18.117  0.00  0.00    +0.000 A 
ATOM     24  N   UNL     1      51.764   3.972  18.566  0.00  0.00    +0.000 NA
ATOM     25  C   UNL     1      52.049   2.799  18.107  0.00  0.00    +0.000 A 
ATOM     26  N   UNL     1      51.255   2.084  17.249  0.00  0.00    +0.000 N 
ATOM     27  C   UNL     1      50.008   2.509  16.867  0.00  0.00    +0.000 A 
ATOM     28  O   UNL     1      49.252   1.754  16.266  0.00  0.00    +0.000 OA
ATOM     29  C   UNL     1      49.667   3.854  17.290  0.00  0.00    +0.000 A 
ATOM     30  H   UNL     1      51.513   1.152  16.961  0.00  0.00    +0.000 HD
ENDBRANCH  17  20
ENDBRANCH   1  16
BRANCH   1  31
ATOM     31  C   UNL     1      46.428   3.851  12.985  0.00  0.00    +0.000 C 
BRANCH  31  33
ATOM     32  C   UNL     1      44.692   3.104  11.577  0.00  0.00    +0.000 C 
ATOM     33  O   UNL     1      45.264   3.023  12.876  0.00  0.00    +0.000 OA
ENDBRANCH  31  33
ENDBRANCH   1  31
TORSDOF 7
ENDMDL
MODEL 6
REMARK VINA RESULT:    -7.527      2.311      3.303
REMARK INTER + INTRA:         -10.858
REMARK INTER:                  -9.159
REMARK INTRA:                  -1.699
REMARK UNBOUND:                -0.250
REMARK  Name = 
REMARK  8 active torsions:
REMARK  status: ('A' for Active; 'I' for Inactive)
REMARK    1  A    between atoms: C_1  and  O_2
REMARK    2  A    between atoms: O_2  and  C_3
REMARK    3  A    between atoms: C_3  and  C_4
REMARK    4  A    between atoms: C_4  and  N_5
REMARK    5  A    between atoms: C_4  and  C_18
REMARK    6  A    between atoms: C_6  and  C_8
REMARK    7  A    between atoms: C_21  and  O_22
REMARK    8  A    between atoms: O_22  and  C_23
REMARK                            x       y       z     vdW  Elec       q    Type
REMARK                         _______ _______ _______ _____ _____    ______ ____
ROOT
ATOM      1  C   UNL     1      49.026   8.572  14.363  0.00  0.00    +0.000 C 
ENDROOT
BRANCH   1   2
ATOM      2  C   UNL     1      47.920   8.137  13.413  0.00  0.00    +0.000 A 
ATOM      3  C   UNL     1      48.146   7.095  12.510  0.00  0.00    +0.000 A 
ATOM      4  C   UNL     1      47.123   6.657  11.668  0.00  0.00    +0.000 A 
ATOM      5  C   UNL     1      45.843   7.214  11.759  0.00  0.00    +0.000 A 
ATOM      6  C   UNL     1      45.619   8.283  12.617  0.00  0.00    +0.000 A 
ATOM      7  C   UNL     1      46.652   8.748  13.430  0.00  0.00    +0.000 A 
BRANCH   5   8
ATOM      8  O   UNL     1      44.775   6.799  10.999  0.00  0.00    +0.000 OA
BRANCH   8   9
ATOM      9  C   UNL     1      44.387   5.466  11.095  0.00  0.00    +0.000 A 
ATOM     10  C   UNL     1      43.740   5.097  12.266  0.00  0.00    +0.000 A 
ATOM     11  C   UNL     1      43.289   3.786  12.384  0.00  0.00    +0.000 A 
ATOM     12  C   UNL     1      43.500   2.897  11.335  0.00  0.00    +0.000 A 
ATOM     13  C   UNL     1      44.182   3.359  10.223  0.00  0.00    +0.000 A 
ATOM     14 CL   UNL     1      44.454   2.342   8.869  0.00  0.00    +0.000 Cl
ATOM     15  N   UNL     1      44.648   4.611  10.084  0.00  0.00    +0.000 NA
ENDBRANCH   8   9
ENDBRANCH   5   8
ENDBRANCH   1   2
BRANCH   1  16
ATOM     16  N   UNL     1      49.081   7.663  15.498  0.00  0.00    +0.000 N 
ATOM     17  C   UNL     1      50.198   6.975  15.886  0.00  0.00    +0.000 C 
ATOM     18  O   UNL     1      51.302   7.146  15.383  0.00  0.00    +0.000 OA
ATOM     19  H   UNL     1      48.183   7.379  15.864  0.00  0.00    +0.000 HD
BRANCH  17  20
ATOM     20  C   UNL     1      49.994   6.045  17.009  0.00  0.00    +0.000 A 
ATOM     21  C   UNL     1      50.794   6.130  18.142  0.00  0.00    +0.000 A 
ATOM     22  S   UNL     1      50.388   4.996  19.350  0.00  0.00    +0.000 S 
ATOM     23  C   UNL     1      49.169   4.309  18.380  0.00  0.00    +0.000 A 
ATOM     24  N   UNL     1      48.438   3.246  18.816  0.00  0.00    +0.000 NA
ATOM     25  C   UNL     1      47.587   2.795  17.956  0.00  0.00    +0.000 A 
ATOM     26  N   UNL     1      47.392   3.317  16.704  0.00  0.00    +0.000 N 
ATOM     27  C   UNL     1      48.024   4.456  16.271  0.00  0.00    +0.000 A 
ATOM     28  O   UNL     1      47.675   5.001  15.231  0.00  0.00    +0.000 OA
ATOM     29  C   UNL     1      49.048   4.961  17.166  0.00  0.00    +0.000 A 
ATOM     30  H   UNL     1      46.679   2.947  16.094  0.00  0.00    +0.000 HD
ENDBRANCH  17  20
ENDBRANCH   1  16
BRANCH   1  31
ATOM     31  C   UNL     1      48.776  10.021  14.839  0.00  0.00    +0.000 C 
BRANCH  31  33
ATOM     32  C   UNL     1      50.888  10.392  13.860  0.00  0.00    +0.000 C 
ATOM     33  O   UNL     1      49.604  10.944  14.121  0.00  0.00    +0.000 OA
ENDBRANCH  31  33
ENDBRANCH   1  31
TORSDOF 7
ENDMDL
MODEL 7
REMARK VINA RESULT:    -7.412      2.365      4.244
REMARK INTER + INTRA:         -10.696
REMARK INTER:                 -10.071
REMARK INTRA:                  -0.625
REMARK UNBOUND:                -0.250
REMARK  Name = 
REMARK  8 active torsions:
REMARK  status: ('A' for Active; 'I' for Inactive)
REMARK    1  A    between atoms: C_1  and  O_2
REMARK    2  A    between atoms: O_2  and  C_3
REMARK    3  A    between atoms: C_3  and  C_4
REMARK    4  A    between atoms: C_4  and  N_5
REMARK    5  A    between atoms: C_4  and  C_18
REMARK    6  A    between atoms: C_6  and  C_8
REMARK    7  A    between atoms: C_21  and  O_22
REMARK    8  A    between atoms: O_22  and  C_23
REMARK                            x       y       z     vdW  Elec       q    Type
REMARK                         _______ _______ _______ _____ _____    ______ ____
ROOT
ATOM      1  C   UNL     1      46.342   5.286  14.219  0.00  0.00    +0.000 C 
ENDROOT
BRANCH   1   2
ATOM      2  C   UNL     1      45.781   4.820  12.884  0.00  0.00    +0.000 A 
ATOM      3  C   UNL     1      45.549   5.745  11.862  0.00  0.00    +0.000 A 
ATOM      4  C   UNL     1      45.080   5.320  10.619  0.00  0.00    +0.000 A 
ATOM      5  C   UNL     1      44.892   3.958  10.360  0.00  0.00    +0.000 A 
ATOM      6  C   UNL     1      45.070   3.034  11.381  0.00  0.00    +0.000 A 
ATOM      7  C   UNL     1      45.501   3.462  12.636  0.00  0.00    +0.000 A 
BRANCH   5   8
ATOM      8  O   UNL     1      44.481   3.464   9.144  0.00  0.00    +0.000 OA
BRANCH   8   9
ATOM      9  C   UNL     1      45.438   2.873   8.325  0.00  0.00    +0.000 A 
ATOM     10  C   UNL     1      46.174   3.732   7.521  0.00  0.00    +0.000 A 
ATOM     11  C   UNL     1      47.178   3.189   6.724  0.00  0.00    +0.000 A 
ATOM     12  C   UNL     1      47.407   1.817   6.759  0.00  0.00    +0.000 A 
ATOM     13  C   UNL     1      46.596   1.046   7.573  0.00  0.00    +0.000 A 
ATOM     14 CL   UNL     1      46.831  -0.648   7.704  0.00  0.00    +0.000 Cl
ATOM     15  N   UNL     1      45.607   1.534   8.339  0.00  0.00    +0.000 NA
ENDBRANCH   8   9
ENDBRANCH   5   8
ENDBRANCH   1   2
BRANCH   1  16
ATOM     16  N   UNL     1      46.932   6.608  14.066  0.00  0.00    +0.000 N 
ATOM     17  C   UNL     1      48.173   6.846  13.542  0.00  0.00    +0.000 C 
ATOM     18  O   UNL     1      48.869   5.972  13.039  0.00  0.00    +0.000 OA
ATOM     19  H   UNL     1      46.471   7.345  14.579  0.00  0.00    +0.000 HD
BRANCH  17  20
ATOM     20  C   UNL     1      48.596   8.256  13.567  0.00  0.00    +0.000 A 
ATOM     21  C   UNL     1      48.756   8.960  12.380  0.00  0.00    +0.000 A 
ATOM     22  S   UNL     1      49.215  10.587  12.608  0.00  0.00    +0.000 S 
ATOM     23  C   UNL     1      49.277  10.394  14.299  0.00  0.00    +0.000 A 
ATOM     24  N   UNL     1      49.646  11.423  15.111  0.00  0.00    +0.000 NA
ATOM     25  C   UNL     1      49.702  11.120  16.365  0.00  0.00    +0.000 A 
ATOM     26  N   UNL     1      49.411   9.884  16.882  0.00  0.00    +0.000 N 
ATOM     27  C   UNL     1      48.925   8.857  16.113  0.00  0.00    +0.000 A 
ATOM     28  O   UNL     1      48.489   7.840  16.641  0.00  0.00    +0.000 OA
ATOM     29  C   UNL     1      48.916   9.117  14.686  0.00  0.00    +0.000 A 
ATOM     30  H   UNL     1      49.430   9.721  17.877  0.00  0.00    +0.000 HD
ENDBRANCH  17  20
ENDBRANCH   1  16
BRANCH   1  31
ATOM     31  C   UNL     1      47.395   4.277  14.731  0.00  0.00    +0.000 C 
BRANCH  31  33
ATOM     32  C   UNL     1      47.253   4.309  17.084  0.00  0.00    +0.000 C 
ATOM     33  O   UNL     1      46.922   3.596  15.900  0.00  0.00    +0.000 OA
ENDBRANCH  31  33
ENDBRANCH   1  31
TORSDOF 7
ENDMDL
MODEL 8
REMARK VINA RESULT:    -7.227      2.312      3.085
REMARK INTER + INTRA:         -10.435
REMARK INTER:                  -9.449
REMARK INTRA:                  -0.986
REMARK UNBOUND:                -0.250
REMARK  Name = 
REMARK  8 active torsions:
REMARK  status: ('A' for Active; 'I' for Inactive)
REMARK    1  A    between atoms: C_1  and  O_2
REMARK    2  A    between atoms: O_2  and  C_3
REMARK    3  A    between atoms: C_3  and  C_4
REMARK    4  A    between atoms: C_4  and  N_5
REMARK    5  A    between atoms: C_4  and  C_18
REMARK    6  A    between atoms: C_6  and  C_8
REMARK    7  A    between atoms: C_21  and  O_22
REMARK    8  A    between atoms: O_22  and  C_23
REMARK                            x       y       z     vdW  Elec       q    Type
REMARK                         _______ _______ _______ _____ _____    ______ ____
ROOT
ATOM      1  C   UNL     1      48.961   7.256  14.026  0.00  0.00    +0.000 C 
ENDROOT
BRANCH   1   2
ATOM      2  C   UNL     1      47.721   6.793  13.276  0.00  0.00    +0.000 A 
ATOM      3  C   UNL     1      47.117   7.636  12.339  0.00  0.00    +0.000 A 
ATOM      4  C   UNL     1      46.008   7.201  11.611  0.00  0.00    +0.000 A 
ATOM      5  C   UNL     1      45.524   5.898  11.768  0.00  0.00    +0.000 A 
ATOM      6  C   UNL     1      46.084   5.069  12.731  0.00  0.00    +0.000 A 
ATOM      7  C   UNL     1      47.167   5.516  13.487  0.00  0.00    +0.000 A 
BRANCH   5   8
ATOM      8  O   UNL     1      44.469   5.386  11.049  0.00  0.00    +0.000 OA
BRANCH   8   9
ATOM      9  C   UNL     1      44.732   4.355  10.153  0.00  0.00    +0.000 A 
ATOM     10  C   UNL     1      44.160   3.125  10.445  0.00  0.00    +0.000 A 
ATOM     11  C   UNL     1      44.353   2.079   9.548  0.00  0.00    +0.000 A 
ATOM     12  C   UNL     1      45.108   2.298   8.400  0.00  0.00    +0.000 A 
ATOM     13  C   UNL     1      45.660   3.554   8.219  0.00  0.00    +0.000 A 
ATOM     14 CL   UNL     1      46.574   3.923   6.815  0.00  0.00    +0.000 Cl
ATOM     15  N   UNL     1      45.509   4.580   9.072  0.00  0.00    +0.000 NA
ENDBRANCH   8   9
ENDBRANCH   5   8
ENDBRANCH   1   2
BRANCH   1  16
ATOM     16  N   UNL     1      48.657   7.377  15.445  0.00  0.00    +0.000 N 
ATOM     17  C   UNL     1      49.306   6.695  16.437  0.00  0.00    +0.000 C 
ATOM     18  O   UNL     1      50.293   5.995  16.237  0.00  0.00    +0.000 OA
ATOM     19  H   UNL     1      47.778   7.827  15.658  0.00  0.00    +0.000 HD
BRANCH  17  20
ATOM     20  C   UNL     1      48.769   6.909  17.791  0.00  0.00    +0.000 A 
ATOM     21  C   UNL     1      48.362   8.176  18.189  0.00  0.00    +0.000 A 
ATOM     22  S   UNL     1      47.735   8.224  19.775  0.00  0.00    +0.000 S 
ATOM     23  C   UNL     1      48.042   6.566  20.010  0.00  0.00    +0.000 A 
ATOM     24  N   UNL     1      47.762   5.959  21.197  0.00  0.00    +0.000 NA
ATOM     25  C   UNL     1      48.097   4.713  21.251  0.00  0.00    +0.000 A 
ATOM     26  N   UNL     1      48.675   4.015  20.223  0.00  0.00    +0.000 N 
ATOM     27  C   UNL     1      48.866   4.557  18.977  0.00  0.00    +0.000 A 
ATOM     28  O   UNL     1      49.196   3.845  18.035  0.00  0.00    +0.000 OA
ATOM     29  C   UNL     1      48.580   5.976  18.880  0.00  0.00    +0.000 A 
ATOM     30  H   UNL     1      48.872   3.030  20.312  0.00  0.00    +0.000 HD
ENDBRANCH  17  20
ENDBRANCH   1  16
BRANCH   1  31
ATOM     31  C   UNL     1      49.450   8.607  13.458  0.00  0.00    +0.000 C 
BRANCH  31  33
ATOM     32  C   UNL     1      49.261  10.944  13.696  0.00  0.00    +0.000 C 
ATOM     33  O   UNL     1      49.107   9.685  14.337  0.00  0.00    +0.000 OA
ENDBRANCH  31  33
ENDBRANCH   1  31
TORSDOF 7
ENDMDL
MODEL 9
REMARK VINA RESULT:    -7.200      2.834      3.978
REMARK INTER + INTRA:         -10.396
REMARK INTER:                  -9.035
REMARK INTRA:                  -1.361
REMARK UNBOUND:                -0.250
REMARK  Name = 
REMARK  8 active torsions:
REMARK  status: ('A' for Active; 'I' for Inactive)
REMARK    1  A    between atoms: C_1  and  O_2
REMARK    2  A    between atoms: O_2  and  C_3
REMARK    3  A    between atoms: C_3  and  C_4
REMARK    4  A    between atoms: C_4  and  N_5
REMARK    5  A    between atoms: C_4  and  C_18
REMARK    6  A    between atoms: C_6  and  C_8
REMARK    7  A    between atoms: C_21  and  O_22
REMARK    8  A    between atoms: O_22  and  C_23
REMARK                            x       y       z     vdW  Elec       q    Type
REMARK                         _______ _______ _______ _____ _____    ______ ____
ROOT
ATOM      1  C   UNL     1      48.856   7.078  14.159  0.00  0.00    +0.000 C 
ENDROOT
BRANCH   1   2
ATOM      2  C   UNL     1      47.631   6.655  13.362  0.00  0.00    +0.000 A 
ATOM      3  C   UNL     1      47.092   7.514  12.400  0.00  0.00    +0.000 A 
ATOM      4  C   UNL     1      45.999   7.115  11.630  0.00  0.00    +0.000 A 
ATOM      5  C   UNL     1      45.466   5.829  11.770  0.00  0.00    +0.000 A 
ATOM      6  C   UNL     1      45.959   4.984  12.756  0.00  0.00    +0.000 A 
ATOM      7  C   UNL     1      47.026   5.398  13.553  0.00  0.00    +0.000 A 
BRANCH   5   8
ATOM      8  O   UNL     1      44.423   5.350  11.011  0.00  0.00    +0.000 OA
BRANCH   8   9
ATOM      9  C   UNL     1      44.688   4.314  10.122  0.00  0.00    +0.000 A 
ATOM     10  C   UNL     1      44.098   3.091  10.410  0.00  0.00    +0.000 A 
ATOM     11  C   UNL     1      44.294   2.040   9.519  0.00  0.00    +0.000 A 
ATOM     12  C   UNL     1      45.068   2.247   8.381  0.00  0.00    +0.000 A 
ATOM     13  C   UNL     1      45.635   3.497   8.204  0.00  0.00    +0.000 A 
ATOM     14 CL   UNL     1      46.573   3.851   6.813  0.00  0.00    +0.000 Cl
ATOM     15  N   UNL     1      45.483   4.527   9.052  0.00  0.00    +0.000 NA
ENDBRANCH   8   9
ENDBRANCH   5   8
ENDBRANCH   1   2
BRANCH   1  16
ATOM     16  N   UNL     1      48.499   7.218  15.563  0.00  0.00    +0.000 N 
ATOM     17  C   UNL     1      49.112   6.551  16.588  0.00  0.00    +0.000 C 
ATOM     18  O   UNL     1      50.107   5.851  16.435  0.00  0.00    +0.000 OA
ATOM     19  H   UNL     1      47.612   7.669  15.738  0.00  0.00    +0.000 HD
BRANCH  17  20
ATOM     20  C   UNL     1      48.525   6.783  17.918  0.00  0.00    +0.000 A 
ATOM     21  C   UNL     1      48.234   5.710  18.751  0.00  0.00    +0.000 A 
ATOM     22  S   UNL     1      47.594   6.174  20.263  0.00  0.00    +0.000 S 
ATOM     23  C   UNL     1      47.625   7.822  19.837  0.00  0.00    +0.000 A 
ATOM     24  N   UNL     1      47.170   8.779  20.693  0.00  0.00    +0.000 NA
ATOM     25  C   UNL     1      47.203   9.979  20.218  0.00  0.00    +0.000 A 
ATOM     26  N   UNL     1      47.660  10.311  18.969  0.00  0.00    +0.000 N 
ATOM     27  C   UNL     1      48.232   9.395  18.123  0.00  0.00    +0.000 A 
ATOM     28  O   UNL     1      48.808   9.765  17.106  0.00  0.00    +0.000 OA
ATOM     29  C   UNL     1      48.152   8.018  18.573  0.00  0.00    +0.000 A 
ATOM     30  H   UNL     1      47.701  11.274  18.672  0.00  0.00    +0.000 HD
ENDBRANCH  17  20
ENDBRANCH   1  16
BRANCH   1  31
ATOM     31  C   UNL     1      49.414   8.408  13.605  0.00  0.00    +0.000 C 
BRANCH  31  33
ATOM     32  C   UNL     1      51.571   8.795  14.471  0.00  0.00    +0.000 C 
ATOM     33  O   UNL     1      50.823   8.309  13.365  0.00  0.00    +0.000 OA
ENDBRANCH  31  33
ENDBRANCH   1  31
TORSDOF 7
ENDMDL
