MODEL 1
REMARK VINA RESULT:    -7.646      0.000      0.000
REMARK INTER + INTRA:         -13.208
REMARK INTER:                 -12.116
REMARK INTRA:                  -1.092
REMARK UNBOUND:                -1.092
REMARK  Name = 
REMARK  11 active torsions:
REMARK  status: ('A' for Active; 'I' for Inactive)
REMARK    1  A    between atoms: C_1  and  O_2
REMARK    2  A    between atoms: O_2  and  C_3
REMARK    3  A    between atoms: C_3  and  C_4
REMARK    4  A    between atoms: C_4  and  N_5
REMARK    5  A    between atoms: C_4  and  C_13
REMARK    6  A    between atoms: N_5  and  C_6
REMARK    7  A    between atoms: C_6  and  C_7
REMARK    8  A    between atoms: C_16  and  C_17
REMARK    9  A    between atoms: C_17  and  N_18
REMARK   10  A    between atoms: N_18  and  C_19
REMARK   11  A    between atoms: C_19  and  C_20
REMARK                            x       y       z     vdW  Elec       q    Type
REMARK                         _______ _______ _______ _____ _____    ______ ____
ROOT
ATOM      1  C   UNL     1      45.996   5.481  11.720  0.00  0.00    +0.000 A 
ATOM      2  C   UNL     1      46.272   4.889  12.964  0.00  0.00    +0.000 A 
ATOM      3  C   UNL     1      47.208   5.447  13.834  0.00  0.00    +0.000 A 
ATOM      4  C   UNL     1      47.877   6.630  13.499  0.00  0.00    +0.000 A 
ATOM      5  C   UNL     1      47.618   7.219  12.258  0.00  0.00    +0.000 A 
ATOM      6  C   UNL     1      46.701   6.645  11.374  0.00  0.00    +0.000 A 
ENDROOT
BRANCH   1   7
ATOM      7  C   UNL     1      44.997   4.803  10.778  0.00  0.00    +0.000 C 
BRANCH   7   8
ATOM      8  N   UNL     1      45.313   5.061   9.355  0.00  0.00    +0.000 NA
ATOM      9  H   UNL     1      46.320   5.084   9.220  0.00  0.00    +0.000 HD
BRANCH   8  10
ATOM     10  C   UNL     1      44.724   4.075   8.447  0.00  0.00    +0.000 C 
BRANCH  10  11
ATOM     11  C   UNL     1      45.742   3.092   7.922  0.00  0.00    +0.000 A 
ATOM     12  C   UNL     1      45.773   1.769   8.395  0.00  0.00    +0.000 A 
ATOM     13  C   UNL     1      46.687   0.856   7.872  0.00  0.00    +0.000 A 
ATOM     14  C   UNL     1      47.575   1.252   6.876  0.00  0.00    +0.000 A 
ATOM     15  C   UNL     1      47.549   2.560   6.397  0.00  0.00    +0.000 A 
ATOM     16  C   UNL     1      46.636   3.476   6.915  0.00  0.00    +0.000 A 
ENDBRANCH  10  11
ENDBRANCH   8  10
ENDBRANCH   7   8
BRANCH   7  17
ATOM     17  C   UNL     1      43.535   5.219  11.132  0.00  0.00    +0.000 C 
BRANCH  17  19
ATOM     18  C   UNL     1      43.340   2.949  11.720  0.00  0.00    +0.000 C 
ATOM     19  O   UNL     1      42.866   4.270  11.971  0.00  0.00    +0.000 OA
ENDBRANCH  17  19
ENDBRANCH   7  17
ENDBRANCH   1   7
BRANCH   4  20
ATOM     20  C   UNL     1      48.840   7.259  14.475  0.00  0.00    +0.000 C 
BRANCH  20  21
ATOM     21  N   UNL     1      48.254   7.338  15.806  0.00  0.00    +0.000 NA
ATOM     22  H   UNL     1      47.370   6.828  15.827  0.00  0.00    +0.000 HD
BRANCH  21  23
ATOM     23  C   UNL     1      49.140   6.747  16.818  0.00  0.00    +0.000 C 
BRANCH  23  24
ATOM     24  C   UNL     1      48.835   5.273  17.077  0.00  0.00    +0.000 A 
ATOM     25  N   UNL     1      47.542   4.931  17.264  0.00  0.00    +0.000 NA
ATOM     26  C   UNL     1      47.301   3.628  17.510  0.00  0.00    +0.000 A 
ATOM     27  C   UNL     1      48.286   2.671  17.577  0.00  0.00    +0.000 A 
ATOM     28  C   UNL     1      49.566   3.124  17.364  0.00  0.00    +0.000 A 
ATOM     29  N   UNL     1      49.870   4.409  17.109  0.00  0.00    +0.000 NA
ENDBRANCH  23  24
ENDBRANCH  21  23
ENDBRANCH  20  21
ENDBRANCH   4  20
TORSDOF 10
ENDMDL
MODEL 2
REMARK VINA RESULT:    -7.304      1.258      2.059
REMARK INTER + INTRA:         -12.666
REMARK INTER:                 -11.843
REMARK INTRA:                  -0.824
REMARK UNBOUND:                -1.092
REMARK  Name = 
REMARK  11 active torsions:
REMARK  status: ('A' for Active; 'I' for Inactive)
REMARK    1  A    between atoms: C_1  and  O_2
REMARK    2  A    between atoms: O_2  and  C_3
REMARK    3  A    between atoms: C_3  and  C_4
REMARK    4  A    between atoms: C_4  and  N_5
REMARK    5  A    between atoms: C_4  and  C_13
REMARK    6  A    between atoms: N_5  and  C_6
REMARK    7  A    between atoms: C_6  and  C_7
REMARK    8  A    between atoms: C_16  and  C_17
REMARK    9  A    between atoms: C_17  and  N_18
REMARK   10  A    between atoms: N_18  and  C_19
REMARK   11  A    between atoms: C_19  and  C_20
REMARK                            x       y       z     vdW  Elec       q    Type
REMARK                         _______ _______ _______ _____ _____    ______ ____
ROOT
ATOM      1  C   UNL     1      45.575   4.902  11.937  0.00  0.00    +0.000 A 
ATOM      2  C   UNL     1      46.092   5.954  11.162  0.00  0.00    +0.000 A 
ATOM      3  C   UNL     1      47.034   6.838  11.686  0.00  0.00    +0.000 A 
ATOM      4  C   UNL     1      47.510   6.680  12.993  0.00  0.00    +0.000 A 
ATOM      5  C   UNL     1      46.992   5.643  13.776  0.00  0.00    +0.000 A 
ATOM      6  C   UNL     1      46.027   4.775  13.259  0.00  0.00    +0.000 A 
ENDROOT
BRANCH   1   7
ATOM      7  C   UNL     1      44.504   3.989  11.332  0.00  0.00    +0.000 C 
BRANCH   7   8
ATOM      8  N   UNL     1      45.083   2.741  10.785  0.00  0.00    +0.000 NA
ATOM      9  H   UNL     1      44.929   1.972  11.433  0.00  0.00    +0.000 HD
BRANCH   8  10
ATOM     10  C   UNL     1      44.544   2.385   9.471  0.00  0.00    +0.000 C 
BRANCH  10  11
ATOM     11  C   UNL     1      45.606   2.362   8.398  0.00  0.00    +0.000 A 
ATOM     12  C   UNL     1      45.977   3.542   7.731  0.00  0.00    +0.000 A 
ATOM     13  C   UNL     1      46.990   3.520   6.774  0.00  0.00    +0.000 A 
ATOM     14  C   UNL     1      47.640   2.326   6.474  0.00  0.00    +0.000 A 
ATOM     15  C   UNL     1      47.282   1.152   7.134  0.00  0.00    +0.000 A 
ATOM     16  C   UNL     1      46.272   1.169   8.093  0.00  0.00    +0.000 A 
ENDBRANCH  10  11
ENDBRANCH   8  10
ENDBRANCH   7   8
BRANCH   7  17
ATOM     17  C   UNL     1      43.663   4.756  10.264  0.00  0.00    +0.000 C 
BRANCH  17  19
ATOM     18  C   UNL     1      42.369   5.319  12.146  0.00  0.00    +0.000 C 
ATOM     19  O   UNL     1      42.763   5.713  10.834  0.00  0.00    +0.000 OA
ENDBRANCH  17  19
ENDBRANCH   7  17
ENDBRANCH   1   7
BRANCH   4  20
ATOM     20  C   UNL     1      48.576   7.603  13.528  0.00  0.00    +0.000 C 
BRANCH  20  21
ATOM     21  N   UNL     1      49.710   6.846  14.039  0.00  0.00    +0.000 NA
ATOM     22  H   UNL     1      50.519   6.980  13.433  0.00  0.00    +0.000 HD
BRANCH  21  23
ATOM     23  C   UNL     1      50.082   7.285  15.392  0.00  0.00    +0.000 C 
BRANCH  23  24
ATOM     24  C   UNL     1      49.297   6.558  16.481  0.00  0.00    +0.000 A 
ATOM     25  N   UNL     1      48.783   7.307  17.481  0.00  0.00    +0.000 NA
ATOM     26  C   UNL     1      48.112   6.638  18.440  0.00  0.00    +0.000 A 
ATOM     27  C   UNL     1      47.940   5.275  18.439  0.00  0.00    +0.000 A 
ATOM     28  C   UNL     1      48.495   4.609  17.372  0.00  0.00    +0.000 A 
ATOM     29  N   UNL     1      49.172   5.218  16.382  0.00  0.00    +0.000 NA
ENDBRANCH  23  24
ENDBRANCH  21  23
ENDBRANCH  20  21
ENDBRANCH   4  20
TORSDOF 10
ENDMDL
MODEL 3
REMARK VINA RESULT:    -6.989      2.013      8.270
REMARK INTER + INTRA:         -12.167
REMARK INTER:                 -10.936
REMARK INTRA:                  -1.231
REMARK UNBOUND:                -1.092
REMARK  Name = 
REMARK  11 active torsions:
REMARK  status: ('A' for Active; 'I' for Inactive)
REMARK    1  A    between atoms: C_1  and  O_2
REMARK    2  A    between atoms: O_2  and  C_3
REMARK    3  A    between atoms: C_3  and  C_4
REMARK    4  A    between atoms: C_4  and  N_5
REMARK    5  A    between atoms: C_4  and  C_13
REMARK    6  A    between atoms: N_5  and  C_6
REMARK    7  A    between atoms: C_6  and  C_7
REMARK    8  A    between atoms: C_16  and  C_17
REMARK    9  A    between atoms: C_17  and  N_18
REMARK   10  A    between atoms: N_18  and  C_19
REMARK   11  A    between atoms: C_19  and  C_20
REMARK                            x       y       z     vdW  Elec       q    Type
REMARK                         _______ _______ _______ _____ _____    ______ ____
ROOT
ATOM      1  C   UNL     1      46.716   6.033  12.647  0.00  0.00    +0.000 A 
ATOM      2  C   UNL     1      46.343   4.788  13.180  0.00  0.00    +0.000 A 
ATOM      3  C   UNL     1      45.301   4.050  12.621  0.00  0.00    +0.000 A 
ATOM      4  C   UNL     1      44.618   4.521  11.493  0.00  0.00    +0.000 A 
ATOM      5  C   UNL     1      44.975   5.764  10.962  0.00  0.00    +0.000 A 
ATOM      6  C   UNL     1      46.001   6.517  11.541  0.00  0.00    +0.000 A 
ENDROOT
BRANCH   1   7
ATOM      7  C   UNL     1      47.834   6.830  13.327  0.00  0.00    +0.000 C 
BRANCH   7   8
ATOM      8  N   UNL     1      47.672   6.867  14.798  0.00  0.00    +0.000 NA
ATOM      9  H   UNL     1      46.918   6.247  15.082  0.00  0.00    +0.000 HD
BRANCH   8  10
ATOM     10  C   UNL     1      48.894   6.510  15.521  0.00  0.00    +0.000 C 
BRANCH  10  11
ATOM     11  C   UNL     1      48.688   5.352  16.467  0.00  0.00    +0.000 A 
ATOM     12  C   UNL     1      47.508   4.589  16.422  0.00  0.00    +0.000 A 
ATOM     13  C   UNL     1      47.346   3.494  17.268  0.00  0.00    +0.000 A 
ATOM     14  C   UNL     1      48.354   3.150  18.163  0.00  0.00    +0.000 A 
ATOM     15  C   UNL     1      49.530   3.897  18.212  0.00  0.00    +0.000 A 
ATOM     16  C   UNL     1      49.698   4.991  17.368  0.00  0.00    +0.000 A 
ENDBRANCH  10  11
ENDBRANCH   8  10
ENDBRANCH   7   8
BRANCH   7  17
ATOM     17  C   UNL     1      47.940   8.263  12.718  0.00  0.00    +0.000 C 
BRANCH  17  19
ATOM     18  C   UNL     1      50.057   7.599  11.936  0.00  0.00    +0.000 C 
ATOM     19  O   UNL     1      48.882   8.351  11.643  0.00  0.00    +0.000 OA
ENDBRANCH  17  19
ENDBRANCH   7  17
ENDBRANCH   1   7
BRANCH   4  20
ATOM     20  C   UNL     1      43.535   3.684  10.858  0.00  0.00    +0.000 C 
BRANCH  20  21
ATOM     21  N   UNL     1      43.890   3.326   9.491  0.00  0.00    +0.000 NA
ATOM     22  H   UNL     1      44.433   4.077   9.065  0.00  0.00    +0.000 HD
BRANCH  21  23
ATOM     23  C   UNL     1      44.702   2.102   9.451  0.00  0.00    +0.000 C 
BRANCH  23  24
ATOM     24  C   UNL     1      45.807   2.166   8.399  0.00  0.00    +0.000 A 
ATOM     25  N   UNL     1      46.419   1.007   8.070  0.00  0.00    +0.000 NA
ATOM     26  C   UNL     1      47.403   1.093   7.154  0.00  0.00    +0.000 A 
ATOM     27  C   UNL     1      47.794   2.273   6.566  0.00  0.00    +0.000 A 
ATOM     28  C   UNL     1      47.102   3.391   6.965  0.00  0.00    +0.000 A 
ATOM     29  N   UNL     1      46.108   3.370   7.870  0.00  0.00    +0.000 NA
ENDBRANCH  23  24
ENDBRANCH  21  23
ENDBRANCH  20  21
ENDBRANCH   4  20
TORSDOF 10
ENDMDL
MODEL 4
REMARK VINA RESULT:    -6.462      1.867      2.791
REMARK INTER + INTRA:         -11.331
REMARK INTER:                 -10.677
REMARK INTRA:                  -0.654
REMARK UNBOUND:                -1.092
REMARK  Name = 
REMARK  11 active torsions:
REMARK  status: ('A' for Active; 'I' for Inactive)
REMARK    1  A    between atoms: C_1  and  O_2
REMARK    2  A    between atoms: O_2  and  C_3
REMARK    3  A    between atoms: C_3  and  C_4
REMARK    4  A    between atoms: C_4  and  N_5
REMARK    5  A    between atoms: C_4  and  C_13
REMARK    6  A    between atoms: N_5  and  C_6
REMARK    7  A    between atoms: C_6  and  C_7
REMARK    8  A    between atoms: C_16  and  C_17
REMARK    9  A    between atoms: C_17  and  N_18
REMARK   10  A    between atoms: N_18  and  C_19
REMARK   11  A    between atoms: C_19  and  C_20
REMARK                            x       y       z     vdW  Elec       q    Type
REMARK                         _______ _______ _______ _____ _____    ______ ____
ROOT
ATOM      1  C   UNL     1      45.600   4.710  12.219  0.00  0.00    +0.000 A 
ATOM      2  C   UNL     1      46.195   5.898  11.763  0.00  0.00    +0.000 A 
ATOM      3  C   UNL     1      47.125   6.583  12.545  0.00  0.00    +0.000 A 
ATOM      4  C   UNL     1      47.509   6.085  13.796  0.00  0.00    +0.000 A 
ATOM      5  C   UNL     1      46.912   4.910  14.264  0.00  0.00    +0.000 A 
ATOM      6  C   UNL     1      45.960   4.239  13.492  0.00  0.00    +0.000 A 
ENDROOT
BRANCH   1   7
ATOM      7  C   UNL     1      44.547   4.022  11.346  0.00  0.00    +0.000 C 
BRANCH   7   8
ATOM      8  N   UNL     1      45.063   2.780  10.729  0.00  0.00    +0.000 NA
ATOM      9  H   UNL     1      44.861   1.983  11.327  0.00  0.00    +0.000 HD
BRANCH   8  10
ATOM     10  C   UNL     1      44.521   2.533   9.391  0.00  0.00    +0.000 C 
BRANCH  10  11
ATOM     11  C   UNL     1      45.598   2.446   8.338  0.00  0.00    +0.000 A 
ATOM     12  C   UNL     1      46.344   1.266   8.169  0.00  0.00    +0.000 A 
ATOM     13  C   UNL     1      47.306   1.180   7.164  0.00  0.00    +0.000 A 
ATOM     14  C   UNL     1      47.532   2.263   6.321  0.00  0.00    +0.000 A 
ATOM     15  C   UNL     1      46.795   3.436   6.478  0.00  0.00    +0.000 A 
ATOM     16  C   UNL     1      45.832   3.527   7.479  0.00  0.00    +0.000 A 
ENDBRANCH  10  11
ENDBRANCH   8  10
ENDBRANCH   7   8
BRANCH   7  17
ATOM     17  C   UNL     1      43.985   5.011  10.276  0.00  0.00    +0.000 C 
BRANCH  17  19
ATOM     18  C   UNL     1      42.261   5.324  11.846  0.00  0.00    +0.000 C 
ATOM     19  O   UNL     1      43.025   5.931  10.807  0.00  0.00    +0.000 OA
ENDBRANCH  17  19
ENDBRANCH   7  17
ENDBRANCH   1   7
BRANCH   4  20
ATOM     20  C   UNL     1      48.562   6.800  14.606  0.00  0.00    +0.000 C 
BRANCH  20  21
ATOM     21  N   UNL     1      48.406   6.519  16.026  0.00  0.00    +0.000 NA
ATOM     22  H   UNL     1      48.423   5.512  16.185  0.00  0.00    +0.000 HD
BRANCH  21  23
ATOM     23  C   UNL     1      49.492   7.120  16.814  0.00  0.00    +0.000 C 
BRANCH  23  24
ATOM     24  C   UNL     1      49.028   7.582  18.194  0.00  0.00    +0.000 A 
ATOM     25  N   UNL     1      49.845   7.329  19.239  0.00  0.00    +0.000 NA
ATOM     26  C   UNL     1      49.405   7.728  20.448  0.00  0.00    +0.000 A 
ATOM     27  C   UNL     1      48.200   8.358  20.649  0.00  0.00    +0.000 A 
ATOM     28  C   UNL     1      47.449   8.575  19.518  0.00  0.00    +0.000 A 
ATOM     29  N   UNL     1      47.835   8.205  18.284  0.00  0.00    +0.000 NA
ENDBRANCH  23  24
ENDBRANCH  21  23
ENDBRANCH  20  21
ENDBRANCH   4  20
TORSDOF 10
ENDMDL
MODEL 5
REMARK VINA RESULT:    -6.254      1.926      2.854
REMARK INTER + INTRA:         -11.001
REMARK INTER:                 -10.435
REMARK INTRA:                  -0.567
REMARK UNBOUND:                -1.092
REMARK  Name = 
REMARK  11 active torsions:
REMARK  status: ('A' for Active; 'I' for Inactive)
REMARK    1  A    between atoms: C_1  and  O_2
REMARK    2  A    between atoms: O_2  and  C_3
REMARK    3  A    between atoms: C_3  and  C_4
REMARK    4  A    between atoms: C_4  and  N_5
REMARK    5  A    between atoms: C_4  and  C_13
REMARK    6  A    between atoms: N_5  and  C_6
REMARK    7  A    between atoms: C_6  and  C_7
REMARK    8  A    between atoms: C_16  and  C_17
REMARK    9  A    between atoms: C_17  and  N_18
REMARK   10  A    between atoms: N_18  and  C_19
REMARK   11  A    between atoms: C_19  and  C_20
REMARK                            x       y       z     vdW  Elec       q    Type
REMARK                         _______ _______ _______ _____ _____    ______ ____
ROOT
ATOM      1  C   UNL     1      45.681   5.719  12.157  0.00  0.00    +0.000 A 
ATOM      2  C   UNL     1      45.550   4.395  12.609  0.00  0.00    +0.000 A 
ATOM      3  C   UNL     1      46.266   3.939  13.715  0.00  0.00    +0.000 A 
ATOM      4  C   UNL     1      47.115   4.800  14.420  0.00  0.00    +0.000 A 
ATOM      5  C   UNL     1      47.261   6.116  13.970  0.00  0.00    +0.000 A 
ATOM      6  C   UNL     1      46.564   6.565  12.845  0.00  0.00    +0.000 A 
ENDROOT
BRANCH   1   7
ATOM      7  C   UNL     1      44.912   6.158  10.907  0.00  0.00    +0.000 C 
BRANCH   7   8
ATOM      8  N   UNL     1      45.447   5.532   9.678  0.00  0.00    +0.000 NA
ATOM      9  H   UNL     1      46.419   5.269   9.814  0.00  0.00    +0.000 HD
BRANCH   8  10
ATOM     10  C   UNL     1      44.682   4.359   9.249  0.00  0.00    +0.000 C 
BRANCH  10  11
ATOM     11  C   UNL     1      45.534   3.347   8.523  0.00  0.00    +0.000 A 
ATOM     12  C   UNL     1      45.420   1.976   8.808  0.00  0.00    +0.000 A 
ATOM     13  C   UNL     1      46.178   1.045   8.101  0.00  0.00    +0.000 A 
ATOM     14  C   UNL     1      47.053   1.470   7.106  0.00  0.00    +0.000 A 
ATOM     15  C   UNL     1      47.171   2.828   6.813  0.00  0.00    +0.000 A 
ATOM     16  C   UNL     1      46.414   3.762   7.516  0.00  0.00    +0.000 A 
ENDBRANCH  10  11
ENDBRANCH   8  10
ENDBRANCH   7   8
BRANCH   7  17
ATOM     17  C   UNL     1      44.879   7.716  10.799  0.00  0.00    +0.000 C 
BRANCH  17  19
ATOM     18  C   UNL     1      43.558   9.663  10.776  0.00  0.00    +0.000 C 
ATOM     19  O   UNL     1      43.596   8.276  11.103  0.00  0.00    +0.000 OA
ENDBRANCH  17  19
ENDBRANCH   7  17
ENDBRANCH   1   7
BRANCH   4  20
ATOM     20  C   UNL     1      47.835   4.314  15.653  0.00  0.00    +0.000 C 
BRANCH  20  21
ATOM     21  N   UNL     1      48.143   2.894  15.548  0.00  0.00    +0.000 NA
ATOM     22  H   UNL     1      48.960   2.758  14.952  0.00  0.00    +0.000 HD
BRANCH  21  23
ATOM     23  C   UNL     1      48.443   2.313  16.864  0.00  0.00    +0.000 C 
BRANCH  23  24
ATOM     24  C   UNL     1      49.924   2.410  17.225  0.00  0.00    +0.000 A 
ATOM     25  N   UNL     1      50.406   3.631  17.542  0.00  0.00    +0.000 NA
ATOM     26  C   UNL     1      51.720   3.694  17.837  0.00  0.00    +0.000 A 
ATOM     27  C   UNL     1      52.556   2.602  17.824  0.00  0.00    +0.000 A 
ATOM     28  C   UNL     1      51.963   1.406  17.496  0.00  0.00    +0.000 A 
ATOM     29  N   UNL     1      50.657   1.278  17.197  0.00  0.00    +0.000 NA
ENDBRANCH  23  24
ENDBRANCH  21  23
ENDBRANCH  20  21
ENDBRANCH   4  20
TORSDOF 10
ENDMDL
MODEL 6
REMARK VINA RESULT:    -6.081      2.545      9.218
REMARK INTER + INTRA:         -10.728
REMARK INTER:                  -9.930
REMARK INTRA:                  -0.798
REMARK UNBOUND:                -1.092
REMARK  Name = 
REMARK  11 active torsions:
REMARK  status: ('A' for Active; 'I' for Inactive)
REMARK    1  A    between atoms: C_1  and  O_2
REMARK    2  A    between atoms: O_2  and  C_3
REMARK    3  A    between atoms: C_3  and  C_4
REMARK    4  A    between atoms: C_4  and  N_5
REMARK    5  A    between atoms: C_4  and  C_13
REMARK    6  A    between atoms: N_5  and  C_6
REMARK    7  A    between atoms: C_6  and  C_7
REMARK    8  A    between atoms: C_16  and  C_17
REMARK    9  A    between atoms: C_17  and  N_18
REMARK   10  A    between atoms: N_18  and  C_19
REMARK   11  A    between atoms: C_19  and  C_20
REMARK                            x       y       z     vdW  Elec       q    Type
REMARK                         _______ _______ _______ _____ _____    ______ ____
ROOT
ATOM      1  C   UNL     1      47.471   6.024  13.389  0.00  0.00    +0.000 A 
ATOM      2  C   UNL     1      46.993   4.770  13.805  0.00  0.00    +0.000 A 
ATOM      3  C   UNL     1      45.972   4.123  13.110  0.00  0.00    +0.000 A 
ATOM      4  C   UNL     1      45.417   4.697  11.960  0.00  0.00    +0.000 A 
ATOM      5  C   UNL     1      45.878   5.950  11.546  0.00  0.00    +0.000 A 
ATOM      6  C   UNL     1      46.881   6.611  12.259  0.00  0.00    +0.000 A 
ENDROOT
BRANCH   1   7
ATOM      7  C   UNL     1      48.558   6.718  14.215  0.00  0.00    +0.000 C 
BRANCH   7   8
ATOM      8  N   UNL     1      48.104   7.015  15.592  0.00  0.00    +0.000 NA
ATOM      9  H   UNL     1      47.118   6.787  15.691  0.00  0.00    +0.000 HD
BRANCH   8  10
ATOM     10  C   UNL     1      48.873   6.305  16.617  0.00  0.00    +0.000 C 
BRANCH  10  11
ATOM     11  C   UNL     1      48.455   6.682  18.017  0.00  0.00    +0.000 A 
ATOM     12  C   UNL     1      48.741   7.958  18.533  0.00  0.00    +0.000 A 
ATOM     13  C   UNL     1      48.312   8.312  19.811  0.00  0.00    +0.000 A 
ATOM     14  C   UNL     1      47.595   7.403  20.583  0.00  0.00    +0.000 A 
ATOM     15  C   UNL     1      47.302   6.137  20.078  0.00  0.00    +0.000 A 
ATOM     16  C   UNL     1      47.728   5.778  18.802  0.00  0.00    +0.000 A 
ENDBRANCH  10  11
ENDBRANCH   8  10
ENDBRANCH   7   8
BRANCH   7  17
ATOM     17  C   UNL     1      49.073   7.998  13.485  0.00  0.00    +0.000 C 
BRANCH  17  19
ATOM     18  C   UNL     1      50.602   9.701  14.033  0.00  0.00    +0.000 C 
ATOM     19  O   UNL     1      49.367   9.079  14.378  0.00  0.00    +0.000 OA
ENDBRANCH  17  19
ENDBRANCH   7  17
ENDBRANCH   1   7
BRANCH   4  20
ATOM     20  C   UNL     1      44.358   3.958  11.180  0.00  0.00    +0.000 C 
BRANCH  20  21
ATOM     21  N   UNL     1      44.820   2.628  10.806  0.00  0.00    +0.000 NA
ATOM     22  H   UNL     1      44.427   1.933  11.441  0.00  0.00    +0.000 HD
BRANCH  21  23
ATOM     23  C   UNL     1      44.404   2.280   9.440  0.00  0.00    +0.000 C 
BRANCH  23  24
ATOM     24  C   UNL     1      45.564   2.315   8.447  0.00  0.00    +0.000 A 
ATOM     25  N   UNL     1      46.220   1.156   8.219  0.00  0.00    +0.000 NA
ATOM     26  C   UNL     1      47.251   1.218   7.354  0.00  0.00    +0.000 A 
ATOM     27  C   UNL     1      47.646   2.373   6.721  0.00  0.00    +0.000 A 
ATOM     28  C   UNL     1      46.907   3.493   7.018  0.00  0.00    +0.000 A 
ATOM     29  N   UNL     1      45.865   3.495   7.868  0.00  0.00    +0.000 NA
ENDBRANCH  23  24
ENDBRANCH  21  23
ENDBRANCH  20  21
ENDBRANCH   4  20
TORSDOF 10
ENDMDL
MODEL 7
REMARK VINA RESULT:    -5.991      3.661      9.315
REMARK INTER + INTRA:         -10.585
REMARK INTER:                  -9.631
REMARK INTRA:                  -0.954
REMARK UNBOUND:                -1.092
REMARK  Name = 
REMARK  11 active torsions:
REMARK  status: ('A' for Active; 'I' for Inactive)
REMARK    1  A    between atoms: C_1  and  O_2
REMARK    2  A    between atoms: O_2  and  C_3
REMARK    3  A    between atoms: C_3  and  C_4
REMARK    4  A    between atoms: C_4  and  N_5
REMARK    5  A    between atoms: C_4  and  C_13
REMARK    6  A    between atoms: N_5  and  C_6
REMARK    7  A    between atoms: C_6  and  C_7
REMARK    8  A    between atoms: C_16  and  C_17
REMARK    9  A    between atoms: C_17  and  N_18
REMARK   10  A    between atoms: N_18  and  C_19
REMARK   11  A    between atoms: C_19  and  C_20
REMARK                            x       y       z     vdW  Elec       q    Type
REMARK                         _______ _______ _______ _____ _____    ______ ____
ROOT
ATOM      1  C   UNL     1      44.805   4.629   9.842  0.00  0.00    +0.000 A 
ATOM      2  C   UNL     1      44.467   3.265   9.846  0.00  0.00    +0.000 A 
ATOM      3  C   UNL     1      45.028   2.382   8.924  0.00  0.00    +0.000 A 
ATOM      4  C   UNL     1      45.968   2.830   7.988  0.00  0.00    +0.000 A 
ATOM      5  C   UNL     1      46.302   4.188   7.969  0.00  0.00    +0.000 A 
ATOM      6  C   UNL     1      45.717   5.077   8.874  0.00  0.00    +0.000 A 
ENDROOT
BRANCH   1   7
ATOM      7  C   UNL     1      44.123   5.568  10.841  0.00  0.00    +0.000 C 
BRANCH   7   8
ATOM      8  N   UNL     1      45.070   6.082  11.856  0.00  0.00    +0.000 NA
ATOM      9  H   UNL     1      45.995   5.688  11.701  0.00  0.00    +0.000 HD
BRANCH   8  10
ATOM     10  C   UNL     1      45.161   7.543  11.870  0.00  0.00    +0.000 C 
BRANCH  10  11
ATOM     11  C   UNL     1      46.585   8.033  11.966  0.00  0.00    +0.000 A 
ATOM     12  C   UNL     1      47.660   7.175  11.678  0.00  0.00    +0.000 A 
ATOM     13  C   UNL     1      48.970   7.649  11.725  0.00  0.00    +0.000 A 
ATOM     14  C   UNL     1      49.220   8.977  12.057  0.00  0.00    +0.000 A 
ATOM     15  C   UNL     1      48.160   9.837  12.340  0.00  0.00    +0.000 A 
ATOM     16  C   UNL     1      46.849   9.369  12.293  0.00  0.00    +0.000 A 
ENDBRANCH  10  11
ENDBRANCH   8  10
ENDBRANCH   7   8
BRANCH   7  17
ATOM     17  C   UNL     1      42.890   4.872  11.499  0.00  0.00    +0.000 C 
BRANCH  17  19
ATOM     18  C   UNL     1      43.435   3.578  13.386  0.00  0.00    +0.000 C 
ATOM     19  O   UNL     1      42.955   4.840  12.929  0.00  0.00    +0.000 OA
ENDBRANCH  17  19
ENDBRANCH   7  17
ENDBRANCH   1   7
BRANCH   4  20
ATOM     20  C   UNL     1      46.616   1.854   7.038  0.00  0.00    +0.000 C 
BRANCH  20  21
ATOM     21  N   UNL     1      46.730   2.426   5.704  0.00  0.00    +0.000 NA
ATOM     22  H   UNL     1      47.105   3.373   5.761  0.00  0.00    +0.000 HD
BRANCH  21  23
ATOM     23  C   UNL     1      47.633   1.634   4.857  0.00  0.00    +0.000 C 
BRANCH  23  24
ATOM     24  C   UNL     1      46.881   0.713   3.897  0.00  0.00    +0.000 A 
ATOM     25  N   UNL     1      47.257  -0.583   3.858  0.00  0.00    +0.000 NA
ATOM     26  C   UNL     1      46.591  -1.369   2.989  0.00  0.00    +0.000 A 
ATOM     27  C   UNL     1      45.583  -0.917   2.172  0.00  0.00    +0.000 A 
ATOM     28  C   UNL     1      45.273   0.417   2.297  0.00  0.00    +0.000 A 
ATOM     29  N   UNL     1      45.897   1.251   3.148  0.00  0.00    +0.000 NA
ENDBRANCH  23  24
ENDBRANCH  21  23
ENDBRANCH  20  21
ENDBRANCH   4  20
TORSDOF 10
ENDMDL
MODEL 8
REMARK VINA RESULT:    -5.774      2.693      8.643
REMARK INTER + INTRA:         -10.242
REMARK INTER:                  -9.267
REMARK INTRA:                  -0.975
REMARK UNBOUND:                -1.092
REMARK  Name = 
REMARK  11 active torsions:
REMARK  status: ('A' for Active; 'I' for Inactive)
REMARK    1  A    between atoms: C_1  and  O_2
REMARK    2  A    between atoms: O_2  and  C_3
REMARK    3  A    between atoms: C_3  and  C_4
REMARK    4  A    between atoms: C_4  and  N_5
REMARK    5  A    between atoms: C_4  and  C_13
REMARK    6  A    between atoms: N_5  and  C_6
REMARK    7  A    between atoms: C_6  and  C_7
REMARK    8  A    between atoms: C_16  and  C_17
REMARK    9  A    between atoms: C_17  and  N_18
REMARK   10  A    between atoms: N_18  and  C_19
REMARK   11  A    between atoms: C_19  and  C_20
REMARK                            x       y       z     vdW  Elec       q    Type
REMARK                         _______ _______ _______ _____ _____    ______ ____
ROOT
ATOM      1  C   UNL     1      48.550   5.985  16.245  0.00  0.00    +0.000 A 
ATOM      2  C   UNL     1      47.841   4.796  16.487  0.00  0.00    +0.000 A 
ATOM      3  C   UNL     1      47.074   4.199  15.486  0.00  0.00    +0.000 A 
ATOM      4  C   UNL     1      47.016   4.758  14.204  0.00  0.00    +0.000 A 
ATOM      5  C   UNL     1      47.709   5.947  13.957  0.00  0.00    +0.000 A 
ATOM      6  C   UNL     1      48.454   6.560  14.969  0.00  0.00    +0.000 A 
ENDROOT
BRANCH   1   7
ATOM      7  C   UNL     1      49.336   6.628  17.391  0.00  0.00    +0.000 C 
BRANCH   7   8
ATOM      8  N   UNL     1      49.955   5.617  18.276  0.00  0.00    +0.000 NA
ATOM      9  H   UNL     1      49.422   4.752  18.244  0.00  0.00    +0.000 HD
BRANCH   8  10
ATOM     10  C   UNL     1      51.353   5.337  17.942  0.00  0.00    +0.000 C 
BRANCH  10  11
ATOM     11  C   UNL     1      51.629   3.861  17.799  0.00  0.00    +0.000 A 
ATOM     12  C   UNL     1      52.877   3.325  18.164  0.00  0.00    +0.000 A 
ATOM     13  C   UNL     1      53.107   1.954  18.071  0.00  0.00    +0.000 A 
ATOM     14  C   UNL     1      52.101   1.107  17.616  0.00  0.00    +0.000 A 
ATOM     15  C   UNL     1      50.860   1.628  17.256  0.00  0.00    +0.000 A 
ATOM     16  C   UNL     1      50.623   2.997  17.348  0.00  0.00    +0.000 A 
ENDBRANCH  10  11
ENDBRANCH   8  10
ENDBRANCH   7   8
BRANCH   7  17
ATOM     17  C   UNL     1      48.435   7.624  18.188  0.00  0.00    +0.000 C 
BRANCH  17  19
ATOM     18  C   UNL     1      47.836   7.371  20.449  0.00  0.00    +0.000 C 
ATOM     19  O   UNL     1      47.552   6.974  19.109  0.00  0.00    +0.000 OA
ENDBRANCH  17  19
ENDBRANCH   7  17
ENDBRANCH   1   7
BRANCH   4  20
ATOM     20  C   UNL     1      46.236   4.070  13.112  0.00  0.00    +0.000 C 
BRANCH  20  21
ATOM     21  N   UNL     1      44.805   4.275  13.287  0.00  0.00    +0.000 NA
ATOM     22  H   UNL     1      44.632   4.811  14.137  0.00  0.00    +0.000 HD
BRANCH  21  23
ATOM     23  C   UNL     1      44.228   5.019  12.159  0.00  0.00    +0.000 C 
BRANCH  23  24
ATOM     24  C   UNL     1      44.540   4.374  10.810  0.00  0.00    +0.000 A 
ATOM     25  N   UNL     1      44.094   3.115  10.606  0.00  0.00    +0.000 NA
ATOM     26  C   UNL     1      44.399   2.562   9.416  0.00  0.00    +0.000 A 
ATOM     27  C   UNL     1      45.122   3.205   8.440  0.00  0.00    +0.000 A 
ATOM     28  C   UNL     1      45.521   4.485   8.746  0.00  0.00    +0.000 A 
ATOM     29  N   UNL     1      45.244   5.094   9.913  0.00  0.00    +0.000 NA
ENDBRANCH  23  24
ENDBRANCH  21  23
ENDBRANCH  20  21
ENDBRANCH   4  20
TORSDOF 10
ENDMDL
MODEL 9
REMARK VINA RESULT:    -5.604      2.253      3.613
REMARK INTER + INTRA:          -9.972
REMARK INTER:                  -9.491
REMARK INTRA:                  -0.481
REMARK UNBOUND:                -1.092
REMARK  Name = 
REMARK  11 active torsions:
REMARK  status: ('A' for Active; 'I' for Inactive)
REMARK    1  A    between atoms: C_1  and  O_2
REMARK    2  A    between atoms: O_2  and  C_3
REMARK    3  A    between atoms: C_3  and  C_4
REMARK    4  A    between atoms: C_4  and  N_5
REMARK    5  A    between atoms: C_4  and  C_13
REMARK    6  A    between atoms: N_5  and  C_6
REMARK    7  A    between atoms: C_6  and  C_7
REMARK    8  A    between atoms: C_16  and  C_17
REMARK    9  A    between atoms: C_17  and  N_18
REMARK   10  A    between atoms: N_18  and  C_19
REMARK   11  A    between atoms: C_19  and  C_20
REMARK                            x       y       z     vdW  Elec       q    Type
REMARK                         _______ _______ _______ _____ _____    ______ ____
ROOT
ATOM      1  C   UNL     1      45.459   5.052  11.630  0.00  0.00    +0.000 A 
ATOM      2  C   UNL     1      45.962   6.177  10.954  0.00  0.00    +0.000 A 
ATOM      3  C   UNL     1      47.078   6.863  11.431  0.00  0.00    +0.000 A 
ATOM      4  C   UNL     1      47.744   6.428  12.583  0.00  0.00    +0.000 A 
ATOM      5  C   UNL     1      47.244   5.317  13.269  0.00  0.00    +0.000 A 
ATOM      6  C   UNL     1      46.109   4.647  12.806  0.00  0.00    +0.000 A 
ENDROOT
BRANCH   1   7
ATOM      7  C   UNL     1      44.200   4.363  11.095  0.00  0.00    +0.000 C 
BRANCH   7   8
ATOM      8  N   UNL     1      44.324   4.016   9.662  0.00  0.00    +0.000 NA
ATOM      9  H   UNL     1      44.989   4.637   9.209  0.00  0.00    +0.000 HD
BRANCH   8  10
ATOM     10  C   UNL     1      44.728   2.626   9.439  0.00  0.00    +0.000 C 
BRANCH  10  11
ATOM     11  C   UNL     1      45.704   2.484   8.297  0.00  0.00    +0.000 A 
ATOM     12  C   UNL     1      46.034   3.589   7.493  0.00  0.00    +0.000 A 
ATOM     13  C   UNL     1      46.970   3.458   6.469  0.00  0.00    +0.000 A 
ATOM     14  C   UNL     1      47.585   2.232   6.239  0.00  0.00    +0.000 A 
ATOM     15  C   UNL     1      47.269   1.131   7.034  0.00  0.00    +0.000 A 
ATOM     16  C   UNL     1      46.335   1.256   8.059  0.00  0.00    +0.000 A 
ENDBRANCH  10  11
ENDBRANCH   8  10
ENDBRANCH   7   8
BRANCH   7  17
ATOM     17  C   UNL     1      42.934   5.233  11.375  0.00  0.00    +0.000 C 
BRANCH  17  19
ATOM     18  C   UNL     1      42.929   4.307  13.538  0.00  0.00    +0.000 C 
ATOM     19  O   UNL     1      42.721   5.489  12.768  0.00  0.00    +0.000 OA
ENDBRANCH  17  19
ENDBRANCH   7  17
ENDBRANCH   1   7
BRANCH   4  20
ATOM     20  C   UNL     1      48.989   7.139  13.053  0.00  0.00    +0.000 C 
BRANCH  20  21
ATOM     21  N   UNL     1      48.864   7.537  14.448  0.00  0.00    +0.000 NA
ATOM     22  H   UNL     1      48.095   7.031  14.887  0.00  0.00    +0.000 HD
BRANCH  21  23
ATOM     23  C   UNL     1      50.090   7.238  15.202  0.00  0.00    +0.000 C 
BRANCH  23  24
ATOM     24  C   UNL     1      50.803   8.499  15.686  0.00  0.00    +0.000 A 
ATOM     25  N   UNL     1      51.602   8.383  16.768  0.00  0.00    +0.000 NA
ATOM     26  C   UNL     1      52.204   9.514  17.186  0.00  0.00    +0.000 A 
ATOM     27  C   UNL     1      52.040  10.735  16.576  0.00  0.00    +0.000 A 
ATOM     28  C   UNL     1      51.213  10.741  15.478  0.00  0.00    +0.000 A 
ATOM     29  N   UNL     1      50.587   9.646  15.009  0.00  0.00    +0.000 NA
ENDBRANCH  23  24
ENDBRANCH  21  23
ENDBRANCH  20  21
ENDBRANCH   4  20
TORSDOF 10
ENDMDL
