MODEL 1
REMARK VINA RESULT:    -8.410      0.000      0.000
REMARK INTER + INTRA:         -12.762
REMARK INTER:                 -11.851
REMARK INTRA:                  -0.911
REMARK UNBOUND:                -0.911
REMARK  Name = 
REMARK  9 active torsions:
REMARK  status: ('A' for Active; 'I' for Inactive)
REMARK    1  A    between atoms: C_1  and  C_2
REMARK    2  A    between atoms: C_6  and  C_7
REMARK    3  A    between atoms: C_7  and  N_8
REMARK    4  A    between atoms: N_8  and  C_9
REMARK    5  A    between atoms: C_9  and  C_10
REMARK    6  A    between atoms: C_13  and  C_14
REMARK    7  A    between atoms: C_14  and  N_15
REMARK    8  A    between atoms: C_16  and  C_18
REMARK    9  A    between atoms: C_29  and  C_30
REMARK                            x       y       z     vdW  Elec       q    Type
REMARK                         _______ _______ _______ _____ _____    ______ ____
ROOT
ATOM      1  C   UNL     1      44.491   5.975  11.581  0.00  0.00    +0.000 A 
ATOM      2  C   UNL     1      44.542   7.368  11.396  0.00  0.00    +0.000 A 
ATOM      3  C   UNL     1      45.506   8.158  12.036  0.00  0.00    +0.000 A 
ATOM      4  C   UNL     1      46.441   7.583  12.901  0.00  0.00    +0.000 A 
ATOM      5  C   UNL     1      46.387   6.200  13.114  0.00  0.00    +0.000 A 
ATOM      6  C   UNL     1      45.430   5.390  12.465  0.00  0.00    +0.000 A 
ATOM      7  C   UNL     1      45.435   3.912  12.752  0.00  0.00    +0.000 C 
ENDROOT
BRANCH   1   8
ATOM      8  C   UNL     1      43.384   5.148  10.938  0.00  0.00    +0.000 C 
BRANCH   8   9
ATOM      9  N   UNL     1      43.626   4.649   9.566  0.00  0.00    +0.000 NA
ATOM     10  H   UNL     1      42.713   4.558   9.118  0.00  0.00    +0.000 HD
BRANCH   9  11
ATOM     11  C   UNL     1      44.223   3.301   9.616  0.00  0.00    +0.000 C 
BRANCH  11  17
ATOM     12  C   UNL     1      46.872  -0.213   7.656  0.00  0.00    +0.000 C 
ATOM     13  C   UNL     1      46.589   1.256   7.676  0.00  0.00    +0.000 A 
ATOM     14  C   UNL     1      47.354   2.160   6.953  0.00  0.00    +0.000 A 
ATOM     15  C   UNL     1      47.054   3.514   7.053  0.00  0.00    +0.000 A 
ATOM     16  C   UNL     1      46.012   3.935   7.884  0.00  0.00    +0.000 A 
ATOM     17  C   UNL     1      45.285   2.975   8.581  0.00  0.00    +0.000 A 
ATOM     18  N   UNL     1      45.566   1.649   8.468  0.00  0.00    +0.000 NA
ENDBRANCH  11  17
ENDBRANCH   9  11
ENDBRANCH   8   9
ENDBRANCH   1   8
BRANCH   4  19
ATOM     19  C   UNL     1      47.448   8.437  13.633  0.00  0.00    +0.000 C 
BRANCH  19  20
ATOM     20  N   UNL     1      47.719   7.920  14.954  0.00  0.00    +0.000 N 
ATOM     21  C   UNL     1      48.814   7.129  15.202  0.00  0.00    +0.000 C 
ATOM     22  O   UNL     1      49.629   6.858  14.325  0.00  0.00    +0.000 OA
ATOM     23  H   UNL     1      46.956   7.947  15.624  0.00  0.00    +0.000 HD
BRANCH  21  24
ATOM     24  C   UNL     1      48.999   6.661  16.582  0.00  0.00    +0.000 A 
ATOM     25  C   UNL     1      49.565   7.506  17.527  0.00  0.00    +0.000 A 
ATOM     26  S   UNL     1      49.673   6.830  19.088  0.00  0.00    +0.000 S 
ATOM     27  C   UNL     1      49.012   5.356  18.550  0.00  0.00    +0.000 A 
ATOM     28  N   UNL     1      48.851   4.311  19.407  0.00  0.00    +0.000 NA
ATOM     29  C   UNL     1      48.368   3.246  18.862  0.00  0.00    +0.000 A 
ATOM     30  N   UNL     1      48.025   3.132  17.539  0.00  0.00    +0.000 N 
ATOM     31  C   UNL     1      48.143   4.171  16.645  0.00  0.00    +0.000 A 
ATOM     32  O   UNL     1      47.794   4.043  15.477  0.00  0.00    +0.000 OA
ATOM     33  C   UNL     1      48.697   5.394  17.203  0.00  0.00    +0.000 A 
ATOM     34  H   UNL     1      47.643   2.271  17.177  0.00  0.00    +0.000 HD
ENDBRANCH  21  24
ENDBRANCH  19  20
ENDBRANCH   4  19
TORSDOF 7
ENDMDL
MODEL 2
REMARK VINA RESULT:    -8.132      1.127      1.706
REMARK INTER + INTRA:         -12.371
REMARK INTER:                 -11.376
REMARK INTRA:                  -0.995
REMARK UNBOUND:                -0.911
REMARK  Name = 
REMARK  9 active torsions:
REMARK  status: ('A' for Active; 'I' for Inactive)
REMARK    1  A    between atoms: C_1  and  C_2
REMARK    2  A    between atoms: C_6  and  C_7
REMARK    3  A    between atoms: C_7  and  N_8
REMARK    4  A    between atoms: N_8  and  C_9
REMARK    5  A    between atoms: C_9  and  C_10
REMARK    6  A    between atoms: C_13  and  C_14
REMARK    7  A    between atoms: C_14  and  N_15
REMARK    8  A    between atoms: C_16  and  C_18
REMARK    9  A    between atoms: C_29  and  C_30
REMARK                            x       y       z     vdW  Elec       q    Type
REMARK                         _______ _______ _______ _____ _____    ______ ____
ROOT
ATOM      1  C   UNL     1      44.679   4.319  12.283  0.00  0.00    +0.000 A 
ATOM      2  C   UNL     1      45.909   3.998  12.885  0.00  0.00    +0.000 A 
ATOM      3  C   UNL     1      46.816   4.993  13.275  0.00  0.00    +0.000 A 
ATOM      4  C   UNL     1      46.531   6.344  13.058  0.00  0.00    +0.000 A 
ATOM      5  C   UNL     1      45.321   6.677  12.437  0.00  0.00    +0.000 A 
ATOM      6  C   UNL     1      44.392   5.686  12.051  0.00  0.00    +0.000 A 
ATOM      7  C   UNL     1      43.116   6.128  11.385  0.00  0.00    +0.000 C 
ENDROOT
BRANCH   1   8
ATOM      8  C   UNL     1      43.746   3.218  11.793  0.00  0.00    +0.000 C 
BRANCH   8   9
ATOM      9  N   UNL     1      44.225   2.377  10.673  0.00  0.00    +0.000 NA
ATOM     10  H   UNL     1      45.166   2.064  10.920  0.00  0.00    +0.000 HD
BRANCH   9  11
ATOM     11  C   UNL     1      44.343   3.187   9.446  0.00  0.00    +0.000 C 
BRANCH  11  17
ATOM     12  C   UNL     1      46.874  -0.511   7.678  0.00  0.00    +0.000 C 
ATOM     13  C   UNL     1      46.651   0.967   7.633  0.00  0.00    +0.000 A 
ATOM     14  C   UNL     1      47.464   1.808   6.886  0.00  0.00    +0.000 A 
ATOM     15  C   UNL     1      47.219   3.177   6.925  0.00  0.00    +0.000 A 
ATOM     16  C   UNL     1      46.183   3.674   7.720  0.00  0.00    +0.000 A 
ATOM     17  C   UNL     1      45.406   2.775   8.444  0.00  0.00    +0.000 A 
ATOM     18  N   UNL     1      45.633   1.435   8.390  0.00  0.00    +0.000 NA
ENDBRANCH  11  17
ENDBRANCH   9  11
ENDBRANCH   8   9
ENDBRANCH   1   8
BRANCH   4  19
ATOM     19  C   UNL     1      47.528   7.415  13.431  0.00  0.00    +0.000 C 
BRANCH  19  20
ATOM     20  N   UNL     1      47.724   7.480  14.860  0.00  0.00    +0.000 N 
ATOM     21  C   UNL     1      48.897   7.067  15.442  0.00  0.00    +0.000 C 
ATOM     22  O   UNL     1      49.844   6.660  14.773  0.00  0.00    +0.000 OA
ATOM     23  H   UNL     1      46.893   7.599  15.433  0.00  0.00    +0.000 HD
BRANCH  21  24
ATOM     24  C   UNL     1      48.993   7.181  16.903  0.00  0.00    +0.000 A 
ATOM     25  C   UNL     1      49.018   8.436  17.496  0.00  0.00    +0.000 A 
ATOM     26  S   UNL     1      49.090   8.398  19.199  0.00  0.00    +0.000 S 
ATOM     27  C   UNL     1      49.144   6.697  19.209  0.00  0.00    +0.000 A 
ATOM     28  N   UNL     1      49.238   6.010  20.380  0.00  0.00    +0.000 NA
ATOM     29  C   UNL     1      49.300   4.728  20.242  0.00  0.00    +0.000 A 
ATOM     30  N   UNL     1      49.270   4.070  19.039  0.00  0.00    +0.000 N 
ATOM     31  C   UNL     1      49.146   4.722  17.834  0.00  0.00    +0.000 A 
ATOM     32  O   UNL     1      49.087   4.099  16.780  0.00  0.00    +0.000 OA
ATOM     33  C   UNL     1      49.087   6.172  17.930  0.00  0.00    +0.000 A 
ATOM     34  H   UNL     1      49.314   3.063  19.001  0.00  0.00    +0.000 HD
ENDBRANCH  21  24
ENDBRANCH  19  20
ENDBRANCH   4  19
TORSDOF 7
ENDMDL
MODEL 3
REMARK VINA RESULT:    -7.939      1.744      2.218
REMARK INTER + INTRA:         -12.100
REMARK INTER:                 -10.757
REMARK INTRA:                  -1.343
REMARK UNBOUND:                -0.911
REMARK  Name = 
REMARK  9 active torsions:
REMARK  status: ('A' for Active; 'I' for Inactive)
REMARK    1  A    between atoms: C_1  and  C_2
REMARK    2  A    between atoms: C_6  and  C_7
REMARK    3  A    between atoms: C_7  and  N_8
REMARK    4  A    between atoms: N_8  and  C_9
REMARK    5  A    between atoms: C_9  and  C_10
REMARK    6  A    between atoms: C_13  and  C_14
REMARK    7  A    between atoms: C_14  and  N_15
REMARK    8  A    between atoms: C_16  and  C_18
REMARK    9  A    between atoms: C_29  and  C_30
REMARK                            x       y       z     vdW  Elec       q    Type
REMARK                         _______ _______ _______ _____ _____    ______ ____
ROOT
ATOM      1  C   UNL     1      44.622   4.787  12.650  0.00  0.00    +0.000 A 
ATOM      2  C   UNL     1      45.852   4.405  13.215  0.00  0.00    +0.000 A 
ATOM      3  C   UNL     1      46.959   5.265  13.214  0.00  0.00    +0.000 A 
ATOM      4  C   UNL     1      46.877   6.532  12.629  0.00  0.00    +0.000 A 
ATOM      5  C   UNL     1      45.666   6.917  12.041  0.00  0.00    +0.000 A 
ATOM      6  C   UNL     1      44.540   6.066  12.047  0.00  0.00    +0.000 A 
ATOM      7  C   UNL     1      43.276   6.553  11.389  0.00  0.00    +0.000 C 
ENDROOT
BRANCH   1   8
ATOM      8  C   UNL     1      43.459   3.804  12.590  0.00  0.00    +0.000 C 
BRANCH   8   9
ATOM      9  N   UNL     1      43.032   3.346  11.249  0.00  0.00    +0.000 NA
ATOM     10  H   UNL     1      42.141   2.862  11.371  0.00  0.00    +0.000 HD
BRANCH   9  11
ATOM     11  C   UNL     1      43.994   2.360  10.722  0.00  0.00    +0.000 C 
BRANCH  11  17
ATOM     12  C   UNL     1      47.081   0.832   7.354  0.00  0.00    +0.000 C 
ATOM     13  C   UNL     1      46.330   2.005   7.901  0.00  0.00    +0.000 A 
ATOM     14  C   UNL     1      46.528   3.291   7.419  0.00  0.00    +0.000 A 
ATOM     15  C   UNL     1      45.821   4.336   8.005  0.00  0.00    +0.000 A 
ATOM     16  C   UNL     1      44.950   4.076   9.066  0.00  0.00    +0.000 A 
ATOM     17  C   UNL     1      44.799   2.763   9.499  0.00  0.00    +0.000 A 
ATOM     18  N   UNL     1      45.475   1.738   8.914  0.00  0.00    +0.000 NA
ENDBRANCH  11  17
ENDBRANCH   9  11
ENDBRANCH   8   9
ENDBRANCH   1   8
BRANCH   4  19
ATOM     19  C   UNL     1      48.082   7.441  12.580  0.00  0.00    +0.000 C 
BRANCH  19  20
ATOM     20  N   UNL     1      49.112   7.001  13.492  0.00  0.00    +0.000 N 
ATOM     21  C   UNL     1      49.330   7.639  14.688  0.00  0.00    +0.000 C 
ATOM     22  O   UNL     1      48.638   8.586  15.053  0.00  0.00    +0.000 OA
ATOM     23  H   UNL     1      49.822   6.378  13.117  0.00  0.00    +0.000 HD
BRANCH  21  24
ATOM     24  C   UNL     1      50.400   7.106  15.542  0.00  0.00    +0.000 A 
ATOM     25  C   UNL     1      51.690   7.603  15.423  0.00  0.00    +0.000 A 
ATOM     26  S   UNL     1      52.805   6.911  16.511  0.00  0.00    +0.000 S 
ATOM     27  C   UNL     1      51.614   5.878  17.152  0.00  0.00    +0.000 A 
ATOM     28  N   UNL     1      51.922   4.985  18.132  0.00  0.00    +0.000 NA
ATOM     29  C   UNL     1      50.933   4.243  18.505  0.00  0.00    +0.000 A 
ATOM     30  N   UNL     1      49.663   4.318  17.992  0.00  0.00    +0.000 N 
ATOM     31  C   UNL     1      49.302   5.225  17.024  0.00  0.00    +0.000 A 
ATOM     32  O   UNL     1      48.148   5.287  16.613  0.00  0.00    +0.000 OA
ATOM     33  C   UNL     1      50.382   6.078  16.554  0.00  0.00    +0.000 A 
ATOM     34  H   UNL     1      48.932   3.713  18.335  0.00  0.00    +0.000 HD
ENDBRANCH  21  24
ENDBRANCH  19  20
ENDBRANCH   4  19
TORSDOF 7
ENDMDL
MODEL 4
REMARK VINA RESULT:    -7.608      2.839      8.342
REMARK INTER + INTRA:         -11.633
REMARK INTER:                  -9.950
REMARK INTRA:                  -1.683
REMARK UNBOUND:                -0.911
REMARK  Name = 
REMARK  9 active torsions:
REMARK  status: ('A' for Active; 'I' for Inactive)
REMARK    1  A    between atoms: C_1  and  C_2
REMARK    2  A    between atoms: C_6  and  C_7
REMARK    3  A    between atoms: C_7  and  N_8
REMARK    4  A    between atoms: N_8  and  C_9
REMARK    5  A    between atoms: C_9  and  C_10
REMARK    6  A    between atoms: C_13  and  C_14
REMARK    7  A    between atoms: C_14  and  N_15
REMARK    8  A    between atoms: C_16  and  C_18
REMARK    9  A    between atoms: C_29  and  C_30
REMARK                            x       y       z     vdW  Elec       q    Type
REMARK                         _______ _______ _______ _____ _____    ______ ____
ROOT
ATOM      1  C   UNL     1      49.201   7.799  16.428  0.00  0.00    +0.000 A 
ATOM      2  C   UNL     1      49.392   6.715  15.552  0.00  0.00    +0.000 A 
ATOM      3  C   UNL     1      48.900   6.738  14.240  0.00  0.00    +0.000 A 
ATOM      4  C   UNL     1      48.182   7.839  13.765  0.00  0.00    +0.000 A 
ATOM      5  C   UNL     1      47.963   8.915  14.634  0.00  0.00    +0.000 A 
ATOM      6  C   UNL     1      48.464   8.911  15.954  0.00  0.00    +0.000 A 
ATOM      7  C   UNL     1      48.180  10.105  16.826  0.00  0.00    +0.000 C 
ENDROOT
BRANCH   1   8
ATOM      8  C   UNL     1      49.674   7.718  17.874  0.00  0.00    +0.000 C 
BRANCH   8   9
ATOM      9  N   UNL     1      48.666   7.347  18.893  0.00  0.00    +0.000 NA
ATOM     10  H   UNL     1      48.779   7.997  19.672  0.00  0.00    +0.000 HD
BRANCH   9  11
ATOM     11  C   UNL     1      48.944   5.994  19.411  0.00  0.00    +0.000 C 
BRANCH  11  17
ATOM     12  C   UNL     1      50.598   2.058  17.181  0.00  0.00    +0.000 C 
ATOM     13  C   UNL     1      49.412   2.939  17.414  0.00  0.00    +0.000 A 
ATOM     14  C   UNL     1      48.216   2.752  16.735  0.00  0.00    +0.000 A 
ATOM     15  C   UNL     1      47.170   3.637  16.977  0.00  0.00    +0.000 A 
ATOM     16  C   UNL     1      47.348   4.694  17.874  0.00  0.00    +0.000 A 
ATOM     17  C   UNL     1      48.573   4.822  18.520  0.00  0.00    +0.000 A 
ATOM     18  N   UNL     1      49.590   3.945  18.299  0.00  0.00    +0.000 NA
ENDBRANCH  11  17
ENDBRANCH   9  11
ENDBRANCH   8   9
ENDBRANCH   1   8
BRANCH   4  19
ATOM     19  C   UNL     1      47.607   7.844  12.369  0.00  0.00    +0.000 C 
BRANCH  19  20
ATOM     20  N   UNL     1      46.921   6.607  12.076  0.00  0.00    +0.000 N 
ATOM     21  C   UNL     1      45.549   6.532  12.076  0.00  0.00    +0.000 C 
ATOM     22  O   UNL     1      44.846   7.516  12.288  0.00  0.00    +0.000 OA
ATOM     23  H   UNL     1      47.472   5.755  12.118  0.00  0.00    +0.000 HD
BRANCH  21  24
ATOM     24  C   UNL     1      44.954   5.227  11.759  0.00  0.00    +0.000 A 
ATOM     25  C   UNL     1      44.259   4.530  12.737  0.00  0.00    +0.000 A 
ATOM     26  S   UNL     1      43.596   3.054  12.201  0.00  0.00    +0.000 S 
ATOM     27  C   UNL     1      44.258   3.264  10.647  0.00  0.00    +0.000 A 
ATOM     28  N   UNL     1      44.080   2.321   9.681  0.00  0.00    +0.000 NA
ATOM     29  C   UNL     1      44.660   2.592   8.560  0.00  0.00    +0.000 A 
ATOM     30  N   UNL     1      45.397   3.723   8.315  0.00  0.00    +0.000 N 
ATOM     31  C   UNL     1      45.577   4.714   9.251  0.00  0.00    +0.000 A 
ATOM     32  O   UNL     1      46.213   5.728   8.985  0.00  0.00    +0.000 OA
ATOM     33  C   UNL     1      44.956   4.454  10.541  0.00  0.00    +0.000 A 
ATOM     34  H   UNL     1      45.818   3.878   7.412  0.00  0.00    +0.000 HD
ENDBRANCH  21  24
ENDBRANCH  19  20
ENDBRANCH   4  19
TORSDOF 7
ENDMDL
MODEL 5
REMARK VINA RESULT:    -7.373      3.774      8.866
REMARK INTER + INTRA:         -11.301
REMARK INTER:                  -9.291
REMARK INTRA:                  -2.011
REMARK UNBOUND:                -0.911
REMARK  Name = 
REMARK  9 active torsions:
REMARK  status: ('A' for Active; 'I' for Inactive)
REMARK    1  A    between atoms: C_1  and  C_2
REMARK    2  A    between atoms: C_6  and  C_7
REMARK    3  A    between atoms: C_7  and  N_8
REMARK    4  A    between atoms: N_8  and  C_9
REMARK    5  A    between atoms: C_9  and  C_10
REMARK    6  A    between atoms: C_13  and  C_14
REMARK    7  A    between atoms: C_14  and  N_15
REMARK    8  A    between atoms: C_16  and  C_18
REMARK    9  A    between atoms: C_29  and  C_30
REMARK                            x       y       z     vdW  Elec       q    Type
REMARK                         _______ _______ _______ _____ _____    ______ ____
ROOT
ATOM      1  C   UNL     1      50.248   5.050  19.248  0.00  0.00    +0.000 A 
ATOM      2  C   UNL     1      48.918   5.492  19.368  0.00  0.00    +0.000 A 
ATOM      3  C   UNL     1      47.891   4.945  18.587  0.00  0.00    +0.000 A 
ATOM      4  C   UNL     1      48.163   3.949  17.644  0.00  0.00    +0.000 A 
ATOM      5  C   UNL     1      49.487   3.517  17.497  0.00  0.00    +0.000 A 
ATOM      6  C   UNL     1      50.529   4.049  18.287  0.00  0.00    +0.000 A 
ATOM      7  C   UNL     1      51.926   3.534  18.063  0.00  0.00    +0.000 C 
ENDROOT
BRANCH   1   8
ATOM      8  C   UNL     1      51.360   5.716  20.050  0.00  0.00    +0.000 C 
BRANCH   8   9
ATOM      9  N   UNL     1      51.508   7.182  19.907  0.00  0.00    +0.000 NA
ATOM     10  H   UNL     1      50.569   7.581  19.954  0.00  0.00    +0.000 HD
BRANCH   9  11
ATOM     11  C   UNL     1      52.055   7.509  18.577  0.00  0.00    +0.000 C 
BRANCH  11  17
ATOM     12  C   UNL     1      47.900   9.572  17.278  0.00  0.00    +0.000 C 
ATOM     13  C   UNL     1      49.019   8.673  16.855  0.00  0.00    +0.000 A 
ATOM     14  C   UNL     1      48.995   7.994  15.645  0.00  0.00    +0.000 A 
ATOM     15  C   UNL     1      50.054   7.145  15.339  0.00  0.00    +0.000 A 
ATOM     16  C   UNL     1      51.099   6.982  16.251  0.00  0.00    +0.000 A 
ATOM     17  C   UNL     1      51.060   7.694  17.446  0.00  0.00    +0.000 A 
ATOM     18  N   UNL     1      50.034   8.539  17.737  0.00  0.00    +0.000 NA
ENDBRANCH  11  17
ENDBRANCH   9  11
ENDBRANCH   8   9
ENDBRANCH   1   8
BRANCH   4  19
ATOM     19  C   UNL     1      47.068   3.395  16.765  0.00  0.00    +0.000 C 
BRANCH  19  20
ATOM     20  N   UNL     1      46.627   4.368  15.794  0.00  0.00    +0.000 N 
ATOM     21  C   UNL     1      46.815   4.173  14.448  0.00  0.00    +0.000 C 
ATOM     22  O   UNL     1      47.331   3.149  14.008  0.00  0.00    +0.000 OA
ATOM     23  H   UNL     1      46.407   5.297  16.142  0.00  0.00    +0.000 HD
BRANCH  21  24
ATOM     24  C   UNL     1      46.322   5.223  13.547  0.00  0.00    +0.000 A 
ATOM     25  C   UNL     1      47.137   6.303  13.236  0.00  0.00    +0.000 A 
ATOM     26  S   UNL     1      46.436   7.412  12.148  0.00  0.00    +0.000 S 
ATOM     27  C   UNL     1      44.990   6.516  12.089  0.00  0.00    +0.000 A 
ATOM     28  N   UNL     1      43.938   6.942  11.337  0.00  0.00    +0.000 NA
ATOM     29  C   UNL     1      42.895   6.186  11.406  0.00  0.00    +0.000 A 
ATOM     30  N   UNL     1      42.809   5.039  12.153  0.00  0.00    +0.000 N 
ATOM     31  C   UNL     1      43.857   4.557  12.903  0.00  0.00    +0.000 A 
ATOM     32  O   UNL     1      43.756   3.509  13.531  0.00  0.00    +0.000 OA
ATOM     33  C   UNL     1      45.056   5.379  12.874  0.00  0.00    +0.000 A 
ATOM     34  H   UNL     1      41.965   4.487  12.157  0.00  0.00    +0.000 HD
ENDBRANCH  21  24
ENDBRANCH  19  20
ENDBRANCH   4  19
TORSDOF 7
ENDMDL
MODEL 6
REMARK VINA RESULT:    -7.222      3.882      6.605
REMARK INTER + INTRA:         -11.089
REMARK INTER:                 -10.332
REMARK INTRA:                  -0.757
REMARK UNBOUND:                -0.911
REMARK  Name = 
REMARK  9 active torsions:
REMARK  status: ('A' for Active; 'I' for Inactive)
REMARK    1  A    between atoms: C_1  and  C_2
REMARK    2  A    between atoms: C_6  and  C_7
REMARK    3  A    between atoms: C_7  and  N_8
REMARK    4  A    between atoms: N_8  and  C_9
REMARK    5  A    between atoms: C_9  and  C_10
REMARK    6  A    between atoms: C_13  and  C_14
REMARK    7  A    between atoms: C_14  and  N_15
REMARK    8  A    between atoms: C_16  and  C_18
REMARK    9  A    between atoms: C_29  and  C_30
REMARK                            x       y       z     vdW  Elec       q    Type
REMARK                         _______ _______ _______ _____ _____    ______ ____
ROOT
ATOM      1  C   UNL     1      45.124   7.809  12.023  0.00  0.00    +0.000 A 
ATOM      2  C   UNL     1      44.211   6.774  12.293  0.00  0.00    +0.000 A 
ATOM      3  C   UNL     1      44.589   5.630  13.008  0.00  0.00    +0.000 A 
ATOM      4  C   UNL     1      45.902   5.473  13.462  0.00  0.00    +0.000 A 
ATOM      5  C   UNL     1      46.828   6.484  13.180  0.00  0.00    +0.000 A 
ATOM      6  C   UNL     1      46.458   7.648  12.472  0.00  0.00    +0.000 A 
ATOM      7  C   UNL     1      47.516   8.686  12.205  0.00  0.00    +0.000 C 
ENDROOT
BRANCH   1   8
ATOM      8  C   UNL     1      44.711   9.005  11.173  0.00  0.00    +0.000 C 
BRANCH   8   9
ATOM      9  N   UNL     1      43.272   9.143  10.859  0.00  0.00    +0.000 NA
ATOM     10  H   UNL     1      43.154   8.869   9.882  0.00  0.00    +0.000 HD
BRANCH   9  11
ATOM     11  C   UNL     1      42.863  10.555  10.969  0.00  0.00    +0.000 C 
BRANCH  11  17
ATOM     12  C   UNL     1      40.058  12.639  14.285  0.00  0.00    +0.000 C 
ATOM     13  C   UNL     1      40.092  11.815  13.037  0.00  0.00    +0.000 A 
ATOM     14  C   UNL     1      38.941  11.263  12.492  0.00  0.00    +0.000 A 
ATOM     15  C   UNL     1      39.058  10.476  11.351  0.00  0.00    +0.000 A 
ATOM     16  C   UNL     1      40.318  10.246  10.792  0.00  0.00    +0.000 A 
ATOM     17  C   UNL     1      41.430  10.831  11.389  0.00  0.00    +0.000 A 
ATOM     18  N   UNL     1      41.314  11.616  12.494  0.00  0.00    +0.000 NA
ENDBRANCH  11  17
ENDBRANCH   9  11
ENDBRANCH   8   9
ENDBRANCH   1   8
BRANCH   4  19
ATOM     19  C   UNL     1      46.325   4.219  14.189  0.00  0.00    +0.000 C 
BRANCH  19  20
ATOM     20  N   UNL     1      47.469   4.461  15.037  0.00  0.00    +0.000 N 
ATOM     21  C   UNL     1      47.490   4.044  16.346  0.00  0.00    +0.000 C 
ATOM     22  O   UNL     1      46.558   3.416  16.841  0.00  0.00    +0.000 OA
ATOM     23  H   UNL     1      48.138   5.156  14.720  0.00  0.00    +0.000 HD
BRANCH  21  24
ATOM     24  C   UNL     1      48.705   4.337  17.118  0.00  0.00    +0.000 A 
ATOM     25  C   UNL     1      48.839   5.563  17.754  0.00  0.00    +0.000 A 
ATOM     26  S   UNL     1      50.285   5.732  18.641  0.00  0.00    +0.000 S 
ATOM     27  C   UNL     1      50.815   4.186  18.167  0.00  0.00    +0.000 A 
ATOM     28  N   UNL     1      52.024   3.710  18.572  0.00  0.00    +0.000 NA
ATOM     29  C   UNL     1      52.314   2.538  18.116  0.00  0.00    +0.000 A 
ATOM     30  N   UNL     1      51.502   1.795  17.296  0.00  0.00    +0.000 N 
ATOM     31  C   UNL     1      50.262   2.225  16.887  0.00  0.00    +0.000 A 
ATOM     32  O   UNL     1      49.549   1.519  16.182  0.00  0.00    +0.000 OA
ATOM     33  C   UNL     1      49.889   3.548  17.360  0.00  0.00    +0.000 A 
ATOM     34  H   UNL     1      51.787   0.880  16.981  0.00  0.00    +0.000 HD
ENDBRANCH  21  24
ENDBRANCH  19  20
ENDBRANCH   4  19
TORSDOF 7
ENDMDL
MODEL 7
REMARK VINA RESULT:    -7.168      4.755      9.740
REMARK INTER + INTRA:         -11.013
REMARK INTER:                 -10.175
REMARK INTRA:                  -0.838
REMARK UNBOUND:                -0.911
REMARK  Name = 
REMARK  9 active torsions:
REMARK  status: ('A' for Active; 'I' for Inactive)
REMARK    1  A    between atoms: C_1  and  C_2
REMARK    2  A    between atoms: C_6  and  C_7
REMARK    3  A    between atoms: C_7  and  N_8
REMARK    4  A    between atoms: N_8  and  C_9
REMARK    5  A    between atoms: C_9  and  C_10
REMARK    6  A    between atoms: C_13  and  C_14
REMARK    7  A    between atoms: C_14  and  N_15
REMARK    8  A    between atoms: C_16  and  C_18
REMARK    9  A    between atoms: C_29  and  C_30
REMARK                            x       y       z     vdW  Elec       q    Type
REMARK                         _______ _______ _______ _____ _____    ______ ____
ROOT
ATOM      1  C   UNL     1      51.578   3.263  17.782  0.00  0.00    +0.000 A 
ATOM      2  C   UNL     1      50.837   2.128  17.407  0.00  0.00    +0.000 A 
ATOM      3  C   UNL     1      49.473   2.213  17.095  0.00  0.00    +0.000 A 
ATOM      4  C   UNL     1      48.799   3.436  17.166  0.00  0.00    +0.000 A 
ATOM      5  C   UNL     1      49.519   4.570  17.560  0.00  0.00    +0.000 A 
ATOM      6  C   UNL     1      50.896   4.501  17.865  0.00  0.00    +0.000 A 
ATOM      7  C   UNL     1      51.596   5.766  18.287  0.00  0.00    +0.000 C 
ENDROOT
BRANCH   1   8
ATOM      8  C   UNL     1      53.039   3.132  18.196  0.00  0.00    +0.000 C 
BRANCH   8   9
ATOM      9  N   UNL     1      53.418   1.920  18.955  0.00  0.00    +0.000 NA
ATOM     10  H   UNL     1      53.704   2.230  19.885  0.00  0.00    +0.000 HD
BRANCH   9  11
ATOM     11  C   UNL     1      54.588   1.276  18.330  0.00  0.00    +0.000 C 
BRANCH  11  17
ATOM     12  C   UNL     1      53.469  -2.917  20.422  0.00  0.00    +0.000 C 
ATOM     13  C   UNL     1      54.022  -2.255  19.200  0.00  0.00    +0.000 A 
ATOM     14  C   UNL     1      54.560  -2.986  18.150  0.00  0.00    +0.000 A 
ATOM     15  C   UNL     1      55.092  -2.298  17.065  0.00  0.00    +0.000 A 
ATOM     16  C   UNL     1      55.090  -0.901  17.060  0.00  0.00    +0.000 A 
ATOM     17  C   UNL     1      54.534  -0.230  18.145  0.00  0.00    +0.000 A 
ATOM     18  N   UNL     1      53.997  -0.903  19.198  0.00  0.00    +0.000 NA
ENDBRANCH  11  17
ENDBRANCH   9  11
ENDBRANCH   8   9
ENDBRANCH   1   8
BRANCH   4  19
ATOM     19  C   UNL     1      47.319   3.522  16.879  0.00  0.00    +0.000 C 
BRANCH  19  20
ATOM     20  N   UNL     1      47.032   4.530  15.885  0.00  0.00    +0.000 N 
ATOM     21  C   UNL     1      47.073   4.243  14.542  0.00  0.00    +0.000 C 
ATOM     22  O   UNL     1      47.320   3.112  14.129  0.00  0.00    +0.000 OA
ATOM     23  H   UNL     1      47.046   5.497  16.193  0.00  0.00    +0.000 HD
BRANCH  21  24
ATOM     24  C   UNL     1      46.758   5.339  13.617  0.00  0.00    +0.000 A 
ATOM     25  C   UNL     1      47.712   6.310  13.348  0.00  0.00    +0.000 A 
ATOM     26  S   UNL     1      47.207   7.488  12.224  0.00  0.00    +0.000 S 
ATOM     27  C   UNL     1      45.668   6.774  12.092  0.00  0.00    +0.000 A 
ATOM     28  N   UNL     1      44.715   7.319  11.287  0.00  0.00    +0.000 NA
ATOM     29  C   UNL     1      43.585   6.695  11.304  0.00  0.00    +0.000 A 
ATOM     30  N   UNL     1      43.324   5.571  12.046  0.00  0.00    +0.000 N 
ATOM     31  C   UNL     1      44.266   4.971  12.849  0.00  0.00    +0.000 A 
ATOM     32  O   UNL     1      44.007   3.948  13.472  0.00  0.00    +0.000 OA
ATOM     33  C   UNL     1      45.555   5.642  12.880  0.00  0.00    +0.000 A 
ATOM     34  H   UNL     1      42.419   5.126  12.007  0.00  0.00    +0.000 HD
ENDBRANCH  21  24
ENDBRANCH  19  20
ENDBRANCH   4  19
TORSDOF 7
ENDMDL
MODEL 8
REMARK VINA RESULT:    -7.084      1.985      2.567
REMARK INTER + INTRA:         -10.894
REMARK INTER:                 -10.135
REMARK INTRA:                  -0.759
REMARK UNBOUND:                -0.911
REMARK  Name = 
REMARK  9 active torsions:
REMARK  status: ('A' for Active; 'I' for Inactive)
REMARK    1  A    between atoms: C_1  and  C_2
REMARK    2  A    between atoms: C_6  and  C_7
REMARK    3  A    between atoms: C_7  and  N_8
REMARK    4  A    between atoms: N_8  and  C_9
REMARK    5  A    between atoms: C_9  and  C_10
REMARK    6  A    between atoms: C_13  and  C_14
REMARK    7  A    between atoms: C_14  and  N_15
REMARK    8  A    between atoms: C_16  and  C_18
REMARK    9  A    between atoms: C_29  and  C_30
REMARK                            x       y       z     vdW  Elec       q    Type
REMARK                         _______ _______ _______ _____ _____    ______ ____
ROOT
ATOM      1  C   UNL     1      45.764   6.238  12.036  0.00  0.00    +0.000 A 
ATOM      2  C   UNL     1      46.801   5.677  12.802  0.00  0.00    +0.000 A 
ATOM      3  C   UNL     1      47.586   6.460  13.659  0.00  0.00    +0.000 A 
ATOM      4  C   UNL     1      47.372   7.838  13.764  0.00  0.00    +0.000 A 
ATOM      5  C   UNL     1      46.359   8.414  12.989  0.00  0.00    +0.000 A 
ATOM      6  C   UNL     1      45.552   7.634  12.132  0.00  0.00    +0.000 A 
ATOM      7  C   UNL     1      44.486   8.332  11.328  0.00  0.00    +0.000 C 
ENDROOT
BRANCH   1   8
ATOM      8  C   UNL     1      44.978   5.380  11.051  0.00  0.00    +0.000 C 
BRANCH   8   9
ATOM      9  N   UNL     1      44.997   3.917  11.267  0.00  0.00    +0.000 NA
ATOM     10  H   UNL     1      45.978   3.633  11.286  0.00  0.00    +0.000 HD
BRANCH   9  11
ATOM     11  C   UNL     1      44.366   3.228  10.126  0.00  0.00    +0.000 C 
BRANCH  11  17
ATOM     12  C   UNL     1      46.811  -0.127   7.683  0.00  0.00    +0.000 C 
ATOM     13  C   UNL     1      46.450   1.322   7.767  0.00  0.00    +0.000 A 
ATOM     14  C   UNL     1      47.012   2.267   6.921  0.00  0.00    +0.000 A 
ATOM     15  C   UNL     1      46.656   3.602   7.086  0.00  0.00    +0.000 A 
ATOM     16  C   UNL     1      45.763   3.962   8.098  0.00  0.00    +0.000 A 
ATOM     17  C   UNL     1      45.236   2.963   8.910  0.00  0.00    +0.000 A 
ATOM     18  N   UNL     1      45.569   1.655   8.737  0.00  0.00    +0.000 NA
ENDBRANCH  11  17
ENDBRANCH   9  11
ENDBRANCH   8   9
ENDBRANCH   1   8
BRANCH   4  19
ATOM     19  C   UNL     1      48.249   8.692  14.646  0.00  0.00    +0.000 C 
BRANCH  19  20
ATOM     20  N   UNL     1      47.923   8.518  16.043  0.00  0.00    +0.000 N 
ATOM     21  C   UNL     1      48.572   9.226  17.024  0.00  0.00    +0.000 C 
ATOM     22  O   UNL     1      49.431  10.063  16.758  0.00  0.00    +0.000 OA
ATOM     23  H   UNL     1      47.388   7.691  16.289  0.00  0.00    +0.000 HD
BRANCH  21  24
ATOM     24  C   UNL     1      48.158   8.976  18.411  0.00  0.00    +0.000 A 
ATOM     25  C   UNL     1      47.938  10.045  19.268  0.00  0.00    +0.000 A 
ATOM     26  S   UNL     1      47.424   9.591  20.828  0.00  0.00    +0.000 S 
ATOM     27  C   UNL     1      47.526   7.938  20.434  0.00  0.00    +0.000 A 
ATOM     28  N   UNL     1      47.235   6.983  21.360  0.00  0.00    +0.000 NA
ATOM     29  C   UNL     1      47.382   5.772  20.939  0.00  0.00    +0.000 A 
ATOM     30  N   UNL     1      47.787   5.429  19.673  0.00  0.00    +0.000 N 
ATOM     31  C   UNL     1      48.062   6.360  18.699  0.00  0.00    +0.000 A 
ATOM     32  O   UNL     1      48.388   6.016  17.569  0.00  0.00    +0.000 OA
ATOM     33  C   UNL     1      47.927   7.744  19.125  0.00  0.00    +0.000 A 
ATOM     34  H   UNL     1      47.874   4.460  19.405  0.00  0.00    +0.000 HD
ENDBRANCH  21  24
ENDBRANCH  19  20
ENDBRANCH   4  19
TORSDOF 7
ENDMDL
MODEL 9
REMARK VINA RESULT:    -6.866      3.810      6.676
REMARK INTER + INTRA:         -10.587
REMARK INTER:                  -9.339
REMARK INTRA:                  -1.248
REMARK UNBOUND:                -0.911
REMARK  Name = 
REMARK  9 active torsions:
REMARK  status: ('A' for Active; 'I' for Inactive)
REMARK    1  A    between atoms: C_1  and  C_2
REMARK    2  A    between atoms: C_6  and  C_7
REMARK    3  A    between atoms: C_7  and  N_8
REMARK    4  A    between atoms: N_8  and  C_9
REMARK    5  A    between atoms: C_9  and  C_10
REMARK    6  A    between atoms: C_13  and  C_14
REMARK    7  A    between atoms: C_14  and  N_15
REMARK    8  A    between atoms: C_16  and  C_18
REMARK    9  A    between atoms: C_29  and  C_30
REMARK                            x       y       z     vdW  Elec       q    Type
REMARK                         _______ _______ _______ _____ _____    ______ ____
ROOT
ATOM      1  C   UNL     1      46.144   9.825  12.003  0.00  0.00    +0.000 A 
ATOM      2  C   UNL     1      45.044   8.958  11.876  0.00  0.00    +0.000 A 
ATOM      3  C   UNL     1      45.122   7.614  12.264  0.00  0.00    +0.000 A 
ATOM      4  C   UNL     1      46.311   7.085  12.776  0.00  0.00    +0.000 A 
ATOM      5  C   UNL     1      47.421   7.931  12.886  0.00  0.00    +0.000 A 
ATOM      6  C   UNL     1      47.353   9.291  12.511  0.00  0.00    +0.000 A 
ATOM      7  C   UNL     1      48.594  10.132  12.655  0.00  0.00    +0.000 C 
ENDROOT
BRANCH   1   8
ATOM      8  C   UNL     1      46.061  11.261  11.499  0.00  0.00    +0.000 C 
BRANCH   8   9
ATOM      9  N   UNL     1      45.019  12.125  12.097  0.00  0.00    +0.000 NA
ATOM     10  H   UNL     1      44.542  11.567  12.806  0.00  0.00    +0.000 HD
BRANCH   9  11
ATOM     11  C   UNL     1      44.015  12.487  11.079  0.00  0.00    +0.000 C 
BRANCH  11  17
ATOM     12  C   UNL     1      40.022  12.225  13.760  0.00  0.00    +0.000 C 
ATOM     13  C   UNL     1      40.731  11.711  12.547  0.00  0.00    +0.000 A 
ATOM     14  C   UNL     1      40.222  10.668  11.788  0.00  0.00    +0.000 A 
ATOM     15  C   UNL     1      40.959  10.219  10.696  0.00  0.00    +0.000 A 
ATOM     16  C   UNL     1      42.191  10.809  10.401  0.00  0.00    +0.000 A 
ATOM     17  C   UNL     1      42.642  11.851  11.204  0.00  0.00    +0.000 A 
ATOM     18  N   UNL     1      41.912  12.303  12.260  0.00  0.00    +0.000 NA
ENDBRANCH  11  17
ENDBRANCH   9  11
ENDBRANCH   8   9
ENDBRANCH   1   8
BRANCH   4  19
ATOM     19  C   UNL     1      46.413   5.626  13.147  0.00  0.00    +0.000 C 
BRANCH  19  20
ATOM     20  N   UNL     1      46.947   5.456  14.479  0.00  0.00    +0.000 N 
ATOM     21  C   UNL     1      47.305   4.218  14.954  0.00  0.00    +0.000 C 
ATOM     22  O   UNL     1      47.223   3.208  14.259  0.00  0.00    +0.000 OA
ATOM     23  H   UNL     1      46.816   6.225  15.128  0.00  0.00    +0.000 HD
BRANCH  21  24
ATOM     24  C   UNL     1      47.843   4.158  16.319  0.00  0.00    +0.000 A 
ATOM     25  C   UNL     1      47.344   3.225  17.217  0.00  0.00    +0.000 A 
ATOM     26  S   UNL     1      48.100   3.257  18.745  0.00  0.00    +0.000 S 
ATOM     27  C   UNL     1      49.093   4.560  18.282  0.00  0.00    +0.000 A 
ATOM     28  N   UNL     1      49.981   5.104  19.158  0.00  0.00    +0.000 NA
ATOM     29  C   UNL     1      50.648   6.104  18.688  0.00  0.00    +0.000 A 
ATOM     30  N   UNL     1      50.512   6.605  17.418  0.00  0.00    +0.000 N 
ATOM     31  C   UNL     1      49.649   6.068  16.492  0.00  0.00    +0.000 A 
ATOM     32  O   UNL     1      49.580   6.521  15.355  0.00  0.00    +0.000 OA
ATOM     33  C   UNL     1      48.860   4.946  16.974  0.00  0.00    +0.000 A 
ATOM     34  H   UNL     1      51.072   7.386  17.110  0.00  0.00    +0.000 HD
ENDBRANCH  21  24
ENDBRANCH  19  20
ENDBRANCH   4  19
TORSDOF 7
ENDMDL
