MODEL 1
REMARK VINA RESULT:    -8.150      0.000      0.000
REMARK INTER + INTRA:         -11.250
REMARK INTER:                 -10.532
REMARK INTRA:                  -0.718
REMARK UNBOUND:                -0.718
REMARK  Name = 
REMARK  7 active torsions:
REMARK  status: ('A' for Active; 'I' for Inactive)
REMARK    1  A    between atoms: C_1  and  C_2
REMARK    2  A    between atoms: C_4  and  C_5
REMARK    3  A    between atoms: C_5  and  C_6
REMARK    4  A    between atoms: C_5  and  C_7
REMARK    5  A    between atoms: C_7  and  N_8
REMARK    6  A    between atoms: C_12  and  C_13
REMARK    7  A    between atoms: C_19  and  C_20
REMARK                            x       y       z     vdW  Elec       q    Type
REMARK                         _______ _______ _______ _____ _____    ______ ____
ROOT
ATOM      1  C   UNL     1      44.186   4.857  12.087  0.00  0.00    +0.000 C 
ATOM      2  C   UNL     1      43.188   4.875  13.252  0.00  0.00    +0.000 C 
ENDROOT
BRANCH   1   6
ATOM      3  C   UNL     1      44.808   9.880  12.013  0.00  0.00    +0.000 C 
ATOM      4  C   UNL     1      45.392   8.500  12.108  0.00  0.00    +0.000 A 
ATOM      5  C   UNL     1      44.572   7.363  12.052  0.00  0.00    +0.000 A 
ATOM      6  C   UNL     1      45.116   6.074  12.151  0.00  0.00    +0.000 A 
ATOM      7  C   UNL     1      46.512   5.957  12.317  0.00  0.00    +0.000 A 
ATOM      8  C   UNL     1      47.356   7.089  12.397  0.00  0.00    +0.000 A 
ATOM      9  C   UNL     1      46.776   8.356  12.272  0.00  0.00    +0.000 A 
BRANCH   8  10
ATOM     10  C   UNL     1      48.857   6.911  12.613  0.00  0.00    +0.000 C 
ATOM     11  C   UNL     1      49.342   7.196  14.056  0.00  0.00    +0.000 C 
ATOM     12  C   UNL     1      49.986   8.565  14.293  0.00  0.00    +0.000 C 
ATOM     13  N   UNL     1      50.905   8.950  13.229  0.00  0.00    +0.000 NA
ATOM     14  C   UNL     1      50.192   9.010  11.956  0.00  0.00    +0.000 C 
ATOM     15  C   UNL     1      49.697   7.629  11.540  0.00  0.00    +0.000 C 
ATOM     16  H   UNL     1      51.661   8.265  13.164  0.00  0.00    +0.000 HD
ENDBRANCH   8  10
ENDBRANCH   1   6
BRANCH   1  17
ATOM     17  C   UNL     1      43.486   4.751  10.710  0.00  0.00    +0.000 C 
BRANCH  17  18
ATOM     18  N   UNL     1      44.365   5.146   9.595  0.00  0.00    +0.000 N 
ATOM     19  C   UNL     1      45.024   4.051   8.995  0.00  0.00    +0.000 A 
ATOM     20  C   UNL     1      45.927   4.289   7.962  0.00  0.00    +0.000 A 
ATOM     21  C   UNL     1      46.596   3.213   7.366  0.00  0.00    +0.000 A 
ATOM     22  C   UNL     1      46.344   1.914   7.811  0.00  0.00    +0.000 A 
ATOM     23  C   UNL     1      45.415   1.767   8.822  0.00  0.00    +0.000 A 
ATOM     24  N   UNL     1      44.759   2.798   9.415  0.00  0.00    +0.000 NA
ATOM     25  H   UNL     1      45.079   5.811   9.880  0.00  0.00    +0.000 HD
BRANCH  22  26
ATOM     26  C   UNL     1      47.066   0.774   7.193  0.00  0.00    +0.000 C 
ATOM     27  N   UNL     1      47.804   0.991   6.061  0.00  0.00    +0.000 N 
ATOM     28  O   UNL     1      47.002  -0.352   7.673  0.00  0.00    +0.000 OA
ATOM     29  H   UNL     1      47.911   1.865   5.573  0.00  0.00    +0.000 HD
ATOM     30  H   UNL     1      48.275   0.184   5.667  0.00  0.00    +0.000 HD
ENDBRANCH  22  26
ENDBRANCH  17  18
ENDBRANCH   1  17
TORSDOF 5
ENDMDL
MODEL 2
REMARK VINA RESULT:    -8.076      1.706      3.390
REMARK INTER + INTRA:         -11.155
REMARK INTER:                 -10.275
REMARK INTRA:                  -0.880
REMARK UNBOUND:                -0.718
REMARK  Name = 
REMARK  7 active torsions:
REMARK  status: ('A' for Active; 'I' for Inactive)
REMARK    1  A    between atoms: C_1  and  C_2
REMARK    2  A    between atoms: C_4  and  C_5
REMARK    3  A    between atoms: C_5  and  C_6
REMARK    4  A    between atoms: C_5  and  C_7
REMARK    5  A    between atoms: C_7  and  N_8
REMARK    6  A    between atoms: C_12  and  C_13
REMARK    7  A    between atoms: C_19  and  C_20
REMARK                            x       y       z     vdW  Elec       q    Type
REMARK                         _______ _______ _______ _____ _____    ______ ____
ROOT
ATOM      1  C   UNL     1      44.321   4.945  12.057  0.00  0.00    +0.000 C 
ATOM      2  C   UNL     1      43.341   4.891  13.236  0.00  0.00    +0.000 C 
ENDROOT
BRANCH   1   6
ATOM      3  C   UNL     1      48.901   7.069  12.417  0.00  0.00    +0.000 C 
ATOM      4  C   UNL     1      47.410   7.208  12.310  0.00  0.00    +0.000 A 
ATOM      5  C   UNL     1      46.583   6.077  12.241  0.00  0.00    +0.000 A 
ATOM      6  C   UNL     1      45.190   6.205  12.131  0.00  0.00    +0.000 A 
ATOM      7  C   UNL     1      44.649   7.506  12.083  0.00  0.00    +0.000 A 
ATOM      8  C   UNL     1      45.465   8.661  12.129  0.00  0.00    +0.000 A 
ATOM      9  C   UNL     1      46.846   8.489  12.261  0.00  0.00    +0.000 A 
BRANCH   8  10
ATOM     10  C   UNL     1      44.834  10.049  12.038  0.00  0.00    +0.000 C 
ATOM     11  C   UNL     1      43.644  10.155  11.052  0.00  0.00    +0.000 C 
ATOM     12  C   UNL     1      43.956  10.765   9.682  0.00  0.00    +0.000 C 
ATOM     13  N   UNL     1      44.814  11.941   9.767  0.00  0.00    +0.000 NA
ATOM     14  C   UNL     1      46.084  11.583  10.393  0.00  0.00    +0.000 C 
ATOM     15  C   UNL     1      45.880  11.162  11.845  0.00  0.00    +0.000 C 
ATOM     16  H   UNL     1      44.352  12.663  10.324  0.00  0.00    +0.000 HD
ENDBRANCH   8  10
ENDBRANCH   1   6
BRANCH   1  17
ATOM     17  C   UNL     1      43.605   4.831  10.688  0.00  0.00    +0.000 C 
BRANCH  17  18
ATOM     18  N   UNL     1      44.483   5.182   9.558  0.00  0.00    +0.000 N 
ATOM     19  C   UNL     1      45.104   4.059   8.971  0.00  0.00    +0.000 A 
ATOM     20  C   UNL     1      46.004   4.253   7.925  0.00  0.00    +0.000 A 
ATOM     21  C   UNL     1      46.636   3.149   7.342  0.00  0.00    +0.000 A 
ATOM     22  C   UNL     1      46.352   1.866   7.811  0.00  0.00    +0.000 A 
ATOM     23  C   UNL     1      45.430   1.762   8.833  0.00  0.00    +0.000 A 
ATOM     24  N   UNL     1      44.809   2.821   9.415  0.00  0.00    +0.000 NA
ATOM     25  H   UNL     1      45.218   5.832   9.824  0.00  0.00    +0.000 HD
BRANCH  22  26
ATOM     26  C   UNL     1      47.035   0.695   7.206  0.00  0.00    +0.000 C 
ATOM     27  N   UNL     1      47.755   0.868   6.055  0.00  0.00    +0.000 N 
ATOM     28  O   UNL     1      46.955  -0.418   7.713  0.00  0.00    +0.000 OA
ATOM     29  H   UNL     1      47.873   1.729   5.545  0.00  0.00    +0.000 HD
ATOM     30  H   UNL     1      48.200   0.043   5.671  0.00  0.00    +0.000 HD
ENDBRANCH  22  26
ENDBRANCH  17  18
ENDBRANCH   1  17
TORSDOF 5
ENDMDL
MODEL 3
REMARK VINA RESULT:    -7.968      1.575      2.491
REMARK INTER + INTRA:         -11.014
REMARK INTER:                 -10.036
REMARK INTRA:                  -0.978
REMARK UNBOUND:                -0.718
REMARK  Name = 
REMARK  7 active torsions:
REMARK  status: ('A' for Active; 'I' for Inactive)
REMARK    1  A    between atoms: C_1  and  C_2
REMARK    2  A    between atoms: C_4  and  C_5
REMARK    3  A    between atoms: C_5  and  C_6
REMARK    4  A    between atoms: C_5  and  C_7
REMARK    5  A    between atoms: C_7  and  N_8
REMARK    6  A    between atoms: C_12  and  C_13
REMARK    7  A    between atoms: C_19  and  C_20
REMARK                            x       y       z     vdW  Elec       q    Type
REMARK                         _______ _______ _______ _____ _____    ______ ____
ROOT
ATOM      1  C   UNL     1      43.492   5.437  11.684  0.00  0.00    +0.000 C 
ATOM      2  C   UNL     1      42.726   6.765  11.752  0.00  0.00    +0.000 C 
ENDROOT
BRANCH   1   6
ATOM      3  C   UNL     1      47.096   3.948  14.911  0.00  0.00    +0.000 C 
ATOM      4  C   UNL     1      46.630   4.865  13.818  0.00  0.00    +0.000 A 
ATOM      5  C   UNL     1      45.341   4.748  13.277  0.00  0.00    +0.000 A 
ATOM      6  C   UNL     1      44.908   5.598  12.249  0.00  0.00    +0.000 A 
ATOM      7  C   UNL     1      45.812   6.568  11.769  0.00  0.00    +0.000 A 
ATOM      8  C   UNL     1      47.124   6.691  12.284  0.00  0.00    +0.000 A 
ATOM      9  C   UNL     1      47.508   5.838  13.323  0.00  0.00    +0.000 A 
BRANCH   8  10
ATOM     10  C   UNL     1      48.078   7.734  11.707  0.00  0.00    +0.000 C 
ATOM     11  C   UNL     1      49.578   7.463  11.984  0.00  0.00    +0.000 C 
ATOM     12  C   UNL     1      50.207   8.264  13.128  0.00  0.00    +0.000 C 
ATOM     13  N   UNL     1      49.808   9.666  13.125  0.00  0.00    +0.000 NA
ATOM     14  C   UNL     1      48.357   9.767  13.258  0.00  0.00    +0.000 C 
ATOM     15  C   UNL     1      47.652   9.175  12.042  0.00  0.00    +0.000 C 
ATOM     16  H   UNL     1      50.100  10.104  12.250  0.00  0.00    +0.000 HD
ENDBRANCH   8  10
ENDBRANCH   1   6
BRANCH   1  17
ATOM     17  C   UNL     1      43.517   4.843  10.254  0.00  0.00    +0.000 C 
BRANCH  17  18
ATOM     18  N   UNL     1      43.975   3.441  10.230  0.00  0.00    +0.000 N 
ATOM     19  C   UNL     1      44.880   3.174   9.181  0.00  0.00    +0.000 A 
ATOM     20  C   UNL     1      45.352   1.874   9.009  0.00  0.00    +0.000 A 
ATOM     21  C   UNL     1      46.240   1.592   7.965  0.00  0.00    +0.000 A 
ATOM     22  C   UNL     1      46.649   2.619   7.113  0.00  0.00    +0.000 A 
ATOM     23  C   UNL     1      46.154   3.883   7.371  0.00  0.00    +0.000 A 
ATOM     24  N   UNL     1      45.288   4.175   8.375  0.00  0.00    +0.000 NA
ATOM     25  H   UNL     1      43.206   2.783  10.144  0.00  0.00    +0.000 HD
BRANCH  22  26
ATOM     26  C   UNL     1      47.578   2.319   5.995  0.00  0.00    +0.000 C 
ATOM     27  N   UNL     1      48.926   2.435   6.203  0.00  0.00    +0.000 N 
ATOM     28  O   UNL     1      47.158   1.981   4.895  0.00  0.00    +0.000 OA
ATOM     29  H   UNL     1      49.379   2.722   7.055  0.00  0.00    +0.000 HD
ATOM     30  H   UNL     1      49.525   2.228   5.412  0.00  0.00    +0.000 HD
ENDBRANCH  22  26
ENDBRANCH  17  18
ENDBRANCH   1  17
TORSDOF 5
ENDMDL
MODEL 4
REMARK VINA RESULT:    -7.351      4.444      8.291
REMARK INTER + INTRA:         -10.218
REMARK INTER:                  -9.475
REMARK INTRA:                  -0.743
REMARK UNBOUND:                -0.718
REMARK  Name = 
REMARK  7 active torsions:
REMARK  status: ('A' for Active; 'I' for Inactive)
REMARK    1  A    between atoms: C_1  and  C_2
REMARK    2  A    between atoms: C_4  and  C_5
REMARK    3  A    between atoms: C_5  and  C_6
REMARK    4  A    between atoms: C_5  and  C_7
REMARK    5  A    between atoms: C_7  and  N_8
REMARK    6  A    between atoms: C_12  and  C_13
REMARK    7  A    between atoms: C_19  and  C_20
REMARK                            x       y       z     vdW  Elec       q    Type
REMARK                         _______ _______ _______ _____ _____    ______ ____
ROOT
ATOM      1  C   UNL     1      48.181   6.482  12.796  0.00  0.00    +0.000 C 
ATOM      2  C   UNL     1      49.269   7.326  12.122  0.00  0.00    +0.000 C 
ENDROOT
BRANCH   1   6
ATOM      3  C   UNL     1      44.812  10.114  11.754  0.00  0.00    +0.000 C 
ATOM      4  C   UNL     1      45.179   8.659  11.806  0.00  0.00    +0.000 A 
ATOM      5  C   UNL     1      46.442   8.248  12.258  0.00  0.00    +0.000 A 
ATOM      6  C   UNL     1      46.790   6.890  12.298  0.00  0.00    +0.000 A 
ATOM      7  C   UNL     1      45.833   5.950  11.862  0.00  0.00    +0.000 A 
ATOM      8  C   UNL     1      44.561   6.342  11.382  0.00  0.00    +0.000 A 
ATOM      9  C   UNL     1      44.246   7.704  11.379  0.00  0.00    +0.000 A 
BRANCH   8  10
ATOM     10  C   UNL     1      43.572   5.289  10.887  0.00  0.00    +0.000 C 
ATOM     11  C   UNL     1      42.925   4.432  12.004  0.00  0.00    +0.000 C 
ATOM     12  C   UNL     1      43.522   3.037  12.214  0.00  0.00    +0.000 C 
ATOM     13  N   UNL     1      43.794   2.342  10.962  0.00  0.00    +0.000 NA
ATOM     14  C   UNL     1      44.742   3.114  10.164  0.00  0.00    +0.000 C 
ATOM     15  C   UNL     1      44.137   4.445   9.729  0.00  0.00    +0.000 C 
ATOM     16  H   UNL     1      42.924   2.226  10.438  0.00  0.00    +0.000 HD
ENDBRANCH   8  10
ENDBRANCH   1   6
BRANCH   1  17
ATOM     17  C   UNL     1      48.266   6.534  14.342  0.00  0.00    +0.000 C 
BRANCH  17  18
ATOM     18  N   UNL     1      47.583   5.398  14.987  0.00  0.00    +0.000 N 
ATOM     19  C   UNL     1      47.984   5.200  16.325  0.00  0.00    +0.000 A 
ATOM     20  C   UNL     1      47.456   4.125  17.037  0.00  0.00    +0.000 A 
ATOM     21  C   UNL     1      47.854   3.909  18.362  0.00  0.00    +0.000 A 
ATOM     22  C   UNL     1      48.771   4.779  18.955  0.00  0.00    +0.000 A 
ATOM     23  C   UNL     1      49.225   5.832  18.186  0.00  0.00    +0.000 A 
ATOM     24  N   UNL     1      48.854   6.056  16.898  0.00  0.00    +0.000 NA
ATOM     25  H   UNL     1      47.733   4.523  14.491  0.00  0.00    +0.000 HD
BRANCH  22  26
ATOM     26  C   UNL     1      49.208   4.542  20.354  0.00  0.00    +0.000 C 
ATOM     27  N   UNL     1      50.541   4.613  20.654  0.00  0.00    +0.000 N 
ATOM     28  O   UNL     1      48.399   4.277  21.234  0.00  0.00    +0.000 OA
ATOM     29  H   UNL     1      51.292   4.804  20.010  0.00  0.00    +0.000 HD
ATOM     30  H   UNL     1      50.798   4.438  21.619  0.00  0.00    +0.000 HD
ENDBRANCH  22  26
ENDBRANCH  17  18
ENDBRANCH   1  17
TORSDOF 5
ENDMDL
MODEL 5
REMARK VINA RESULT:    -7.308      4.510      7.861
REMARK INTER + INTRA:         -10.162
REMARK INTER:                  -9.429
REMARK INTRA:                  -0.733
REMARK UNBOUND:                -0.718
REMARK  Name = 
REMARK  7 active torsions:
REMARK  status: ('A' for Active; 'I' for Inactive)
REMARK    1  A    between atoms: C_1  and  C_2
REMARK    2  A    between atoms: C_4  and  C_5
REMARK    3  A    between atoms: C_5  and  C_6
REMARK    4  A    between atoms: C_5  and  C_7
REMARK    5  A    between atoms: C_7  and  N_8
REMARK    6  A    between atoms: C_12  and  C_13
REMARK    7  A    between atoms: C_19  and  C_20
REMARK                            x       y       z     vdW  Elec       q    Type
REMARK                         _______ _______ _______ _____ _____    ______ ____
ROOT
ATOM      1  C   UNL     1      48.929   6.964  14.809  0.00  0.00    +0.000 C 
ATOM      2  C   UNL     1      49.769   8.241  14.678  0.00  0.00    +0.000 C 
ENDROOT
BRANCH   1   6
ATOM      3  C   UNL     1      45.324   9.599  12.424  0.00  0.00    +0.000 C 
ATOM      4  C   UNL     1      46.000   8.290  12.713  0.00  0.00    +0.000 A 
ATOM      5  C   UNL     1      47.096   8.219  13.587  0.00  0.00    +0.000 A 
ATOM      6  C   UNL     1      47.734   6.999  13.850  0.00  0.00    +0.000 A 
ATOM      7  C   UNL     1      47.247   5.845  13.201  0.00  0.00    +0.000 A 
ATOM      8  C   UNL     1      46.158   5.895  12.300  0.00  0.00    +0.000 A 
ATOM      9  C   UNL     1      45.535   7.128  12.082  0.00  0.00    +0.000 A 
BRANCH   8  10
ATOM     10  C   UNL     1      45.689   4.624  11.594  0.00  0.00    +0.000 C 
ATOM     11  C   UNL     1      44.772   4.864  10.369  0.00  0.00    +0.000 C 
ATOM     12  C   UNL     1      43.270   4.678  10.605  0.00  0.00    +0.000 C 
ATOM     13  N   UNL     1      42.964   3.497  11.402  0.00  0.00    +0.000 NA
ATOM     14  C   UNL     1      43.608   3.601  12.708  0.00  0.00    +0.000 C 
ATOM     15  C   UNL     1      45.127   3.578  12.574  0.00  0.00    +0.000 C 
ATOM     16  H   UNL     1      43.303   2.661  10.921  0.00  0.00    +0.000 HD
ENDBRANCH   8  10
ENDBRANCH   1   6
BRANCH   1  17
ATOM     17  C   UNL     1      48.477   6.702  16.267  0.00  0.00    +0.000 C 
BRANCH  17  18
ATOM     18  N   UNL     1      47.956   5.337  16.463  0.00  0.00    +0.000 N 
ATOM     19  C   UNL     1      48.962   4.405  16.796  0.00  0.00    +0.000 A 
ATOM     20  C   UNL     1      48.615   3.065  16.958  0.00  0.00    +0.000 A 
ATOM     21  C   UNL     1      49.605   2.127  17.276  0.00  0.00    +0.000 A 
ATOM     22  C   UNL     1      50.926   2.548  17.436  0.00  0.00    +0.000 A 
ATOM     23  C   UNL     1      51.177   3.898  17.284  0.00  0.00    +0.000 A 
ATOM     24  N   UNL     1      50.232   4.822  16.971  0.00  0.00    +0.000 NA
ATOM     25  H   UNL     1      47.474   4.983  15.641  0.00  0.00    +0.000 HD
BRANCH  22  26
ATOM     26  C   UNL     1      51.979   1.553  17.757  0.00  0.00    +0.000 C 
ATOM     27  N   UNL     1      51.608   0.288  18.122  0.00  0.00    +0.000 N 
ATOM     28  O   UNL     1      53.167   1.850  17.709  0.00  0.00    +0.000 OA
ATOM     29  H   UNL     1      50.667  -0.058  18.213  0.00  0.00    +0.000 HD
ATOM     30  H   UNL     1      52.358  -0.359  18.340  0.00  0.00    +0.000 HD
ENDBRANCH  22  26
ENDBRANCH  17  18
ENDBRANCH   1  17
TORSDOF 5
ENDMDL
MODEL 6
REMARK VINA RESULT:    -7.232      4.026      8.228
REMARK INTER + INTRA:         -10.064
REMARK INTER:                  -9.185
REMARK INTRA:                  -0.878
REMARK UNBOUND:                -0.718
REMARK  Name = 
REMARK  7 active torsions:
REMARK  status: ('A' for Active; 'I' for Inactive)
REMARK    1  A    between atoms: C_1  and  C_2
REMARK    2  A    between atoms: C_4  and  C_5
REMARK    3  A    between atoms: C_5  and  C_6
REMARK    4  A    between atoms: C_5  and  C_7
REMARK    5  A    between atoms: C_7  and  N_8
REMARK    6  A    between atoms: C_12  and  C_13
REMARK    7  A    between atoms: C_19  and  C_20
REMARK                            x       y       z     vdW  Elec       q    Type
REMARK                         _______ _______ _______ _____ _____    ______ ____
ROOT
ATOM      1  C   UNL     1      49.350   7.219  12.880  0.00  0.00    +0.000 C 
ATOM      2  C   UNL     1      49.991   7.728  11.582  0.00  0.00    +0.000 C 
ENDROOT
BRANCH   1   6
ATOM      3  C   UNL     1      45.057   9.709  11.888  0.00  0.00    +0.000 C 
ATOM      4  C   UNL     1      45.762   8.447  12.290  0.00  0.00    +0.000 A 
ATOM      5  C   UNL     1      47.160   8.405  12.403  0.00  0.00    +0.000 A 
ATOM      6  C   UNL     1      47.821   7.224  12.769  0.00  0.00    +0.000 A 
ATOM      7  C   UNL     1      47.038   6.076  13.011  0.00  0.00    +0.000 A 
ATOM      8  C   UNL     1      45.630   6.088  12.882  0.00  0.00    +0.000 A 
ATOM      9  C   UNL     1      45.008   7.292  12.537  0.00  0.00    +0.000 A 
BRANCH   8  10
ATOM     10  C   UNL     1      44.828   4.811  13.120  0.00  0.00    +0.000 C 
ATOM     11  C   UNL     1      45.374   3.558  12.391  0.00  0.00    +0.000 C 
ATOM     12  C   UNL     1      44.654   3.163  11.098  0.00  0.00    +0.000 C 
ATOM     13  N   UNL     1      43.203   3.247  11.210  0.00  0.00    +0.000 NA
ATOM     14  C   UNL     1      42.810   4.615  11.536  0.00  0.00    +0.000 C 
ATOM     15  C   UNL     1      43.315   5.015  12.918  0.00  0.00    +0.000 C 
ATOM     16  H   UNL     1      42.879   2.615  11.945  0.00  0.00    +0.000 HD
ENDBRANCH   8  10
ENDBRANCH   1   6
BRANCH   1  17
ATOM     17  C   UNL     1      49.830   8.006  14.124  0.00  0.00    +0.000 C 
BRANCH  17  18
ATOM     18  N   UNL     1      50.850   7.276  14.899  0.00  0.00    +0.000 N 
ATOM     19  C   UNL     1      50.311   6.578  16.001  0.00  0.00    +0.000 A 
ATOM     20  C   UNL     1      51.172   5.888  16.851  0.00  0.00    +0.000 A 
ATOM     21  C   UNL     1      50.652   5.201  17.954  0.00  0.00    +0.000 A 
ATOM     22  C   UNL     1      49.276   5.210  18.184  0.00  0.00    +0.000 A 
ATOM     23  C   UNL     1      48.492   5.896  17.278  0.00  0.00    +0.000 A 
ATOM     24  N   UNL     1      48.978   6.572  16.204  0.00  0.00    +0.000 NA
ATOM     25  H   UNL     1      51.579   7.889  15.255  0.00  0.00    +0.000 HD
BRANCH  22  26
ATOM     26  C   UNL     1      48.724   4.496  19.363  0.00  0.00    +0.000 C 
ATOM     27  N   UNL     1      48.522   3.145  19.286  0.00  0.00    +0.000 N 
ATOM     28  O   UNL     1      48.441   5.097  20.393  0.00  0.00    +0.000 OA
ATOM     29  H   UNL     1      48.700   2.556  18.489  0.00  0.00    +0.000 HD
ATOM     30  H   UNL     1      48.138   2.697  20.110  0.00  0.00    +0.000 HD
ENDBRANCH  22  26
ENDBRANCH  17  18
ENDBRANCH   1  17
TORSDOF 5
ENDMDL
MODEL 7
REMARK VINA RESULT:    -7.004      1.624      2.005
REMARK INTER + INTRA:          -9.769
REMARK INTER:                  -9.159
REMARK INTRA:                  -0.610
REMARK UNBOUND:                -0.718
REMARK  Name = 
REMARK  7 active torsions:
REMARK  status: ('A' for Active; 'I' for Inactive)
REMARK    1  A    between atoms: C_1  and  C_2
REMARK    2  A    between atoms: C_4  and  C_5
REMARK    3  A    between atoms: C_5  and  C_6
REMARK    4  A    between atoms: C_5  and  C_7
REMARK    5  A    between atoms: C_7  and  N_8
REMARK    6  A    between atoms: C_12  and  C_13
REMARK    7  A    between atoms: C_19  and  C_20
REMARK                            x       y       z     vdW  Elec       q    Type
REMARK                         _______ _______ _______ _____ _____    ______ ____
ROOT
ATOM      1  C   UNL     1      45.296   4.938  11.923  0.00  0.00    +0.000 C 
ATOM      2  C   UNL     1      44.665   4.163  13.088  0.00  0.00    +0.000 C 
ENDROOT
BRANCH   1   6
ATOM      3  C   UNL     1      44.770   9.967  12.168  0.00  0.00    +0.000 C 
ATOM      4  C   UNL     1      45.546   8.724  12.498  0.00  0.00    +0.000 A 
ATOM      5  C   UNL     1      45.099   7.462  12.081  0.00  0.00    +0.000 A 
ATOM      6  C   UNL     1      45.818   6.300  12.397  0.00  0.00    +0.000 A 
ATOM      7  C   UNL     1      46.999   6.439  13.155  0.00  0.00    +0.000 A 
ATOM      8  C   UNL     1      47.458   7.699  13.605  0.00  0.00    +0.000 A 
ATOM      9  C   UNL     1      46.724   8.835  13.249  0.00  0.00    +0.000 A 
BRANCH   8  10
ATOM     10  C   UNL     1      48.723   7.794  14.453  0.00  0.00    +0.000 C 
ATOM     11  C   UNL     1      49.006   6.554  15.336  0.00  0.00    +0.000 C 
ATOM     12  C   UNL     1      48.619   6.676  16.813  0.00  0.00    +0.000 C 
ATOM     13  N   UNL     1      48.989   7.961  17.392  0.00  0.00    +0.000 NA
ATOM     14  C   UNL     1      48.322   9.040  16.668  0.00  0.00    +0.000 C 
ATOM     15  C   UNL     1      48.817   9.122  15.228  0.00  0.00    +0.000 C 
ATOM     16  H   UNL     1      50.001   8.086  17.331  0.00  0.00    +0.000 HD
ENDBRANCH   8  10
ENDBRANCH   1   6
BRANCH   1  17
ATOM     17  C   UNL     1      44.330   5.089  10.723  0.00  0.00    +0.000 C 
BRANCH  17  18
ATOM     18  N   UNL     1      45.037   5.332   9.452  0.00  0.00    +0.000 N 
ATOM     19  C   UNL     1      45.498   4.147   8.841  0.00  0.00    +0.000 A 
ATOM     20  C   UNL     1      46.230   4.236   7.659  0.00  0.00    +0.000 A 
ATOM     21  C   UNL     1      46.704   3.069   7.048  0.00  0.00    +0.000 A 
ATOM     22  C   UNL     1      46.429   1.829   7.627  0.00  0.00    +0.000 A 
ATOM     23  C   UNL     1      45.674   1.830   8.783  0.00  0.00    +0.000 A 
ATOM     24  N   UNL     1      45.210   2.951   9.393  0.00  0.00    +0.000 NA
ATOM     25  H   UNL     1      45.838   5.947   9.566  0.00  0.00    +0.000 HD
BRANCH  22  26
ATOM     26  C   UNL     1      46.945   0.591   6.990  0.00  0.00    +0.000 C 
ATOM     27  N   UNL     1      46.822  -0.598   7.655  0.00  0.00    +0.000 N 
ATOM     28  O   UNL     1      47.483   0.622   5.889  0.00  0.00    +0.000 OA
ATOM     29  H   UNL     1      46.417  -0.737   8.566  0.00  0.00    +0.000 HD
ATOM     30  H   UNL     1      47.193  -1.418   7.188  0.00  0.00    +0.000 HD
ENDBRANCH  22  26
ENDBRANCH  17  18
ENDBRANCH   1  17
TORSDOF 5
ENDMDL
MODEL 8
REMARK VINA RESULT:    -6.932      4.194      6.564
REMARK INTER + INTRA:          -9.677
REMARK INTER:                  -8.631
REMARK INTRA:                  -1.046
REMARK UNBOUND:                -0.718
REMARK  Name = 
REMARK  7 active torsions:
REMARK  status: ('A' for Active; 'I' for Inactive)
REMARK    1  A    between atoms: C_1  and  C_2
REMARK    2  A    between atoms: C_4  and  C_5
REMARK    3  A    between atoms: C_5  and  C_6
REMARK    4  A    between atoms: C_5  and  C_7
REMARK    5  A    between atoms: C_7  and  N_8
REMARK    6  A    between atoms: C_12  and  C_13
REMARK    7  A    between atoms: C_19  and  C_20
REMARK                            x       y       z     vdW  Elec       q    Type
REMARK                         _______ _______ _______ _____ _____    ______ ____
ROOT
ATOM      1  C   UNL     1      49.297   8.204  15.405  0.00  0.00    +0.000 C 
ATOM      2  C   UNL     1      50.632   8.932  15.610  0.00  0.00    +0.000 C 
ENDROOT
BRANCH   1   6
ATOM      3  C   UNL     1      47.244   8.788  19.995  0.00  0.00    +0.000 C 
ATOM      4  C   UNL     1      47.818   7.896  18.933  0.00  0.00    +0.000 A 
ATOM      5  C   UNL     1      48.279   8.423  17.718  0.00  0.00    +0.000 A 
ATOM      6  C   UNL     1      48.806   7.589  16.721  0.00  0.00    +0.000 A 
ATOM      7  C   UNL     1      48.852   6.203  16.975  0.00  0.00    +0.000 A 
ATOM      8  C   UNL     1      48.374   5.646  18.185  0.00  0.00    +0.000 A 
ATOM      9  C   UNL     1      47.876   6.515  19.161  0.00  0.00    +0.000 A 
BRANCH   8  10
ATOM     10  C   UNL     1      48.412   4.135  18.399  0.00  0.00    +0.000 C 
ATOM     11  C   UNL     1      49.834   3.525  18.463  0.00  0.00    +0.000 C 
ATOM     12  C   UNL     1      50.333   2.844  17.185  0.00  0.00    +0.000 C 
ATOM     13  N   UNL     1      49.316   2.012  16.552  0.00  0.00    +0.000 NA
ATOM     14  C   UNL     1      48.160   2.830  16.196  0.00  0.00    +0.000 C 
ATOM     15  C   UNL     1      47.472   3.378  17.442  0.00  0.00    +0.000 C 
ATOM     16  H   UNL     1      49.026   1.275  17.197  0.00  0.00    +0.000 HD
ENDBRANCH   8  10
ENDBRANCH   1   6
BRANCH   1  17
ATOM     17  C   UNL     1      49.369   7.145  14.278  0.00  0.00    +0.000 C 
BRANCH  17  18
ATOM     18  N   UNL     1      48.466   7.452  13.153  0.00  0.00    +0.000 N 
ATOM     19  C   UNL     1      47.512   6.438  12.919  0.00  0.00    +0.000 A 
ATOM     20  C   UNL     1      46.629   6.575  11.851  0.00  0.00    +0.000 A 
ATOM     21  C   UNL     1      45.685   5.572  11.600  0.00  0.00    +0.000 A 
ATOM     22  C   UNL     1      45.636   4.450  12.429  0.00  0.00    +0.000 A 
ATOM     23  C   UNL     1      46.530   4.407  13.480  0.00  0.00    +0.000 A 
ATOM     24  N   UNL     1      47.456   5.368  13.737  0.00  0.00    +0.000 NA
ATOM     25  H   UNL     1      48.968   7.604  12.283  0.00  0.00    +0.000 HD
BRANCH  22  26
ATOM     26  C   UNL     1      44.648   3.377  12.154  0.00  0.00    +0.000 C 
ATOM     27  N   UNL     1      44.775   2.633  11.013  0.00  0.00    +0.000 N 
ATOM     28  O   UNL     1      43.721   3.157  12.925  0.00  0.00    +0.000 OA
ATOM     29  H   UNL     1      45.483   2.739  10.304  0.00  0.00    +0.000 HD
ATOM     30  H   UNL     1      44.076   1.916  10.860  0.00  0.00    +0.000 HD
ENDBRANCH  22  26
ENDBRANCH  17  18
ENDBRANCH   1  17
TORSDOF 5
ENDMDL
MODEL 9
REMARK VINA RESULT:    -6.899      3.845      6.288
REMARK INTER + INTRA:          -9.634
REMARK INTER:                  -8.619
REMARK INTRA:                  -1.015
REMARK UNBOUND:                -0.718
REMARK  Name = 
REMARK  7 active torsions:
REMARK  status: ('A' for Active; 'I' for Inactive)
REMARK    1  A    between atoms: C_1  and  C_2
REMARK    2  A    between atoms: C_4  and  C_5
REMARK    3  A    between atoms: C_5  and  C_6
REMARK    4  A    between atoms: C_5  and  C_7
REMARK    5  A    between atoms: C_7  and  N_8
REMARK    6  A    between atoms: C_12  and  C_13
REMARK    7  A    between atoms: C_19  and  C_20
REMARK                            x       y       z     vdW  Elec       q    Type
REMARK                         _______ _______ _______ _____ _____    ______ ____
ROOT
ATOM      1  C   UNL     1      49.109   8.231  13.580  0.00  0.00    +0.000 C 
ATOM      2  C   UNL     1      49.780   7.654  12.328  0.00  0.00    +0.000 C 
ENDROOT
BRANCH   1   6
ATOM      3  C   UNL     1      52.870   6.619  16.560  0.00  0.00    +0.000 C 
ATOM      4  C   UNL     1      51.403   6.714  16.258  0.00  0.00    +0.000 A 
ATOM      5  C   UNL     1      50.943   7.387  15.116  0.00  0.00    +0.000 A 
ATOM      6  C   UNL     1      49.572   7.485  14.837  0.00  0.00    +0.000 A 
ATOM      7  C   UNL     1      48.669   6.894  15.745  0.00  0.00    +0.000 A 
ATOM      8  C   UNL     1      49.109   6.228  16.914  0.00  0.00    +0.000 A 
ATOM      9  C   UNL     1      50.485   6.134  17.143  0.00  0.00    +0.000 A 
BRANCH   8  10
ATOM     10  C   UNL     1      48.091   5.634  17.885  0.00  0.00    +0.000 C 
ATOM     11  C   UNL     1      48.477   5.753  19.380  0.00  0.00    +0.000 C 
ATOM     12  C   UNL     1      49.066   4.495  20.026  0.00  0.00    +0.000 C 
ATOM     13  N   UNL     1      48.355   3.279  19.651  0.00  0.00    +0.000 NA
ATOM     14  C   UNL     1      48.408   3.101  18.202  0.00  0.00    +0.000 C 
ATOM     15  C   UNL     1      47.651   4.214  17.485  0.00  0.00    +0.000 C 
ATOM     16  H   UNL     1      47.379   3.347  19.949  0.00  0.00    +0.000 HD
ENDBRANCH   8  10
ENDBRANCH   1   6
BRANCH   1  17
ATOM     17  C   UNL     1      47.565   8.248  13.468  0.00  0.00    +0.000 C 
BRANCH  17  18
ATOM     18  N   UNL     1      47.091   7.933  12.108  0.00  0.00    +0.000 N 
ATOM     19  C   UNL     1      46.351   6.733  12.045  0.00  0.00    +0.000 A 
ATOM     20  C   UNL     1      45.888   6.289  10.808  0.00  0.00    +0.000 A 
ATOM     21  C   UNL     1      45.163   5.094  10.729  0.00  0.00    +0.000 A 
ATOM     22  C   UNL     1      44.906   4.367  11.892  0.00  0.00    +0.000 A 
ATOM     23  C   UNL     1      45.378   4.892  13.078  0.00  0.00    +0.000 A 
ATOM     24  N   UNL     1      46.087   6.047  13.175  0.00  0.00    +0.000 NA
ATOM     25  H   UNL     1      47.853   7.856  11.440  0.00  0.00    +0.000 HD
BRANCH  22  26
ATOM     26  C   UNL     1      44.151   3.091  11.808  0.00  0.00    +0.000 C 
ATOM     27  N   UNL     1      44.085   2.437  10.608  0.00  0.00    +0.000 N 
ATOM     28  O   UNL     1      43.584   2.624  12.788  0.00  0.00    +0.000 OA
ATOM     29  H   UNL     1      44.495   2.736   9.738  0.00  0.00    +0.000 HD
ATOM     30  H   UNL     1      43.555   1.573  10.592  0.00  0.00    +0.000 HD
ENDBRANCH  22  26
ENDBRANCH  17  18
ENDBRANCH   1  17
TORSDOF 5
ENDMDL
