MODEL 1
REMARK VINA RESULT:    -7.895      0.000      0.000
REMARK INTER + INTRA:         -11.635
REMARK INTER:                 -10.664
REMARK INTRA:                  -0.972
REMARK UNBOUND:                -0.972
REMARK  Name = 
REMARK  7 active torsions:
REMARK  status: ('A' for Active; 'I' for Inactive)
REMARK    1  A    between atoms: C_1  and  C_2
REMARK    2  A    between atoms: C_2  and  N_3
REMARK    3  A    between atoms: C_2  and  C_10
REMARK    4  A    between atoms: N_3  and  C_4
REMARK    5  A    between atoms: C_13  and  C_14
REMARK    6  A    between atoms: C_14  and  N_15
REMARK    7  A    between atoms: C_16  and  C_18
REMARK                            x       y       z     vdW  Elec       q    Type
REMARK                         _______ _______ _______ _____ _____    ______ ____
ROOT
ATOM      1  C   UNL     1      44.986   5.448  11.753  0.00  0.00    +0.000 A 
ATOM      2  C   UNL     1      45.269   4.783  12.960  0.00  0.00    +0.000 A 
ATOM      3  C   UNL     1      46.414   5.115  13.704  0.00  0.00    +0.000 A 
ATOM      4  C   UNL     1      47.273   6.143  13.297  0.00  0.00    +0.000 A 
ATOM      5  C   UNL     1      46.975   6.821  12.114  0.00  0.00    +0.000 A 
ATOM      6  C   UNL     1      45.864   6.471  11.355  0.00  0.00    +0.000 A 
ENDROOT
BRANCH   1   8
ATOM      7  C   UNL     1      42.442   5.309  11.782  0.00  0.00    +0.000 C 
ATOM      8  C   UNL     1      43.726   5.147  10.945  0.00  0.00    +0.000 C 
BRANCH   8   9
ATOM      9  N   UNL     1      43.707   3.830  10.287  0.00  0.00    +0.000 NA
ATOM     10  H   UNL     1      43.570   3.124  11.014  0.00  0.00    +0.000 HD
BRANCH   9  11
ATOM     11  C   UNL     1      44.929   3.449   9.558  0.00  0.00    +0.000 C 
ATOM     12  C   UNL     1      45.230   4.275   8.307  0.00  0.00    +0.000 C 
ATOM     13  C   UNL     1      46.430   3.727   7.570  0.00  0.00    +0.000 C 
ATOM     14  O   UNL     1      46.209   2.372   7.207  0.00  0.00    +0.000 OA
ATOM     15  C   UNL     1      46.002   1.539   8.347  0.00  0.00    +0.000 C 
ATOM     16  C   UNL     1      44.785   1.980   9.145  0.00  0.00    +0.000 C 
ENDBRANCH   9  11
ENDBRANCH   8   9
ENDBRANCH   1   8
BRANCH   4  17
ATOM     17  C   UNL     1      48.493   6.533  14.082  0.00  0.00    +0.000 C 
BRANCH  17  18
ATOM     18  N   UNL     1      48.194   6.752  15.478  0.00  0.00    +0.000 N 
ATOM     19  C   UNL     1      49.087   6.467  16.470  0.00  0.00    +0.000 C 
ATOM     20  O   UNL     1      50.220   6.012  16.246  0.00  0.00    +0.000 OA
ATOM     21  H   UNL     1      47.205   6.789  15.722  0.00  0.00    +0.000 HD
BRANCH  19  22
ATOM     22  C   UNL     1      48.639   6.778  17.834  0.00  0.00    +0.000 A 
ATOM     23  C   UNL     1      48.243   8.063  18.161  0.00  0.00    +0.000 A 
ATOM     24  S   UNL     1      47.708   8.233  19.780  0.00  0.00    +0.000 S 
ATOM     25  C   UNL     1      48.039   6.596  20.114  0.00  0.00    +0.000 A 
ATOM     26  N   UNL     1      47.843   6.074  21.355  0.00  0.00    +0.000 NA
ATOM     27  C   UNL     1      48.161   4.827  21.468  0.00  0.00    +0.000 A 
ATOM     28  N   UNL     1      48.645   4.048  20.451  0.00  0.00    +0.000 N 
ATOM     29  C   UNL     1      48.812   4.519  19.173  0.00  0.00    +0.000 A 
ATOM     30  O   UNL     1      49.163   3.772  18.261  0.00  0.00    +0.000 OA
ATOM     31  C   UNL     1      48.513   5.933  18.998  0.00  0.00    +0.000 A 
ATOM     32  H   UNL     1      48.848   3.071  20.591  0.00  0.00    +0.000 HD
ENDBRANCH  19  22
ENDBRANCH  17  18
ENDBRANCH   4  17
TORSDOF 6
ENDMDL
MODEL 2
REMARK VINA RESULT:    -7.630      1.438      2.239
REMARK INTER + INTRA:         -11.277
REMARK INTER:                 -10.085
REMARK INTRA:                  -1.193
REMARK UNBOUND:                -0.972
REMARK  Name = 
REMARK  7 active torsions:
REMARK  status: ('A' for Active; 'I' for Inactive)
REMARK    1  A    between atoms: C_1  and  C_2
REMARK    2  A    between atoms: C_2  and  N_3
REMARK    3  A    between atoms: C_2  and  C_10
REMARK    4  A    between atoms: N_3  and  C_4
REMARK    5  A    between atoms: C_13  and  C_14
REMARK    6  A    between atoms: C_14  and  N_15
REMARK    7  A    between atoms: C_16  and  C_18
REMARK                            x       y       z     vdW  Elec       q    Type
REMARK                         _______ _______ _______ _____ _____    ______ ____
ROOT
ATOM      1  C   UNL     1      44.979   5.443  11.742  0.00  0.00    +0.000 A 
ATOM      2  C   UNL     1      45.285   4.726  12.912  0.00  0.00    +0.000 A 
ATOM      3  C   UNL     1      46.411   5.068  13.681  0.00  0.00    +0.000 A 
ATOM      4  C   UNL     1      47.225   6.154  13.337  0.00  0.00    +0.000 A 
ATOM      5  C   UNL     1      46.902   6.881  12.190  0.00  0.00    +0.000 A 
ATOM      6  C   UNL     1      45.812   6.524  11.406  0.00  0.00    +0.000 A 
ENDROOT
BRANCH   1   8
ATOM      7  C   UNL     1      42.433   5.316  11.712  0.00  0.00    +0.000 C 
ATOM      8  C   UNL     1      43.737   5.131  10.909  0.00  0.00    +0.000 C 
BRANCH   8   9
ATOM      9  N   UNL     1      43.726   3.801  10.279  0.00  0.00    +0.000 NA
ATOM     10  H   UNL     1      43.594   3.109  11.020  0.00  0.00    +0.000 HD
BRANCH   9  11
ATOM     11  C   UNL     1      44.952   3.413   9.558  0.00  0.00    +0.000 C 
ATOM     12  C   UNL     1      45.272   4.244   8.316  0.00  0.00    +0.000 C 
ATOM     13  C   UNL     1      46.473   3.689   7.586  0.00  0.00    +0.000 C 
ATOM     14  O   UNL     1      46.243   2.339   7.212  0.00  0.00    +0.000 OA
ATOM     15  C   UNL     1      46.018   1.501   8.345  0.00  0.00    +0.000 C 
ATOM     16  C   UNL     1      44.798   1.948   9.135  0.00  0.00    +0.000 C 
ENDBRANCH   9  11
ENDBRANCH   8   9
ENDBRANCH   1   8
BRANCH   4  17
ATOM     17  C   UNL     1      48.423   6.554  14.150  0.00  0.00    +0.000 C 
BRANCH  17  18
ATOM     18  N   UNL     1      48.110   6.676  15.555  0.00  0.00    +0.000 N 
ATOM     19  C   UNL     1      48.970   6.267  16.533  0.00  0.00    +0.000 C 
ATOM     20  O   UNL     1      50.083   5.775  16.289  0.00  0.00    +0.000 OA
ATOM     21  H   UNL     1      47.120   6.743  15.788  0.00  0.00    +0.000 HD
BRANCH  19  22
ATOM     22  C   UNL     1      48.513   6.491  17.912  0.00  0.00    +0.000 A 
ATOM     23  C   UNL     1      48.454   5.438  18.806  0.00  0.00    +0.000 A 
ATOM     24  S   UNL     1      47.945   5.890  20.379  0.00  0.00    +0.000 S 
ATOM     25  C   UNL     1      47.736   7.511  19.898  0.00  0.00    +0.000 A 
ATOM     26  N   UNL     1      47.272   8.451  20.765  0.00  0.00    +0.000 NA
ATOM     27  C   UNL     1      47.139   9.631  20.256  0.00  0.00    +0.000 A 
ATOM     28  N   UNL     1      47.441   9.962  18.962  0.00  0.00    +0.000 N 
ATOM     29  C   UNL     1      47.958   9.059  18.068  0.00  0.00    +0.000 A 
ATOM     30  O   UNL     1      48.303   9.407  16.940  0.00  0.00    +0.000 OA
ATOM     31  C   UNL     1      48.084   7.700  18.574  0.00  0.00    +0.000 A 
ATOM     32  H   UNL     1      47.345  10.909  18.628  0.00  0.00    +0.000 HD
ENDBRANCH  19  22
ENDBRANCH  17  18
ENDBRANCH   4  17
TORSDOF 6
ENDMDL
MODEL 3
REMARK VINA RESULT:    -7.278      2.239      2.528
REMARK INTER + INTRA:         -10.803
REMARK INTER:                  -9.568
REMARK INTRA:                  -1.235
REMARK UNBOUND:                -0.972
REMARK  Name = 
REMARK  7 active torsions:
REMARK  status: ('A' for Active; 'I' for Inactive)
REMARK    1  A    between atoms: C_1  and  C_2
REMARK    2  A    between atoms: C_2  and  N_3
REMARK    3  A    between atoms: C_2  and  C_10
REMARK    4  A    between atoms: N_3  and  C_4
REMARK    5  A    between atoms: C_13  and  C_14
REMARK    6  A    between atoms: C_14  and  N_15
REMARK    7  A    between atoms: C_16  and  C_18
REMARK                            x       y       z     vdW  Elec       q    Type
REMARK                         _______ _______ _______ _____ _____    ______ ____
ROOT
ATOM      1  C   UNL     1      44.697   4.925  11.680  0.00  0.00    +0.000 A 
ATOM      2  C   UNL     1      44.823   6.192  11.083  0.00  0.00    +0.000 A 
ATOM      3  C   UNL     1      45.887   7.041  11.436  0.00  0.00    +0.000 A 
ATOM      4  C   UNL     1      46.871   6.634  12.346  0.00  0.00    +0.000 A 
ATOM      5  C   UNL     1      46.758   5.365  12.915  0.00  0.00    +0.000 A 
ATOM      6  C   UNL     1      45.688   4.537  12.598  0.00  0.00    +0.000 A 
ENDROOT
BRANCH   1   8
ATOM      7  C   UNL     1      43.559   2.698  12.174  0.00  0.00    +0.000 C 
ATOM      8  C   UNL     1      43.582   3.958  11.285  0.00  0.00    +0.000 C 
BRANCH   8   9
ATOM      9  N   UNL     1      43.583   3.547   9.872  0.00  0.00    +0.000 NA
ATOM     10  H   UNL     1      43.027   2.693   9.798  0.00  0.00    +0.000 HD
BRANCH   9  11
ATOM     11  C   UNL     1      44.900   3.242   9.284  0.00  0.00    +0.000 C 
ATOM     12  C   UNL     1      45.290   4.091   8.074  0.00  0.00    +0.000 C 
ATOM     13  C   UNL     1      46.594   3.618   7.476  0.00  0.00    +0.000 C 
ATOM     14  O   UNL     1      46.496   2.255   7.093  0.00  0.00    +0.000 OA
ATOM     15  C   UNL     1      46.212   1.405   8.204  0.00  0.00    +0.000 C 
ATOM     16  C   UNL     1      44.890   1.770   8.861  0.00  0.00    +0.000 C 
ENDBRANCH   9  11
ENDBRANCH   8   9
ENDBRANCH   1   8
BRANCH   4  17
ATOM     17  C   UNL     1      48.029   7.512  12.726  0.00  0.00    +0.000 C 
BRANCH  17  18
ATOM     18  N   UNL     1      48.865   6.903  13.735  0.00  0.00    +0.000 N 
ATOM     19  C   UNL     1      48.936   7.382  15.011  0.00  0.00    +0.000 C 
ATOM     20  O   UNL     1      48.283   8.364  15.400  0.00  0.00    +0.000 OA
ATOM     21  H   UNL     1      49.643   6.343  13.391  0.00  0.00    +0.000 HD
BRANCH  19  22
ATOM     22  C   UNL     1      49.808   6.628  15.923  0.00  0.00    +0.000 A 
ATOM     23  C   UNL     1      51.107   7.046  16.149  0.00  0.00    +0.000 A 
ATOM     24  S   UNL     1      51.962   6.076  17.275  0.00  0.00    +0.000 S 
ATOM     25  C   UNL     1      50.631   5.029  17.458  0.00  0.00    +0.000 A 
ATOM     26  N   UNL     1      50.698   3.935  18.264  0.00  0.00    +0.000 NA
ATOM     27  C   UNL     1      49.623   3.219  18.286  0.00  0.00    +0.000 A 
ATOM     28  N   UNL     1      48.481   3.501  17.585  0.00  0.00    +0.000 N 
ATOM     29  C   UNL     1      48.352   4.619  16.799  0.00  0.00    +0.000 A 
ATOM     30  O   UNL     1      47.284   4.893  16.254  0.00  0.00    +0.000 OA
ATOM     31  C   UNL     1      49.550   5.439  16.700  0.00  0.00    +0.000 A 
ATOM     32  H   UNL     1      47.661   2.920  17.664  0.00  0.00    +0.000 HD
ENDBRANCH  19  22
ENDBRANCH  17  18
ENDBRANCH   4  17
TORSDOF 6
ENDMDL
MODEL 4
REMARK VINA RESULT:    -7.189      4.063      9.994
REMARK INTER + INTRA:         -10.683
REMARK INTER:                  -9.473
REMARK INTRA:                  -1.210
REMARK UNBOUND:                -0.972
REMARK  Name = 
REMARK  7 active torsions:
REMARK  status: ('A' for Active; 'I' for Inactive)
REMARK    1  A    between atoms: C_1  and  C_2
REMARK    2  A    between atoms: C_2  and  N_3
REMARK    3  A    between atoms: C_2  and  C_10
REMARK    4  A    between atoms: N_3  and  C_4
REMARK    5  A    between atoms: C_13  and  C_14
REMARK    6  A    between atoms: C_14  and  N_15
REMARK    7  A    between atoms: C_16  and  C_18
REMARK                            x       y       z     vdW  Elec       q    Type
REMARK                         _______ _______ _______ _____ _____    ______ ____
ROOT
ATOM      1  C   UNL     1      51.467   3.092  17.771  0.00  0.00    +0.000 A 
ATOM      2  C   UNL     1      50.844   4.338  17.971  0.00  0.00    +0.000 A 
ATOM      3  C   UNL     1      49.486   4.512  17.656  0.00  0.00    +0.000 A 
ATOM      4  C   UNL     1      48.705   3.449  17.185  0.00  0.00    +0.000 A 
ATOM      5  C   UNL     1      49.320   2.207  17.014  0.00  0.00    +0.000 A 
ATOM      6  C   UNL     1      50.671   2.039  17.289  0.00  0.00    +0.000 A 
ENDROOT
BRANCH   1   8
ATOM      7  C   UNL     1      53.530   1.639  17.414  0.00  0.00    +0.000 C 
ATOM      8  C   UNL     1      52.928   2.854  18.148  0.00  0.00    +0.000 C 
BRANCH   8   9
ATOM      9  N   UNL     1      53.186   2.718  19.591  0.00  0.00    +0.000 NA
ATOM     10  H   UNL     1      52.292   2.523  20.048  0.00  0.00    +0.000 HD
BRANCH   9  11
ATOM     11  C   UNL     1      53.751   3.901  20.265  0.00  0.00    +0.000 C 
ATOM     12  C   UNL     1      52.759   4.721  21.089  0.00  0.00    +0.000 C 
ATOM     13  C   UNL     1      53.409   5.971  21.634  0.00  0.00    +0.000 C 
ATOM     14  O   UNL     1      53.920   6.764  20.573  0.00  0.00    +0.000 OA
ATOM     15  C   UNL     1      54.913   6.072  19.818  0.00  0.00    +0.000 C 
ATOM     16  C   UNL     1      54.351   4.808  19.185  0.00  0.00    +0.000 C 
ENDBRANCH   9  11
ENDBRANCH   8   9
ENDBRANCH   1   8
BRANCH   4  17
ATOM     17  C   UNL     1      47.248   3.601  16.859  0.00  0.00    +0.000 C 
BRANCH  17  18
ATOM     18  N   UNL     1      47.022   4.573  15.814  0.00  0.00    +0.000 N 
ATOM     19  C   UNL     1      47.053   4.242  14.490  0.00  0.00    +0.000 C 
ATOM     20  O   UNL     1      47.263   3.087  14.088  0.00  0.00    +0.000 OA
ATOM     21  H   UNL     1      47.187   5.546  16.067  0.00  0.00    +0.000 HD
BRANCH  19  22
ATOM     22  C   UNL     1      46.771   5.342  13.557  0.00  0.00    +0.000 A 
ATOM     23  C   UNL     1      47.773   6.227  13.199  0.00  0.00    +0.000 A 
ATOM     24  S   UNL     1      47.279   7.415  12.068  0.00  0.00    +0.000 S 
ATOM     25  C   UNL     1      45.685   6.813  12.058  0.00  0.00    +0.000 A 
ATOM     26  N   UNL     1      44.711   7.405  11.315  0.00  0.00    +0.000 NA
ATOM     27  C   UNL     1      43.546   6.858  11.426  0.00  0.00    +0.000 A 
ATOM     28  N   UNL     1      43.267   5.763  12.200  0.00  0.00    +0.000 N 
ATOM     29  C   UNL     1      44.228   5.104  12.925  0.00  0.00    +0.000 A 
ATOM     30  O   UNL     1      43.965   4.072  13.538  0.00  0.00    +0.000 OA
ATOM     31  C   UNL     1      45.552   5.708  12.876  0.00  0.00    +0.000 A 
ATOM     32  H   UNL     1      42.343   5.360  12.223  0.00  0.00    +0.000 HD
ENDBRANCH  19  22
ENDBRANCH  17  18
ENDBRANCH   4  17
TORSDOF 6
ENDMDL
MODEL 5
REMARK VINA RESULT:    -7.168      3.680      5.128
REMARK INTER + INTRA:         -10.654
REMARK INTER:                  -9.381
REMARK INTRA:                  -1.274
REMARK UNBOUND:                -0.972
REMARK  Name = 
REMARK  7 active torsions:
REMARK  status: ('A' for Active; 'I' for Inactive)
REMARK    1  A    between atoms: C_1  and  C_2
REMARK    2  A    between atoms: C_2  and  N_3
REMARK    3  A    between atoms: C_2  and  C_10
REMARK    4  A    between atoms: N_3  and  C_4
REMARK    5  A    between atoms: C_13  and  C_14
REMARK    6  A    between atoms: C_14  and  N_15
REMARK    7  A    between atoms: C_16  and  C_18
REMARK                            x       y       z     vdW  Elec       q    Type
REMARK                         _______ _______ _______ _____ _____    ______ ____
ROOT
ATOM      1  C   UNL     1      47.312   5.654  13.652  0.00  0.00    +0.000 A 
ATOM      2  C   UNL     1      48.003   6.219  14.739  0.00  0.00    +0.000 A 
ATOM      3  C   UNL     1      48.144   5.504  15.941  0.00  0.00    +0.000 A 
ATOM      4  C   UNL     1      47.651   4.200  16.074  0.00  0.00    +0.000 A 
ATOM      5  C   UNL     1      46.990   3.632  14.985  0.00  0.00    +0.000 A 
ATOM      6  C   UNL     1      46.815   4.348  13.807  0.00  0.00    +0.000 A 
ENDROOT
BRANCH   1   8
ATOM      7  C   UNL     1      48.399   7.279  12.018  0.00  0.00    +0.000 C 
ATOM      8  C   UNL     1      47.181   6.382  12.315  0.00  0.00    +0.000 C 
BRANCH   8   9
ATOM      9  N   UNL     1      45.951   7.174  12.154  0.00  0.00    +0.000 NA
ATOM     10  H   UNL     1      45.633   7.444  13.087  0.00  0.00    +0.000 HD
BRANCH   9  11
ATOM     11  C   UNL     1      44.817   6.490  11.507  0.00  0.00    +0.000 C 
ATOM     12  C   UNL     1      43.814   5.840  12.459  0.00  0.00    +0.000 C 
ATOM     13  C   UNL     1      42.764   5.066  11.697  0.00  0.00    +0.000 C 
ATOM     14  O   UNL     1      43.374   4.069  10.892  0.00  0.00    +0.000 OA
ATOM     15  C   UNL     1      44.264   4.629   9.927  0.00  0.00    +0.000 C 
ATOM     16  C   UNL     1      45.391   5.402  10.592  0.00  0.00    +0.000 C 
ENDBRANCH   9  11
ENDBRANCH   8   9
ENDBRANCH   1   8
BRANCH   4  17
ATOM     17  C   UNL     1      47.804   3.406  17.339  0.00  0.00    +0.000 C 
BRANCH  17  18
ATOM     18  N   UNL     1      49.192   3.177  17.673  0.00  0.00    +0.000 N 
ATOM     19  C   UNL     1      49.974   2.299  16.981  0.00  0.00    +0.000 C 
ATOM     20  O   UNL     1      49.559   1.646  16.011  0.00  0.00    +0.000 OA
ATOM     21  H   UNL     1      49.465   3.413  18.626  0.00  0.00    +0.000 HD
BRANCH  19  22
ATOM     22  C   UNL     1      51.371   2.209  17.429  0.00  0.00    +0.000 A 
ATOM     23  C   UNL     1      51.948   0.974  17.668  0.00  0.00    +0.000 A 
ATOM     24  S   UNL     1      53.594   1.056  18.137  0.00  0.00    +0.000 S 
ATOM     25  C   UNL     1      53.576   2.759  18.083  0.00  0.00    +0.000 A 
ATOM     26  N   UNL     1      54.675   3.488  18.417  0.00  0.00    +0.000 NA
ATOM     27  C   UNL     1      54.507   4.767  18.356  0.00  0.00    +0.000 A 
ATOM     28  N   UNL     1      53.346   5.387  17.978  0.00  0.00    +0.000 N 
ATOM     29  C   UNL     1      52.229   4.691  17.586  0.00  0.00    +0.000 A 
ATOM     30  O   UNL     1      51.232   5.275  17.167  0.00  0.00    +0.000 OA
ATOM     31  C   UNL     1      52.346   3.244  17.681  0.00  0.00    +0.000 A 
ATOM     32  H   UNL     1      53.283   6.391  17.921  0.00  0.00    +0.000 HD
ENDBRANCH  19  22
ENDBRANCH  17  18
ENDBRANCH   4  17
TORSDOF 6
ENDMDL
MODEL 6
REMARK VINA RESULT:    -7.114      4.159      6.944
REMARK INTER + INTRA:         -10.581
REMARK INTER:                 -10.062
REMARK INTRA:                  -0.519
REMARK UNBOUND:                -0.972
REMARK  Name = 
REMARK  7 active torsions:
REMARK  status: ('A' for Active; 'I' for Inactive)
REMARK    1  A    between atoms: C_1  and  C_2
REMARK    2  A    between atoms: C_2  and  N_3
REMARK    3  A    between atoms: C_2  and  C_10
REMARK    4  A    between atoms: N_3  and  C_4
REMARK    5  A    between atoms: C_13  and  C_14
REMARK    6  A    between atoms: C_14  and  N_15
REMARK    7  A    between atoms: C_16  and  C_18
REMARK                            x       y       z     vdW  Elec       q    Type
REMARK                         _______ _______ _______ _____ _____    ______ ____
ROOT
ATOM      1  C   UNL     1      46.737   2.219   7.082  0.00  0.00    +0.000 A 
ATOM      2  C   UNL     1      46.551   3.613   7.074  0.00  0.00    +0.000 A 
ATOM      3  C   UNL     1      45.713   4.224   8.023  0.00  0.00    +0.000 A 
ATOM      4  C   UNL     1      45.084   3.477   9.027  0.00  0.00    +0.000 A 
ATOM      5  C   UNL     1      45.293   2.098   9.049  0.00  0.00    +0.000 A 
ATOM      6  C   UNL     1      46.090   1.484   8.091  0.00  0.00    +0.000 A 
ENDROOT
BRANCH   1   8
ATOM      7  C   UNL     1      47.946   2.386   4.845  0.00  0.00    +0.000 C 
ATOM      8  C   UNL     1      47.677   1.527   6.097  0.00  0.00    +0.000 C 
BRANCH   8   9
ATOM      9  N   UNL     1      47.258   0.181   5.675  0.00  0.00    +0.000 NA
ATOM     10  H   UNL     1      47.992  -0.473   5.955  0.00  0.00    +0.000 HD
BRANCH   9  11
ATOM     11  C   UNL     1      47.054  -0.012   4.228  0.00  0.00    +0.000 C 
ATOM     12  C   UNL     1      45.859   0.730   3.630  0.00  0.00    +0.000 C 
ATOM     13  C   UNL     1      45.668   0.368   2.175  0.00  0.00    +0.000 C 
ATOM     14  O   UNL     1      45.481  -1.032   2.036  0.00  0.00    +0.000 OA
ATOM     15  C   UNL     1      46.605  -1.773   2.507  0.00  0.00    +0.000 C 
ATOM     16  C   UNL     1      46.865  -1.513   3.982  0.00  0.00    +0.000 C 
ENDBRANCH   9  11
ENDBRANCH   8   9
ENDBRANCH   1   8
BRANCH   4  17
ATOM     17  C   UNL     1      44.200   4.106  10.065  0.00  0.00    +0.000 C 
BRANCH  17  18
ATOM     18  N   UNL     1      44.772   5.317  10.607  0.00  0.00    +0.000 N 
ATOM     19  C   UNL     1      44.017   6.264  11.235  0.00  0.00    +0.000 C 
ATOM     20  O   UNL     1      42.792   6.151  11.398  0.00  0.00    +0.000 OA
ATOM     21  H   UNL     1      45.666   5.604  10.210  0.00  0.00    +0.000 HD
BRANCH  19  22
ATOM     22  C   UNL     1      44.759   7.421  11.757  0.00  0.00    +0.000 A 
ATOM     23  C   UNL     1      44.405   8.704  11.381  0.00  0.00    +0.000 A 
ATOM     24  S   UNL     1      45.346   9.930  12.122  0.00  0.00    +0.000 S 
ATOM     25  C   UNL     1      46.298   8.775  12.935  0.00  0.00    +0.000 A 
ATOM     26  N   UNL     1      47.337   9.150  13.730  0.00  0.00    +0.000 NA
ATOM     27  C   UNL     1      47.986   8.167  14.261  0.00  0.00    +0.000 A 
ATOM     28  N   UNL     1      47.684   6.843  14.084  0.00  0.00    +0.000 N 
ATOM     29  C   UNL     1      46.616   6.422  13.332  0.00  0.00    +0.000 A 
ATOM     30  O   UNL     1      46.317   5.231  13.265  0.00  0.00    +0.000 OA
ATOM     31  C   UNL     1      45.876   7.486  12.669  0.00  0.00    +0.000 A 
ATOM     32  H   UNL     1      48.209   6.119  14.550  0.00  0.00    +0.000 HD
ENDBRANCH  19  22
ENDBRANCH  17  18
ENDBRANCH   4  17
TORSDOF 6
ENDMDL
MODEL 7
REMARK VINA RESULT:    -7.101      4.348      9.653
REMARK INTER + INTRA:         -10.564
REMARK INTER:                  -9.459
REMARK INTRA:                  -1.105
REMARK UNBOUND:                -0.972
REMARK  Name = 
REMARK  7 active torsions:
REMARK  status: ('A' for Active; 'I' for Inactive)
REMARK    1  A    between atoms: C_1  and  C_2
REMARK    2  A    between atoms: C_2  and  N_3
REMARK    3  A    between atoms: C_2  and  C_10
REMARK    4  A    between atoms: N_3  and  C_4
REMARK    5  A    between atoms: C_13  and  C_14
REMARK    6  A    between atoms: C_14  and  N_15
REMARK    7  A    between atoms: C_16  and  C_18
REMARK                            x       y       z     vdW  Elec       q    Type
REMARK                         _______ _______ _______ _____ _____    ______ ____
ROOT
ATOM      1  C   UNL     1      51.323   4.042  17.872  0.00  0.00    +0.000 A 
ATOM      2  C   UNL     1      50.465   5.156  17.819  0.00  0.00    +0.000 A 
ATOM      3  C   UNL     1      49.121   5.001  17.441  0.00  0.00    +0.000 A 
ATOM      4  C   UNL     1      48.586   3.738  17.156  0.00  0.00    +0.000 A 
ATOM      5  C   UNL     1      49.433   2.631  17.237  0.00  0.00    +0.000 A 
ATOM      6  C   UNL     1      50.772   2.784  17.574  0.00  0.00    +0.000 A 
ENDROOT
BRANCH   1   8
ATOM      7  C   UNL     1      53.178   5.629  18.604  0.00  0.00    +0.000 C 
ATOM      8  C   UNL     1      52.776   4.167  18.326  0.00  0.00    +0.000 C 
BRANCH   8   9
ATOM      9  N   UNL     1      53.766   3.561  17.422  0.00  0.00    +0.000 NA
ATOM     10  H   UNL     1      53.271   3.254  16.582  0.00  0.00    +0.000 HD
BRANCH   9  11
ATOM     11  C   UNL     1      54.485   2.383  17.939  0.00  0.00    +0.000 C 
ATOM     12  C   UNL     1      53.876   1.030  17.569  0.00  0.00    +0.000 C 
ATOM     13  C   UNL     1      54.614  -0.101  18.247  0.00  0.00    +0.000 C 
ATOM     14  O   UNL     1      54.587   0.067  19.656  0.00  0.00    +0.000 OA
ATOM     15  C   UNL     1      55.217   1.281  20.063  0.00  0.00    +0.000 C 
ATOM     16  C   UNL     1      54.523   2.496  19.466  0.00  0.00    +0.000 C 
ENDBRANCH   9  11
ENDBRANCH   8   9
ENDBRANCH   1   8
BRANCH   4  17
ATOM     17  C   UNL     1      47.149   3.539  16.768  0.00  0.00    +0.000 C 
BRANCH  17  18
ATOM     18  N   UNL     1      46.725   4.476  15.753  0.00  0.00    +0.000 N 
ATOM     19  C   UNL     1      46.855   4.216  14.420  0.00  0.00    +0.000 C 
ATOM     20  O   UNL     1      47.333   3.157  13.983  0.00  0.00    +0.000 OA
ATOM     21  H   UNL     1      46.656   5.450  16.045  0.00  0.00    +0.000 HD
BRANCH  19  22
ATOM     22  C   UNL     1      46.345   5.260  13.519  0.00  0.00    +0.000 A 
ATOM     23  C   UNL     1      47.140   6.341  13.184  0.00  0.00    +0.000 A 
ATOM     24  S   UNL     1      46.401   7.432  12.088  0.00  0.00    +0.000 S 
ATOM     25  C   UNL     1      44.966   6.515  12.066  0.00  0.00    +0.000 A 
ATOM     26  N   UNL     1      43.884   6.914  11.344  0.00  0.00    +0.000 NA
ATOM     27  C   UNL     1      42.858   6.135  11.442  0.00  0.00    +0.000 A 
ATOM     28  N   UNL     1      42.817   4.986  12.185  0.00  0.00    +0.000 N 
ATOM     29  C   UNL     1      43.899   4.520  12.889  0.00  0.00    +0.000 A 
ATOM     30  O   UNL     1      43.860   3.439  13.473  0.00  0.00    +0.000 OA
ATOM     31  C   UNL     1      45.070   5.384  12.852  0.00  0.00    +0.000 A 
ATOM     32  H   UNL     1      41.996   4.401  12.200  0.00  0.00    +0.000 HD
ENDBRANCH  19  22
ENDBRANCH  17  18
ENDBRANCH   4  17
TORSDOF 6
ENDMDL
MODEL 8
REMARK VINA RESULT:    -6.920      4.066      9.580
REMARK INTER + INTRA:         -10.319
REMARK INTER:                  -9.146
REMARK INTRA:                  -1.173
REMARK UNBOUND:                -0.972
REMARK  Name = 
REMARK  7 active torsions:
REMARK  status: ('A' for Active; 'I' for Inactive)
REMARK    1  A    between atoms: C_1  and  C_2
REMARK    2  A    between atoms: C_2  and  N_3
REMARK    3  A    between atoms: C_2  and  C_10
REMARK    4  A    between atoms: N_3  and  C_4
REMARK    5  A    between atoms: C_13  and  C_14
REMARK    6  A    between atoms: C_14  and  N_15
REMARK    7  A    between atoms: C_16  and  C_18
REMARK                            x       y       z     vdW  Elec       q    Type
REMARK                         _______ _______ _______ _____ _____    ______ ____
ROOT
ATOM      1  C   UNL     1      51.402   3.157  17.737  0.00  0.00    +0.000 A 
ATOM      2  C   UNL     1      50.698   2.075  17.179  0.00  0.00    +0.000 A 
ATOM      3  C   UNL     1      49.319   2.178  16.929  0.00  0.00    +0.000 A 
ATOM      4  C   UNL     1      48.621   3.366  17.178  0.00  0.00    +0.000 A 
ATOM      5  C   UNL     1      49.328   4.447  17.705  0.00  0.00    +0.000 A 
ATOM      6  C   UNL     1      50.684   4.339  17.990  0.00  0.00    +0.000 A 
ENDROOT
BRANCH   1   8
ATOM      7  C   UNL     1      53.436   1.649  18.033  0.00  0.00    +0.000 C 
ATOM      8  C   UNL     1      52.910   3.097  17.978  0.00  0.00    +0.000 C 
BRANCH   8   9
ATOM      9  N   UNL     1      53.381   3.824  19.167  0.00  0.00    +0.000 NA
ATOM     10  H   UNL     1      52.558   4.120  19.696  0.00  0.00    +0.000 HD
BRANCH   9  11
ATOM     11  C   UNL     1      54.175   5.040  18.915  0.00  0.00    +0.000 C 
ATOM     12  C   UNL     1      53.524   6.350  19.357  0.00  0.00    +0.000 C 
ATOM     13  C   UNL     1      54.361   7.539  18.944  0.00  0.00    +0.000 C 
ATOM     14  O   UNL     1      54.545   7.547  17.536  0.00  0.00    +0.000 OA
ATOM     15  C   UNL     1      55.223   6.378  17.078  0.00  0.00    +0.000 C 
ATOM     16  C   UNL     1      54.442   5.116  17.408  0.00  0.00    +0.000 C 
ENDBRANCH   9  11
ENDBRANCH   8   9
ENDBRANCH   1   8
BRANCH   4  17
ATOM     17  C   UNL     1      47.152   3.511  16.902  0.00  0.00    +0.000 C 
BRANCH  17  18
ATOM     18  N   UNL     1      46.887   4.473  15.857  0.00  0.00    +0.000 N 
ATOM     19  C   UNL     1      46.977   4.157  14.532  0.00  0.00    +0.000 C 
ATOM     20  O   UNL     1      47.279   3.022  14.130  0.00  0.00    +0.000 OA
ATOM     21  H   UNL     1      46.975   5.454  16.120  0.00  0.00    +0.000 HD
BRANCH  19  22
ATOM     22  C   UNL     1      46.644   5.241  13.598  0.00  0.00    +0.000 A 
ATOM     23  C   UNL     1      47.612   6.150  13.211  0.00  0.00    +0.000 A 
ATOM     24  S   UNL     1      47.059   7.316  12.083  0.00  0.00    +0.000 S 
ATOM     25  C   UNL     1      45.483   6.671  12.115  0.00  0.00    +0.000 A 
ATOM     26  N   UNL     1      44.476   7.230  11.391  0.00  0.00    +0.000 NA
ATOM     27  C   UNL     1      43.329   6.652  11.533  0.00  0.00    +0.000 A 
ATOM     28  N   UNL     1      43.098   5.556  12.321  0.00  0.00    +0.000 N 
ATOM     29  C   UNL     1      44.094   4.929  13.028  0.00  0.00    +0.000 A 
ATOM     30  O   UNL     1      43.873   3.895  13.654  0.00  0.00    +0.000 OA
ATOM     31  C   UNL     1      45.399   5.568  12.943  0.00  0.00    +0.000 A 
ATOM     32  H   UNL     1      42.186   5.128  12.368  0.00  0.00    +0.000 HD
ENDBRANCH  19  22
ENDBRANCH  17  18
ENDBRANCH   4  17
TORSDOF 6
ENDMDL
MODEL 9
REMARK VINA RESULT:    -6.821      3.999      9.778
REMARK INTER + INTRA:         -10.185
REMARK INTER:                  -8.676
REMARK INTRA:                  -1.509
REMARK UNBOUND:                -0.972
REMARK  Name = 
REMARK  7 active torsions:
REMARK  status: ('A' for Active; 'I' for Inactive)
REMARK    1  A    between atoms: C_1  and  C_2
REMARK    2  A    between atoms: C_2  and  N_3
REMARK    3  A    between atoms: C_2  and  C_10
REMARK    4  A    between atoms: N_3  and  C_4
REMARK    5  A    between atoms: C_13  and  C_14
REMARK    6  A    between atoms: C_14  and  N_15
REMARK    7  A    between atoms: C_16  and  C_18
REMARK                            x       y       z     vdW  Elec       q    Type
REMARK                         _______ _______ _______ _____ _____    ______ ____
ROOT
ATOM      1  C   UNL     1      51.506   3.130  17.791  0.00  0.00    +0.000 A 
ATOM      2  C   UNL     1      50.827   4.352  17.941  0.00  0.00    +0.000 A 
ATOM      3  C   UNL     1      49.462   4.451  17.620  0.00  0.00    +0.000 A 
ATOM      4  C   UNL     1      48.732   3.335  17.194  0.00  0.00    +0.000 A 
ATOM      5  C   UNL     1      49.403   2.117  17.073  0.00  0.00    +0.000 A 
ATOM      6  C   UNL     1      50.760   2.022  17.353  0.00  0.00    +0.000 A 
ENDROOT
BRANCH   1   8
ATOM      7  C   UNL     1      53.681   1.873  17.358  0.00  0.00    +0.000 C 
ATOM      8  C   UNL     1      52.976   2.974  18.176  0.00  0.00    +0.000 C 
BRANCH   8   9
ATOM      9  N   UNL     1      53.225   2.741  19.608  0.00  0.00    +0.000 NA
ATOM     10  H   UNL     1      52.356   2.396  20.020  0.00  0.00    +0.000 HD
BRANCH   9  11
ATOM     11  C   UNL     1      53.626   3.918  20.398  0.00  0.00    +0.000 C 
ATOM     12  C   UNL     1      52.504   4.586  21.194  0.00  0.00    +0.000 C 
ATOM     13  C   UNL     1      52.992   5.848  21.867  0.00  0.00    +0.000 C 
ATOM     14  O   UNL     1      53.501   6.756  20.903  0.00  0.00    +0.000 OA
ATOM     15  C   UNL     1      54.607   6.211  20.184  0.00  0.00    +0.000 C 
ATOM     16  C   UNL     1      54.214   4.950  19.430  0.00  0.00    +0.000 C 
ENDBRANCH   9  11
ENDBRANCH   8   9
ENDBRANCH   1   8
BRANCH   4  17
ATOM     17  C   UNL     1      47.269   3.406  16.863  0.00  0.00    +0.000 C 
BRANCH  17  18
ATOM     18  N   UNL     1      46.981   4.436  15.891  0.00  0.00    +0.000 N 
ATOM     19  C   UNL     1      46.993   4.196  14.548  0.00  0.00    +0.000 C 
ATOM     20  O   UNL     1      47.238   3.080  14.064  0.00  0.00    +0.000 OA
ATOM     21  H   UNL     1      47.113   5.396  16.206  0.00  0.00    +0.000 HD
BRANCH  19  22
ATOM     22  C   UNL     1      46.645   5.344  13.697  0.00  0.00    +0.000 A 
ATOM     23  C   UNL     1      45.453   5.356  12.996  0.00  0.00    +0.000 A 
ATOM     24  S   UNL     1      45.192   6.790  12.095  0.00  0.00    +0.000 S 
ATOM     25  C   UNL     1      46.699   7.424  12.575  0.00  0.00    +0.000 A 
ATOM     26  N   UNL     1      47.134   8.631  12.123  0.00  0.00    +0.000 NA
ATOM     27  C   UNL     1      48.305   8.972  12.548  0.00  0.00    +0.000 A 
ATOM     28  N   UNL     1      49.077   8.224  13.396  0.00  0.00    +0.000 N 
ATOM     29  C   UNL     1      48.658   7.025  13.916  0.00  0.00    +0.000 A 
ATOM     30  O   UNL     1      49.335   6.421  14.745  0.00  0.00    +0.000 OA
ATOM     31  C   UNL     1      47.363   6.568  13.432  0.00  0.00    +0.000 A 
ATOM     32  H   UNL     1      49.973   8.556  13.719  0.00  0.00    +0.000 HD
ENDBRANCH  19  22
ENDBRANCH  17  18
ENDBRANCH   4  17
TORSDOF 6
ENDMDL
