MODEL 1
REMARK VINA RESULT:    -8.452      0.000      0.000
REMARK INTER + INTRA:         -12.246
REMARK INTER:                 -11.416
REMARK INTRA:                  -0.830
REMARK UNBOUND:                -0.830
REMARK  Name = 
REMARK  6 active torsions:
REMARK  status: ('A' for Active; 'I' for Inactive)
REMARK    1  A    between atoms: C_2  and  C_4
REMARK    2  A    between atoms: N_8  and  C_9
REMARK    3  A    between atoms: C_9  and  C_10
REMARK    4  A    between atoms: C_10  and  C_11
REMARK    5  A    between atoms: C_15  and  O_16
REMARK    6  A    between atoms: O_16  and  C_17
REMARK                            x       y       z     vdW  Elec       q    Type
REMARK                         _______ _______ _______ _____ _____    ______ ____
ROOT
ATOM      1  C   UNL     1      46.557   2.480   7.612  0.00  0.00    +0.000 A 
ATOM      2  C   UNL     1      45.822   1.870   8.620  0.00  0.00    +0.000 A 
ATOM      3  C   UNL     1      45.005   2.657   9.429  0.00  0.00    +0.000 A 
ATOM      4  C   UNL     1      44.945   4.035   9.236  0.00  0.00    +0.000 A 
ATOM      5  N   UNL     1      44.139   4.860   9.980  0.00  0.00    +0.000 N 
ATOM      6  N   UNL     1      45.680   4.639   8.281  0.00  0.00    +0.000 NA
ATOM      7  C   UNL     1      46.469   3.858   7.496  0.00  0.00    +0.000 A 
ATOM      8  H   UNL     1      44.249   5.844   9.782  0.00  0.00    +0.000 HD
ENDROOT
BRANCH   1  10
ATOM      9  N   UNL     1      48.522   2.362   6.196  0.00  0.00    +0.000 N 
ATOM     10  C   UNL     1      47.418   1.719   6.686  0.00  0.00    +0.000 C 
ATOM     11  O   UNL     1      47.180   0.554   6.398  0.00  0.00    +0.000 OA
ATOM     12  H   UNL     1      49.162   1.801   5.648  0.00  0.00    +0.000 HD
ATOM     13  H   UNL     1      48.876   3.221   6.595  0.00  0.00    +0.000 HD
ENDBRANCH   1  10
BRANCH   5  14
ATOM     14  C   UNL     1      43.271   4.381  11.033  0.00  0.00    +0.000 C 
BRANCH  14  15
ATOM     15  C   UNL     1      43.313   5.276  12.275  0.00  0.00    +0.000 C 
BRANCH  15  16
ATOM     16  C   UNL     1      44.745   5.446  12.730  0.00  0.00    +0.000 A 
ATOM     17  C   UNL     1      45.399   6.674  12.579  0.00  0.00    +0.000 A 
ATOM     18  C   UNL     1      46.681   6.856  13.107  0.00  0.00    +0.000 A 
ATOM     19  C   UNL     1      47.324   5.817  13.786  0.00  0.00    +0.000 A 
ATOM     20  C   UNL     1      46.688   4.586  13.927  0.00  0.00    +0.000 A 
ATOM     21  C   UNL     1      45.402   4.408  13.407  0.00  0.00    +0.000 A 
BRANCH  20  22
ATOM     22  O   UNL     1      47.197   3.506  14.605  0.00  0.00    +0.000 OA
BRANCH  22  23
ATOM     23  C   UNL     1      47.932   3.717  15.831  0.00  0.00    +0.000 C 
ATOM     24  C   UNL     1      48.470   2.459  16.552  0.00  0.00    +0.000 C 
ATOM     25  C   UNL     1      47.882   2.979  17.870  0.00  0.00    +0.000 C 
ATOM     26  C   UNL     1      47.032   3.971  17.067  0.00  0.00    +0.000 C 
ENDBRANCH  22  23
ENDBRANCH  20  22
ENDBRANCH  15  16
ENDBRANCH  14  15
ENDBRANCH   5  14
TORSDOF 6
ENDMDL
MODEL 2
REMARK VINA RESULT:    -7.953      1.864      3.430
REMARK INTER + INTRA:         -11.572
REMARK INTER:                 -10.592
REMARK INTRA:                  -0.980
REMARK UNBOUND:                -0.830
REMARK  Name = 
REMARK  6 active torsions:
REMARK  status: ('A' for Active; 'I' for Inactive)
REMARK    1  A    between atoms: C_2  and  C_4
REMARK    2  A    between atoms: N_8  and  C_9
REMARK    3  A    between atoms: C_9  and  C_10
REMARK    4  A    between atoms: C_10  and  C_11
REMARK    5  A    between atoms: C_15  and  O_16
REMARK    6  A    between atoms: O_16  and  C_17
REMARK                            x       y       z     vdW  Elec       q    Type
REMARK                         _______ _______ _______ _____ _____    ______ ____
ROOT
ATOM      1  C   UNL     1      46.540   2.492   7.593  0.00  0.00    +0.000 A 
ATOM      2  C   UNL     1      45.763   1.940   8.604  0.00  0.00    +0.000 A 
ATOM      3  C   UNL     1      44.941   2.778   9.354  0.00  0.00    +0.000 A 
ATOM      4  C   UNL     1      44.916   4.148   9.101  0.00  0.00    +0.000 A 
ATOM      5  N   UNL     1      44.107   5.020   9.785  0.00  0.00    +0.000 N 
ATOM      6  N   UNL     1      45.691   4.694   8.143  0.00  0.00    +0.000 NA
ATOM      7  C   UNL     1      46.485   3.865   7.416  0.00  0.00    +0.000 A 
ATOM      8  H   UNL     1      44.244   5.992   9.549  0.00  0.00    +0.000 HD
ENDROOT
BRANCH   1  10
ATOM      9  N   UNL     1      48.540   2.274   6.239  0.00  0.00    +0.000 N 
ATOM     10  C   UNL     1      47.411   1.674   6.726  0.00  0.00    +0.000 C 
ATOM     11  O   UNL     1      47.157   0.502   6.483  0.00  0.00    +0.000 OA
ATOM     12  H   UNL     1      49.184   1.677   5.735  0.00  0.00    +0.000 HD
ATOM     13  H   UNL     1      48.900   3.143   6.610  0.00  0.00    +0.000 HD
ENDBRANCH   1  10
BRANCH   5  14
ATOM     14  C   UNL     1      43.199   4.605  10.832  0.00  0.00    +0.000 C 
BRANCH  14  15
ATOM     15  C   UNL     1      43.242   5.538  12.044  0.00  0.00    +0.000 C 
BRANCH  15  16
ATOM     16  C   UNL     1      44.617   5.496  12.670  0.00  0.00    +0.000 A 
ATOM     17  C   UNL     1      45.167   4.283  13.100  0.00  0.00    +0.000 A 
ATOM     18  C   UNL     1      46.483   4.236  13.570  0.00  0.00    +0.000 A 
ATOM     19  C   UNL     1      47.261   5.396  13.620  0.00  0.00    +0.000 A 
ATOM     20  C   UNL     1      46.718   6.610  13.209  0.00  0.00    +0.000 A 
ATOM     21  C   UNL     1      45.404   6.655  12.730  0.00  0.00    +0.000 A 
BRANCH  20  22
ATOM     22  O   UNL     1      47.392   7.806  13.171  0.00  0.00    +0.000 OA
BRANCH  22  23
ATOM     23  C   UNL     1      48.134   8.169  11.985  0.00  0.00    +0.000 C 
ATOM     24  C   UNL     1      49.575   7.620  11.864  0.00  0.00    +0.000 C 
ATOM     25  C   UNL     1      50.067   9.030  11.512  0.00  0.00    +0.000 C 
ATOM     26  C   UNL     1      48.741   9.593  12.035  0.00  0.00    +0.000 C 
ENDBRANCH  22  23
ENDBRANCH  20  22
ENDBRANCH  15  16
ENDBRANCH  14  15
ENDBRANCH   5  14
TORSDOF 6
ENDMDL
MODEL 3
REMARK VINA RESULT:    -7.096      2.005      2.498
REMARK INTER + INTRA:         -10.415
REMARK INTER:                  -9.804
REMARK INTRA:                  -0.611
REMARK UNBOUND:                -0.830
REMARK  Name = 
REMARK  6 active torsions:
REMARK  status: ('A' for Active; 'I' for Inactive)
REMARK    1  A    between atoms: C_2  and  C_4
REMARK    2  A    between atoms: N_8  and  C_9
REMARK    3  A    between atoms: C_9  and  C_10
REMARK    4  A    between atoms: C_10  and  C_11
REMARK    5  A    between atoms: C_15  and  O_16
REMARK    6  A    between atoms: O_16  and  C_17
REMARK                            x       y       z     vdW  Elec       q    Type
REMARK                         _______ _______ _______ _____ _____    ______ ____
ROOT
ATOM      1  C   UNL     1      46.632   2.408   7.389  0.00  0.00    +0.000 A 
ATOM      2  C   UNL     1      45.858   1.860   8.403  0.00  0.00    +0.000 A 
ATOM      3  C   UNL     1      45.076   2.707   9.186  0.00  0.00    +0.000 A 
ATOM      4  C   UNL     1      45.088   4.082   8.960  0.00  0.00    +0.000 A 
ATOM      5  N   UNL     1      44.319   4.964   9.676  0.00  0.00    +0.000 N 
ATOM      6  N   UNL     1      45.862   4.624   7.998  0.00  0.00    +0.000 NA
ATOM      7  C   UNL     1      46.616   3.785   7.240  0.00  0.00    +0.000 A 
ATOM      8  H   UNL     1      44.482   5.936   9.457  0.00  0.00    +0.000 HD
ENDROOT
BRANCH   1  10
ATOM      9  N   UNL     1      48.530   2.194   5.895  0.00  0.00    +0.000 N 
ATOM     10  C   UNL     1      47.461   1.582   6.490  0.00  0.00    +0.000 C 
ATOM     11  O   UNL     1      47.228   0.393   6.312  0.00  0.00    +0.000 OA
ATOM     12  H   UNL     1      49.153   1.597   5.366  0.00  0.00    +0.000 HD
ATOM     13  H   UNL     1      48.889   3.088   6.203  0.00  0.00    +0.000 HD
ENDBRANCH   1  10
BRANCH   5  14
ATOM     14  C   UNL     1      43.419   4.555  10.732  0.00  0.00    +0.000 C 
BRANCH  14  15
ATOM     15  C   UNL     1      42.960   5.734  11.595  0.00  0.00    +0.000 C 
BRANCH  15  16
ATOM     16  C   UNL     1      44.129   6.656  11.858  0.00  0.00    +0.000 A 
ATOM     17  C   UNL     1      44.100   7.984  11.421  0.00  0.00    +0.000 A 
ATOM     18  C   UNL     1      45.133   8.861  11.769  0.00  0.00    +0.000 A 
ATOM     19  C   UNL     1      46.204   8.421  12.552  0.00  0.00    +0.000 A 
ATOM     20  C   UNL     1      46.249   7.097  12.979  0.00  0.00    +0.000 A 
ATOM     21  C   UNL     1      45.211   6.223  12.638  0.00  0.00    +0.000 A 
BRANCH  20  22
ATOM     22  O   UNL     1      47.223   6.558  13.784  0.00  0.00    +0.000 OA
BRANCH  22  23
ATOM     23  C   UNL     1      48.222   7.422  14.370  0.00  0.00    +0.000 C 
ATOM     24  C   UNL     1      49.620   7.428  13.710  0.00  0.00    +0.000 C 
ATOM     25  C   UNL     1      50.259   7.248  15.093  0.00  0.00    +0.000 C 
ATOM     26  C   UNL     1      48.887   6.840  15.642  0.00  0.00    +0.000 C 
ENDBRANCH  22  23
ENDBRANCH  20  22
ENDBRANCH  15  16
ENDBRANCH  14  15
ENDBRANCH   5  14
TORSDOF 6
ENDMDL
MODEL 4
REMARK VINA RESULT:    -6.943      3.072      7.420
REMARK INTER + INTRA:         -10.207
REMARK INTER:                  -9.386
REMARK INTRA:                  -0.822
REMARK UNBOUND:                -0.830
REMARK  Name = 
REMARK  6 active torsions:
REMARK  status: ('A' for Active; 'I' for Inactive)
REMARK    1  A    between atoms: C_2  and  C_4
REMARK    2  A    between atoms: N_8  and  C_9
REMARK    3  A    between atoms: C_9  and  C_10
REMARK    4  A    between atoms: C_10  and  C_11
REMARK    5  A    between atoms: C_15  and  O_16
REMARK    6  A    between atoms: O_16  and  C_17
REMARK                            x       y       z     vdW  Elec       q    Type
REMARK                         _______ _______ _______ _____ _____    ______ ____
ROOT
ATOM      1  C   UNL     1      47.895   4.499  16.405  0.00  0.00    +0.000 A 
ATOM      2  C   UNL     1      47.159   4.149  15.280  0.00  0.00    +0.000 A 
ATOM      3  C   UNL     1      47.190   4.988  14.167  0.00  0.00    +0.000 A 
ATOM      4  C   UNL     1      47.935   6.164  14.196  0.00  0.00    +0.000 A 
ATOM      5  N   UNL     1      48.030   7.016  13.124  0.00  0.00    +0.000 N 
ATOM      6  N   UNL     1      48.627   6.526  15.295  0.00  0.00    +0.000 NA
ATOM      7  C   UNL     1      48.591   5.697  16.371  0.00  0.00    +0.000 A 
ATOM      8  H   UNL     1      48.543   7.866  13.308  0.00  0.00    +0.000 HD
ENDROOT
BRANCH   1  10
ATOM      9  N   UNL     1      46.937   2.747  17.780  0.00  0.00    +0.000 N 
ATOM     10  C   UNL     1      47.949   3.652  17.612  0.00  0.00    +0.000 C 
ATOM     11  O   UNL     1      48.875   3.726  18.409  0.00  0.00    +0.000 OA
ATOM     12  H   UNL     1      47.036   2.099  18.551  0.00  0.00    +0.000 HD
ATOM     13  H   UNL     1      46.302   2.493  17.035  0.00  0.00    +0.000 HD
ENDBRANCH   1  10
BRANCH   5  14
ATOM     14  C   UNL     1      47.369   6.776  11.860  0.00  0.00    +0.000 C 
BRANCH  14  15
ATOM     15  C   UNL     1      45.944   7.336  11.831  0.00  0.00    +0.000 C 
BRANCH  15  16
ATOM     16  C   UNL     1      44.956   6.204  11.667  0.00  0.00    +0.000 A 
ATOM     17  C   UNL     1      43.592   6.410  11.902  0.00  0.00    +0.000 A 
ATOM     18  C   UNL     1      42.672   5.391  11.636  0.00  0.00    +0.000 A 
ATOM     19  C   UNL     1      43.103   4.158  11.138  0.00  0.00    +0.000 A 
ATOM     20  C   UNL     1      44.460   3.938  10.916  0.00  0.00    +0.000 A 
ATOM     21  C   UNL     1      45.378   4.961  11.173  0.00  0.00    +0.000 A 
BRANCH  20  22
ATOM     22  O   UNL     1      45.000   2.789  10.392  0.00  0.00    +0.000 OA
BRANCH  22  23
ATOM     23  C   UNL     1      44.880   2.526   8.976  0.00  0.00    +0.000 C 
ATOM     24  C   UNL     1      46.118   1.932   8.265  0.00  0.00    +0.000 C 
ATOM     25  C   UNL     1      45.979   2.994   7.167  0.00  0.00    +0.000 C 
ATOM     26  C   UNL     1      45.044   3.785   8.088  0.00  0.00    +0.000 C 
ENDBRANCH  22  23
ENDBRANCH  20  22
ENDBRANCH  15  16
ENDBRANCH  14  15
ENDBRANCH   5  14
TORSDOF 6
ENDMDL
MODEL 5
REMARK VINA RESULT:    -6.890      3.610      8.508
REMARK INTER + INTRA:         -10.136
REMARK INTER:                  -9.436
REMARK INTRA:                  -0.700
REMARK UNBOUND:                -0.830
REMARK  Name = 
REMARK  6 active torsions:
REMARK  status: ('A' for Active; 'I' for Inactive)
REMARK    1  A    between atoms: C_2  and  C_4
REMARK    2  A    between atoms: N_8  and  C_9
REMARK    3  A    between atoms: C_9  and  C_10
REMARK    4  A    between atoms: C_10  and  C_11
REMARK    5  A    between atoms: C_15  and  O_16
REMARK    6  A    between atoms: O_16  and  C_17
REMARK                            x       y       z     vdW  Elec       q    Type
REMARK                         _______ _______ _______ _____ _____    ______ ____
ROOT
ATOM      1  C   UNL     1      48.064   4.867  18.198  0.00  0.00    +0.000 A 
ATOM      2  C   UNL     1      48.566   5.831  17.334  0.00  0.00    +0.000 A 
ATOM      3  C   UNL     1      48.230   5.764  15.983  0.00  0.00    +0.000 A 
ATOM      4  C   UNL     1      47.420   4.734  15.511  0.00  0.00    +0.000 A 
ATOM      5  N   UNL     1      47.031   4.630  14.200  0.00  0.00    +0.000 N 
ATOM      6  N   UNL     1      46.955   3.776  16.339  0.00  0.00    +0.000 NA
ATOM      7  C   UNL     1      47.287   3.857  17.655  0.00  0.00    +0.000 A 
ATOM      8  H   UNL     1      46.504   3.795  13.984  0.00  0.00    +0.000 HD
ENDROOT
BRANCH   1  10
ATOM      9  N   UNL     1      48.697   3.695  20.225  0.00  0.00    +0.000 N 
ATOM     10  C   UNL     1      48.338   4.883  19.649  0.00  0.00    +0.000 C 
ATOM     11  O   UNL     1      48.286   5.916  20.301  0.00  0.00    +0.000 OA
ATOM     12  H   UNL     1      48.986   3.734  21.194  0.00  0.00    +0.000 HD
ATOM     13  H   UNL     1      48.984   2.890  19.684  0.00  0.00    +0.000 HD
ENDBRANCH   1  10
BRANCH   5  14
ATOM     14  C   UNL     1      47.419   5.577  13.179  0.00  0.00    +0.000 C 
BRANCH  14  15
ATOM     15  C   UNL     1      46.247   6.443  12.710  0.00  0.00    +0.000 C 
BRANCH  15  16
ATOM     16  C   UNL     1      45.378   5.650  11.761  0.00  0.00    +0.000 A 
ATOM     17  C   UNL     1      44.089   5.254  12.137  0.00  0.00    +0.000 A 
ATOM     18  C   UNL     1      43.250   4.623  11.214  0.00  0.00    +0.000 A 
ATOM     19  C   UNL     1      43.689   4.378   9.909  0.00  0.00    +0.000 A 
ATOM     20  C   UNL     1      44.974   4.754   9.529  0.00  0.00    +0.000 A 
ATOM     21  C   UNL     1      45.809   5.393  10.451  0.00  0.00    +0.000 A 
BRANCH  20  22
ATOM     22  O   UNL     1      45.503   4.605   8.271  0.00  0.00    +0.000 OA
BRANCH  22  23
ATOM     23  C   UNL     1      45.447   3.314   7.623  0.00  0.00    +0.000 C 
ATOM     24  C   UNL     1      45.970   2.102   8.428  0.00  0.00    +0.000 C 
ATOM     25  C   UNL     1      46.804   1.673   7.214  0.00  0.00    +0.000 C 
ATOM     26  C   UNL     1      46.598   3.069   6.614  0.00  0.00    +0.000 C 
ENDBRANCH  22  23
ENDBRANCH  20  22
ENDBRANCH  15  16
ENDBRANCH  14  15
ENDBRANCH   5  14
TORSDOF 6
ENDMDL
MODEL 6
REMARK VINA RESULT:    -6.587      2.970      4.421
REMARK INTER + INTRA:          -9.727
REMARK INTER:                  -8.861
REMARK INTRA:                  -0.866
REMARK UNBOUND:                -0.830
REMARK  Name = 
REMARK  6 active torsions:
REMARK  status: ('A' for Active; 'I' for Inactive)
REMARK    1  A    between atoms: C_2  and  C_4
REMARK    2  A    between atoms: N_8  and  C_9
REMARK    3  A    between atoms: C_9  and  C_10
REMARK    4  A    between atoms: C_10  and  C_11
REMARK    5  A    between atoms: C_15  and  O_16
REMARK    6  A    between atoms: O_16  and  C_17
REMARK                            x       y       z     vdW  Elec       q    Type
REMARK                         _______ _______ _______ _____ _____    ______ ____
ROOT
ATOM      1  C   UNL     1      44.378   4.210  11.443  0.00  0.00    +0.000 A 
ATOM      2  C   UNL     1      45.178   5.043  10.671  0.00  0.00    +0.000 A 
ATOM      3  C   UNL     1      45.611   6.251  11.214  0.00  0.00    +0.000 A 
ATOM      4  C   UNL     1      45.231   6.619  12.502  0.00  0.00    +0.000 A 
ATOM      5  N   UNL     1      45.649   7.781  13.101  0.00  0.00    +0.000 N 
ATOM      6  N   UNL     1      44.430   5.830  13.245  0.00  0.00    +0.000 NA
ATOM      7  C   UNL     1      44.017   4.653  12.706  0.00  0.00    +0.000 A 
ATOM      8  H   UNL     1      45.239   7.956  14.008  0.00  0.00    +0.000 HD
ENDROOT
BRANCH   1  10
ATOM      9  N   UNL     1      44.617   2.313   9.951  0.00  0.00    +0.000 N 
ATOM     10  C   UNL     1      43.904   2.897  10.963  0.00  0.00    +0.000 C 
ATOM     11  O   UNL     1      42.942   2.336  11.470  0.00  0.00    +0.000 OA
ATOM     12  H   UNL     1      44.351   1.369   9.701  0.00  0.00    +0.000 HD
ATOM     13  H   UNL     1      45.540   2.626   9.683  0.00  0.00    +0.000 HD
ENDBRANCH   1  10
BRANCH   5  14
ATOM     14  C   UNL     1      46.526   8.734  12.458  0.00  0.00    +0.000 C 
BRANCH  14  15
ATOM     15  C   UNL     1      48.001   8.341  12.575  0.00  0.00    +0.000 C 
BRANCH  15  16
ATOM     16  C   UNL     1      48.358   8.132  14.029  0.00  0.00    +0.000 A 
ATOM     17  C   UNL     1      48.318   9.199  14.933  0.00  0.00    +0.000 A 
ATOM     18  C   UNL     1      48.536   8.974  16.296  0.00  0.00    +0.000 A 
ATOM     19  C   UNL     1      48.799   7.685  16.769  0.00  0.00    +0.000 A 
ATOM     20  C   UNL     1      48.855   6.619  15.876  0.00  0.00    +0.000 A 
ATOM     21  C   UNL     1      48.628   6.843  14.514  0.00  0.00    +0.000 A 
BRANCH  20  22
ATOM     22  O   UNL     1      49.063   5.306  16.223  0.00  0.00    +0.000 OA
BRANCH  22  23
ATOM     23  C   UNL     1      47.933   4.411  16.333  0.00  0.00    +0.000 C 
ATOM     24  C   UNL     1      47.187   4.386  17.687  0.00  0.00    +0.000 C 
ATOM     25  C   UNL     1      47.256   2.854  17.680  0.00  0.00    +0.000 C 
ATOM     26  C   UNL     1      48.325   2.934  16.585  0.00  0.00    +0.000 C 
ENDBRANCH  22  23
ENDBRANCH  20  22
ENDBRANCH  15  16
ENDBRANCH  14  15
ENDBRANCH   5  14
TORSDOF 6
ENDMDL
MODEL 7
REMARK VINA RESULT:    -6.400      3.406      7.254
REMARK INTER + INTRA:          -9.475
REMARK INTER:                  -8.362
REMARK INTRA:                  -1.113
REMARK UNBOUND:                -0.830
REMARK  Name = 
REMARK  6 active torsions:
REMARK  status: ('A' for Active; 'I' for Inactive)
REMARK    1  A    between atoms: C_2  and  C_4
REMARK    2  A    between atoms: N_8  and  C_9
REMARK    3  A    between atoms: C_9  and  C_10
REMARK    4  A    between atoms: C_10  and  C_11
REMARK    5  A    between atoms: C_15  and  O_16
REMARK    6  A    between atoms: O_16  and  C_17
REMARK                            x       y       z     vdW  Elec       q    Type
REMARK                         _______ _______ _______ _____ _____    ______ ____
ROOT
ATOM      1  C   UNL     1      46.391   9.651  12.042  0.00  0.00    +0.000 A 
ATOM      2  C   UNL     1      45.443   8.834  12.646  0.00  0.00    +0.000 A 
ATOM      3  C   UNL     1      45.844   7.601  13.155  0.00  0.00    +0.000 A 
ATOM      4  C   UNL     1      47.171   7.192  13.042  0.00  0.00    +0.000 A 
ATOM      5  N   UNL     1      47.633   6.004  13.549  0.00  0.00    +0.000 N 
ATOM      6  N   UNL     1      48.089   7.965  12.429  0.00  0.00    +0.000 NA
ATOM      7  C   UNL     1      47.686   9.167  11.940  0.00  0.00    +0.000 A 
ATOM      8  H   UNL     1      48.598   5.802  13.331  0.00  0.00    +0.000 HD
ENDROOT
BRANCH   1  10
ATOM      9  N   UNL     1      44.990  11.630  12.063  0.00  0.00    +0.000 N 
ATOM     10  C   UNL     1      46.062  10.987  11.508  0.00  0.00    +0.000 C 
ATOM     11  O   UNL     1      46.739  11.515  10.636  0.00  0.00    +0.000 OA
ATOM     12  H   UNL     1      44.836  12.585  11.768  0.00  0.00    +0.000 HD
ATOM     13  H   UNL     1      44.568  11.336  12.934  0.00  0.00    +0.000 HD
ENDBRANCH   1  10
BRANCH   5  14
ATOM     14  C   UNL     1      46.791   5.061  14.253  0.00  0.00    +0.000 C 
BRANCH  14  15
ATOM     15  C   UNL     1      46.572   3.770  13.459  0.00  0.00    +0.000 C 
BRANCH  15  16
ATOM     16  C   UNL     1      45.340   3.909  12.594  0.00  0.00    +0.000 A 
ATOM     17  C   UNL     1      44.183   4.515  13.094  0.00  0.00    +0.000 A 
ATOM     18  C   UNL     1      43.089   4.744  12.253  0.00  0.00    +0.000 A 
ATOM     19  C   UNL     1      43.138   4.367  10.908  0.00  0.00    +0.000 A 
ATOM     20  C   UNL     1      44.278   3.749  10.404  0.00  0.00    +0.000 A 
ATOM     21  C   UNL     1      45.375   3.529  11.244  0.00  0.00    +0.000 A 
BRANCH  20  22
ATOM     22  O   UNL     1      44.462   3.371   9.096  0.00  0.00    +0.000 OA
BRANCH  22  23
ATOM     23  C   UNL     1      45.800   3.140   8.603  0.00  0.00    +0.000 C 
ATOM     24  C   UNL     1      46.080   3.516   7.129  0.00  0.00    +0.000 C 
ATOM     25  C   UNL     1      46.730   2.143   6.917  0.00  0.00    +0.000 C 
ATOM     26  C   UNL     1      46.082   1.665   8.221  0.00  0.00    +0.000 C 
ENDBRANCH  22  23
ENDBRANCH  20  22
ENDBRANCH  15  16
ENDBRANCH  14  15
ENDBRANCH   5  14
TORSDOF 6
ENDMDL
MODEL 8
REMARK VINA RESULT:    -5.972      3.300      5.427
REMARK INTER + INTRA:          -8.896
REMARK INTER:                  -8.289
REMARK INTRA:                  -0.607
REMARK UNBOUND:                -0.830
REMARK  Name = 
REMARK  6 active torsions:
REMARK  status: ('A' for Active; 'I' for Inactive)
REMARK    1  A    between atoms: C_2  and  C_4
REMARK    2  A    between atoms: N_8  and  C_9
REMARK    3  A    between atoms: C_9  and  C_10
REMARK    4  A    between atoms: C_10  and  C_11
REMARK    5  A    between atoms: C_15  and  O_16
REMARK    6  A    between atoms: O_16  and  C_17
REMARK                            x       y       z     vdW  Elec       q    Type
REMARK                         _______ _______ _______ _____ _____    ______ ____
ROOT
ATOM      1  C   UNL     1      44.972   4.713  11.457  0.00  0.00    +0.000 A 
ATOM      2  C   UNL     1      45.623   5.904  11.164  0.00  0.00    +0.000 A 
ATOM      3  C   UNL     1      46.503   6.439  12.104  0.00  0.00    +0.000 A 
ATOM      4  C   UNL     1      46.707   5.793  13.321  0.00  0.00    +0.000 A 
ATOM      5  N   UNL     1      47.582   6.253  14.273  0.00  0.00    +0.000 N 
ATOM      6  N   UNL     1      46.055   4.653  13.625  0.00  0.00    +0.000 NA
ATOM      7  C   UNL     1      45.203   4.141  12.698  0.00  0.00    +0.000 A 
ATOM      8  H   UNL     1      47.576   5.728  15.136  0.00  0.00    +0.000 HD
ENDROOT
BRANCH   1  10
ATOM      9  N   UNL     1      44.021   4.554   9.232  0.00  0.00    +0.000 N 
ATOM     10  C   UNL     1      44.053   4.057  10.506  0.00  0.00    +0.000 C 
ATOM     11  O   UNL     1      43.377   3.090  10.829  0.00  0.00    +0.000 OA
ATOM     12  H   UNL     1      43.470   4.034   8.560  0.00  0.00    +0.000 HD
ATOM     13  H   UNL     1      44.729   5.179   8.872  0.00  0.00    +0.000 HD
ENDBRANCH   1  10
BRANCH   5  14
ATOM     14  C   UNL     1      48.378   7.449  14.108  0.00  0.00    +0.000 C 
BRANCH  14  15
ATOM     15  C   UNL     1      49.758   7.325  14.758  0.00  0.00    +0.000 C 
BRANCH  15  16
ATOM     16  C   UNL     1      49.601   6.977  16.221  0.00  0.00    +0.000 A 
ATOM     17  C   UNL     1      48.667   7.648  17.017  0.00  0.00    +0.000 A 
ATOM     18  C   UNL     1      48.447   7.241  18.336  0.00  0.00    +0.000 A 
ATOM     19  C   UNL     1      49.158   6.165  18.875  0.00  0.00    +0.000 A 
ATOM     20  C   UNL     1      50.101   5.500  18.096  0.00  0.00    +0.000 A 
ATOM     21  C   UNL     1      50.314   5.902  16.773  0.00  0.00    +0.000 A 
BRANCH  20  22
ATOM     22  O   UNL     1      50.830   4.407  18.497  0.00  0.00    +0.000 OA
BRANCH  22  23
ATOM     23  C   UNL     1      51.262   3.440  17.514  0.00  0.00    +0.000 C 
ATOM     24  C   UNL     1      50.373   2.188  17.324  0.00  0.00    +0.000 C 
ATOM     25  C   UNL     1      51.621   1.303  17.428  0.00  0.00    +0.000 C 
ATOM     26  C   UNL     1      52.385   2.497  18.013  0.00  0.00    +0.000 C 
ENDBRANCH  22  23
ENDBRANCH  20  22
ENDBRANCH  15  16
ENDBRANCH  14  15
ENDBRANCH   5  14
TORSDOF 6
ENDMDL
MODEL 9
REMARK VINA RESULT:    -5.741      4.437      7.799
REMARK INTER + INTRA:          -8.584
REMARK INTER:                  -7.507
REMARK INTRA:                  -1.077
REMARK UNBOUND:                -0.830
REMARK  Name = 
REMARK  6 active torsions:
REMARK  status: ('A' for Active; 'I' for Inactive)
REMARK    1  A    between atoms: C_2  and  C_4
REMARK    2  A    between atoms: N_8  and  C_9
REMARK    3  A    between atoms: C_9  and  C_10
REMARK    4  A    between atoms: C_10  and  C_11
REMARK    5  A    between atoms: C_15  and  O_16
REMARK    6  A    between atoms: O_16  and  C_17
REMARK                            x       y       z     vdW  Elec       q    Type
REMARK                         _______ _______ _______ _____ _____    ______ ____
ROOT
ATOM      1  C   UNL     1      44.166  11.439  10.817  0.00  0.00    +0.000 A 
ATOM      2  C   UNL     1      43.755  10.280  11.462  0.00  0.00    +0.000 A 
ATOM      3  C   UNL     1      44.715   9.465  12.059  0.00  0.00    +0.000 A 
ATOM      4  C   UNL     1      46.064   9.804  11.990  0.00  0.00    +0.000 A 
ATOM      5  N   UNL     1      47.053   9.058  12.582  0.00  0.00    +0.000 N 
ATOM      6  N   UNL     1      46.473  10.911  11.339  0.00  0.00    +0.000 NA
ATOM      7  C   UNL     1      45.526  11.699  10.765  0.00  0.00    +0.000 A 
ATOM      8  H   UNL     1      47.991   9.380  12.390  0.00  0.00    +0.000 HD
ENDROOT
BRANCH   1  10
ATOM      9  N   UNL     1      42.081  12.676  10.897  0.00  0.00    +0.000 N 
ATOM     10  C   UNL     1      43.215  12.378  10.191  0.00  0.00    +0.000 C 
ATOM     11  O   UNL     1      43.445  12.899   9.107  0.00  0.00    +0.000 OA
ATOM     12  H   UNL     1      41.488  13.399  10.511  0.00  0.00    +0.000 HD
ATOM     13  H   UNL     1      41.978  12.461  11.880  0.00  0.00    +0.000 HD
ENDBRANCH   1  10
BRANCH   5  14
ATOM     14  C   UNL     1      46.793   7.852  13.336  0.00  0.00    +0.000 C 
BRANCH  14  15
ATOM     15  C   UNL     1      47.205   6.589  12.574  0.00  0.00    +0.000 C 
BRANCH  15  16
ATOM     16  C   UNL     1      45.976   5.913  12.011  0.00  0.00    +0.000 A 
ATOM     17  C   UNL     1      44.850   5.698  12.812  0.00  0.00    +0.000 A 
ATOM     18  C   UNL     1      43.678   5.179  12.253  0.00  0.00    +0.000 A 
ATOM     19  C   UNL     1      43.619   4.865  10.892  0.00  0.00    +0.000 A 
ATOM     20  C   UNL     1      44.739   5.060  10.089  0.00  0.00    +0.000 A 
ATOM     21  C   UNL     1      45.908   5.589  10.647  0.00  0.00    +0.000 A 
BRANCH  20  22
ATOM     22  O   UNL     1      44.793   4.830   8.736  0.00  0.00    +0.000 OA
BRANCH  22  23
ATOM     23  C   UNL     1      44.805   3.471   8.244  0.00  0.00    +0.000 C 
ATOM     24  C   UNL     1      45.275   2.373   9.227  0.00  0.00    +0.000 C 
ATOM     25  C   UNL     1      46.209   1.822   8.142  0.00  0.00    +0.000 C 
ATOM     26  C   UNL     1      46.035   3.132   7.365  0.00  0.00    +0.000 C 
ENDBRANCH  22  23
ENDBRANCH  20  22
ENDBRANCH  15  16
ENDBRANCH  14  15
ENDBRANCH   5  14
TORSDOF 6
ENDMDL
