MODEL 1
REMARK VINA RESULT:    -7.123      0.000      0.000
REMARK INTER + INTRA:         -10.104
REMARK INTER:                  -9.205
REMARK INTRA:                  -0.899
REMARK UNBOUND:                -0.899
REMARK  Name = 
REMARK  6 active torsions:
REMARK  status: ('A' for Active; 'I' for Inactive)
REMARK    1  A    between atoms: C_1  and  C_2
REMARK    2  A    between atoms: N_5  and  C_6
REMARK    3  A    between atoms: C_6  and  C_7
REMARK    4  A    between atoms: C_11  and  C_12
REMARK    5  A    between atoms: C_16  and  C_17
REMARK    6  A    between atoms: C_19  and  C_20
REMARK                            x       y       z     vdW  Elec       q    Type
REMARK                         _______ _______ _______ _____ _____    ______ ____
ROOT
ATOM      1  C   UNL     1      47.732   5.394  14.275  0.00  0.00    +0.000 C 
ATOM      2  C   UNL     1      46.617   5.724  13.331  0.00  0.00    +0.000 A 
ATOM      3  N   UNL     1      45.906   4.621  12.932  0.00  0.00    +0.000 NA
ATOM      4  C   UNL     1      44.908   4.724  12.042  0.00  0.00    +0.000 A 
ATOM      5  N   UNL     1      44.308   3.543  11.608  0.00  0.00    +0.000 N 
ATOM      6  C   UNL     1      44.483   5.964  11.633  0.00  0.00    +0.000 A 
ATOM      7  C   UNL     1      45.206   7.099  12.017  0.00  0.00    +0.000 A 
ATOM      8  C   UNL     1      46.343   7.009  12.855  0.00  0.00    +0.000 A 
ATOM      9  H   UNL     1      43.640   3.246  12.316  0.00  0.00    +0.000 HD
ENDROOT
BRANCH   8  10
ATOM     10  C   UNL     1      47.227   8.253  13.036  0.00  0.00    +0.000 C 
ATOM     11  C   UNL     1      48.423   8.245  12.062  0.00  0.00    +0.000 C 
ATOM     12  C   UNL     1      49.778   8.056  12.724  0.00  0.00    +0.000 C 
ATOM     13  N   UNL     1      49.956   8.987  13.831  0.00  0.00    +0.000 NA
ATOM     14  C   UNL     1      48.999   8.698  14.895  0.00  0.00    +0.000 C 
ATOM     15  C   UNL     1      47.545   8.803  14.441  0.00  0.00    +0.000 C 
ATOM     16  H   UNL     1      49.832   9.944  13.499  0.00  0.00    +0.000 HD
ENDBRANCH   8  10
BRANCH   7  17
ATOM     17  C   UNL     1      44.737   8.340  11.465  0.00  0.00    +0.000 C 
ATOM     18  N   UNL     1      44.336   9.331  11.018  0.00  0.00    +0.000 NA
ENDBRANCH   7  17
BRANCH   5  19
ATOM     19  C   UNL     1      43.701   3.549  10.278  0.00  0.00    +0.000 C 
BRANCH  19  20
ATOM     20  C   UNL     1      44.741   3.254   9.224  0.00  0.00    +0.000 A 
ATOM     21  C   UNL     1      45.331   4.283   8.475  0.00  0.00    +0.000 A 
ATOM     22  C   UNL     1      46.316   3.995   7.526  0.00  0.00    +0.000 A 
ATOM     23  C   UNL     1      46.723   2.677   7.318  0.00  0.00    +0.000 A 
ATOM     24  C   UNL     1      46.156   1.642   8.066  0.00  0.00    +0.000 A 
ATOM     25  C   UNL     1      45.176   1.933   9.021  0.00  0.00    +0.000 A 
BRANCH  24  26
ATOM     26  C   UNL     1      46.576   0.291   7.858  0.00  0.00    +0.000 C 
ATOM     27  N   UNL     1      46.923  -0.806   7.692  0.00  0.00    +0.000 NA
ENDBRANCH  24  26
ENDBRANCH  19  20
ENDBRANCH   5  19
TORSDOF 5
ENDMDL
MODEL 2
REMARK VINA RESULT:    -6.354      3.013      4.898
REMARK INTER + INTRA:          -9.111
REMARK INTER:                  -8.295
REMARK INTRA:                  -0.816
REMARK UNBOUND:                -0.899
REMARK  Name = 
REMARK  6 active torsions:
REMARK  status: ('A' for Active; 'I' for Inactive)
REMARK    1  A    between atoms: C_1  and  C_2
REMARK    2  A    between atoms: N_5  and  C_6
REMARK    3  A    between atoms: C_6  and  C_7
REMARK    4  A    between atoms: C_11  and  C_12
REMARK    5  A    between atoms: C_16  and  C_17
REMARK    6  A    between atoms: C_19  and  C_20
REMARK                            x       y       z     vdW  Elec       q    Type
REMARK                         _______ _______ _______ _____ _____    ______ ____
ROOT
ATOM      1  C   UNL     1      50.298   7.457  15.347  0.00  0.00    +0.000 C 
ATOM      2  C   UNL     1      49.128   6.531  15.220  0.00  0.00    +0.000 A 
ATOM      3  N   UNL     1      48.445   6.685  14.041  0.00  0.00    +0.000 NA
ATOM      4  C   UNL     1      47.335   5.977  13.785  0.00  0.00    +0.000 A 
ATOM      5  N   UNL     1      46.640   6.271  12.612  0.00  0.00    +0.000 N 
ATOM      6  C   UNL     1      46.953   4.973  14.640  0.00  0.00    +0.000 A 
ATOM      7  C   UNL     1      47.628   4.810  15.854  0.00  0.00    +0.000 A 
ATOM      8  C   UNL     1      48.727   5.629  16.210  0.00  0.00    +0.000 A 
ATOM      9  H   UNL     1      47.110   5.807  11.839  0.00  0.00    +0.000 HD
ENDROOT
BRANCH   8  10
ATOM     10  C   UNL     1      49.262   5.562  17.650  0.00  0.00    +0.000 C 
ATOM     11  C   UNL     1      48.709   6.715  18.513  0.00  0.00    +0.000 C 
ATOM     12  C   UNL     1      49.744   7.747  18.929  0.00  0.00    +0.000 C 
ATOM     13  N   UNL     1      50.915   7.110  19.517  0.00  0.00    +0.000 NA
ATOM     14  C   UNL     1      51.606   6.299  18.520  0.00  0.00    +0.000 C 
ATOM     15  C   UNL     1      50.731   5.193  17.934  0.00  0.00    +0.000 C 
ATOM     16  H   UNL     1      50.630   6.528  20.306  0.00  0.00    +0.000 HD
ENDBRANCH   8  10
BRANCH   7  17
ATOM     17  C   UNL     1      47.098   3.794  16.720  0.00  0.00    +0.000 C 
ATOM     18  N   UNL     1      46.690   2.977  17.434  0.00  0.00    +0.000 NA
ENDBRANCH   7  17
BRANCH   5  19
ATOM     19  C   UNL     1      45.204   6.000  12.598  0.00  0.00    +0.000 C 
BRANCH  19  20
ATOM     20  C   UNL     1      44.891   4.874  11.641  0.00  0.00    +0.000 A 
ATOM     21  C   UNL     1      44.046   3.817  12.010  0.00  0.00    +0.000 A 
ATOM     22  C   UNL     1      43.742   2.800  11.100  0.00  0.00    +0.000 A 
ATOM     23  C   UNL     1      44.276   2.831   9.812  0.00  0.00    +0.000 A 
ATOM     24  C   UNL     1      45.107   3.885   9.424  0.00  0.00    +0.000 A 
ATOM     25  C   UNL     1      45.404   4.906  10.333  0.00  0.00    +0.000 A 
BRANCH  24  26
ATOM     26  C   UNL     1      45.651   3.922   8.101  0.00  0.00    +0.000 C 
ATOM     27  N   UNL     1      46.097   3.948   7.028  0.00  0.00    +0.000 NA
ENDBRANCH  24  26
ENDBRANCH  19  20
ENDBRANCH   5  19
TORSDOF 5
ENDMDL
MODEL 3
REMARK VINA RESULT:    -6.199      3.167      8.314
REMARK INTER + INTRA:          -8.910
REMARK INTER:                  -8.059
REMARK INTRA:                  -0.851
REMARK UNBOUND:                -0.899
REMARK  Name = 
REMARK  6 active torsions:
REMARK  status: ('A' for Active; 'I' for Inactive)
REMARK    1  A    between atoms: C_1  and  C_2
REMARK    2  A    between atoms: N_5  and  C_6
REMARK    3  A    between atoms: C_6  and  C_7
REMARK    4  A    between atoms: C_11  and  C_12
REMARK    5  A    between atoms: C_16  and  C_17
REMARK    6  A    between atoms: C_19  and  C_20
REMARK                            x       y       z     vdW  Elec       q    Type
REMARK                         _______ _______ _______ _____ _____    ______ ____
ROOT
ATOM      1  C   UNL     1      46.659   3.624  13.291  0.00  0.00    +0.000 C 
ATOM      2  C   UNL     1      46.892   5.103  13.358  0.00  0.00    +0.000 A 
ATOM      3  N   UNL     1      47.918   5.448  14.201  0.00  0.00    +0.000 NA
ATOM      4  C   UNL     1      48.227   6.733  14.427  0.00  0.00    +0.000 A 
ATOM      5  N   UNL     1      49.209   7.001  15.379  0.00  0.00    +0.000 N 
ATOM      6  C   UNL     1      47.617   7.721  13.694  0.00  0.00    +0.000 A 
ATOM      7  C   UNL     1      46.559   7.390  12.841  0.00  0.00    +0.000 A 
ATOM      8  C   UNL     1      46.124   6.052  12.678  0.00  0.00    +0.000 A 
ATOM      9  H   UNL     1      50.119   6.863  14.946  0.00  0.00    +0.000 HD
ENDROOT
BRANCH   8  10
ATOM     10  C   UNL     1      44.811   5.788  11.924  0.00  0.00    +0.000 C 
ATOM     11  C   UNL     1      43.666   5.424  12.891  0.00  0.00    +0.000 C 
ATOM     12  C   UNL     1      43.188   3.985  12.791  0.00  0.00    +0.000 C 
ATOM     13  N   UNL     1      42.900   3.621  11.410  0.00  0.00    +0.000 NA
ATOM     14  C   UNL     1      44.123   3.642  10.615  0.00  0.00    +0.000 C 
ATOM     15  C   UNL     1      44.803   5.010  10.594  0.00  0.00    +0.000 C 
ATOM     16  H   UNL     1      42.216   4.270  11.018  0.00  0.00    +0.000 HD
ENDBRANCH   8  10
BRANCH   7  17
ATOM     17  C   UNL     1      45.926   8.502  12.187  0.00  0.00    +0.000 C 
ATOM     18  N   UNL     1      45.405   9.406  11.683  0.00  0.00    +0.000 NA
ENDBRANCH   7  17
BRANCH   5  19
ATOM     19  C   UNL     1      49.142   8.290  16.067  0.00  0.00    +0.000 C 
BRANCH  19  20
ATOM     20  C   UNL     1      48.598   8.111  17.465  0.00  0.00    +0.000 A 
ATOM     21  C   UNL     1      47.847   9.118  18.089  0.00  0.00    +0.000 A 
ATOM     22  C   UNL     1      47.325   8.922  19.371  0.00  0.00    +0.000 A 
ATOM     23  C   UNL     1      47.546   7.719  20.041  0.00  0.00    +0.000 A 
ATOM     24  C   UNL     1      48.280   6.701  19.427  0.00  0.00    +0.000 A 
ATOM     25  C   UNL     1      48.795   6.895  18.141  0.00  0.00    +0.000 A 
BRANCH  24  26
ATOM     26  C   UNL     1      48.502   5.464  20.110  0.00  0.00    +0.000 C 
ATOM     27  N   UNL     1      48.678   4.459  20.668  0.00  0.00    +0.000 NA
ENDBRANCH  24  26
ENDBRANCH  19  20
ENDBRANCH   5  19
TORSDOF 5
ENDMDL
MODEL 4
REMARK VINA RESULT:    -6.067      3.361      5.540
REMARK INTER + INTRA:          -8.740
REMARK INTER:                  -7.885
REMARK INTRA:                  -0.855
REMARK UNBOUND:                -0.899
REMARK  Name = 
REMARK  6 active torsions:
REMARK  status: ('A' for Active; 'I' for Inactive)
REMARK    1  A    between atoms: C_1  and  C_2
REMARK    2  A    between atoms: N_5  and  C_6
REMARK    3  A    between atoms: C_6  and  C_7
REMARK    4  A    between atoms: C_11  and  C_12
REMARK    5  A    between atoms: C_16  and  C_17
REMARK    6  A    between atoms: C_19  and  C_20
REMARK                            x       y       z     vdW  Elec       q    Type
REMARK                         _______ _______ _______ _____ _____    ______ ____
ROOT
ATOM      1  C   UNL     1      51.094   7.126  16.227  0.00  0.00    +0.000 C 
ATOM      2  C   UNL     1      49.805   6.438  15.895  0.00  0.00    +0.000 A 
ATOM      3  N   UNL     1      49.257   6.865  14.713  0.00  0.00    +0.000 NA
ATOM      4  C   UNL     1      48.073   6.398  14.289  0.00  0.00    +0.000 A 
ATOM      5  N   UNL     1      47.535   6.962  13.134  0.00  0.00    +0.000 N 
ATOM      6  C   UNL     1      47.466   5.366  14.962  0.00  0.00    +0.000 A 
ATOM      7  C   UNL     1      48.003   4.928  16.177  0.00  0.00    +0.000 A 
ATOM      8  C   UNL     1      49.185   5.492  16.715  0.00  0.00    +0.000 A 
ATOM      9  H   UNL     1      47.987   6.534  12.329  0.00  0.00    +0.000 HD
ENDROOT
BRANCH   8  10
ATOM     10  C   UNL     1      49.580   5.140  18.158  0.00  0.00    +0.000 C 
ATOM     11  C   UNL     1      49.187   6.261  19.142  0.00  0.00    +0.000 C 
ATOM     12  C   UNL     1      50.361   7.008  19.753  0.00  0.00    +0.000 C 
ATOM     13  N   UNL     1      51.340   6.083  20.309  0.00  0.00    +0.000 NA
ATOM     14  C   UNL     1      51.943   5.284  19.248  0.00  0.00    +0.000 C 
ATOM     15  C   UNL     1      50.926   4.455  18.468  0.00  0.00    +0.000 C 
ATOM     16  H   UNL     1      50.888   5.474  20.993  0.00  0.00    +0.000 HD
ENDBRANCH   8  10
BRANCH   7  17
ATOM     17  C   UNL     1      47.247   3.908  16.849  0.00  0.00    +0.000 C 
ATOM     18  N   UNL     1      46.619   3.103  17.397  0.00  0.00    +0.000 NA
ENDBRANCH   7  17
BRANCH   5  19
ATOM     19  C   UNL     1      46.079   6.943  12.994  0.00  0.00    +0.000 C 
BRANCH  19  20
ATOM     20  C   UNL     1      45.671   6.026  11.865  0.00  0.00    +0.000 A 
ATOM     21  C   UNL     1      46.133   6.230  10.557  0.00  0.00    +0.000 A 
ATOM     22  C   UNL     1      45.771   5.352   9.531  0.00  0.00    +0.000 A 
ATOM     23  C   UNL     1      44.947   4.260   9.803  0.00  0.00    +0.000 A 
ATOM     24  C   UNL     1      44.490   4.034  11.105  0.00  0.00    +0.000 A 
ATOM     25  C   UNL     1      44.860   4.909  12.131  0.00  0.00    +0.000 A 
BRANCH  24  26
ATOM     26  C   UNL     1      43.650   2.912  11.386  0.00  0.00    +0.000 C 
ATOM     27  N   UNL     1      42.964   2.002  11.620  0.00  0.00    +0.000 NA
ENDBRANCH  24  26
ENDBRANCH  19  20
ENDBRANCH   5  19
TORSDOF 5
ENDMDL
MODEL 5
REMARK VINA RESULT:    -5.892      2.946      6.928
REMARK INTER + INTRA:          -8.513
REMARK INTER:                  -7.989
REMARK INTRA:                  -0.524
REMARK UNBOUND:                -0.899
REMARK  Name = 
REMARK  6 active torsions:
REMARK  status: ('A' for Active; 'I' for Inactive)
REMARK    1  A    between atoms: C_1  and  C_2
REMARK    2  A    between atoms: N_5  and  C_6
REMARK    3  A    between atoms: C_6  and  C_7
REMARK    4  A    between atoms: C_11  and  C_12
REMARK    5  A    between atoms: C_16  and  C_17
REMARK    6  A    between atoms: C_19  and  C_20
REMARK                            x       y       z     vdW  Elec       q    Type
REMARK                         _______ _______ _______ _____ _____    ______ ____
ROOT
ATOM      1  C   UNL     1      44.675   7.634  11.411  0.00  0.00    +0.000 C 
ATOM      2  C   UNL     1      45.862   7.168  12.197  0.00  0.00    +0.000 A 
ATOM      3  N   UNL     1      46.941   8.008  12.090  0.00  0.00    +0.000 NA
ATOM      4  C   UNL     1      48.109   7.715  12.681  0.00  0.00    +0.000 A 
ATOM      5  N   UNL     1      49.186   8.565  12.434  0.00  0.00    +0.000 N 
ATOM      6  C   UNL     1      48.193   6.641  13.533  0.00  0.00    +0.000 A 
ATOM      7  C   UNL     1      47.107   5.765  13.643  0.00  0.00    +0.000 A 
ATOM      8  C   UNL     1      45.903   5.979  12.930  0.00  0.00    +0.000 A 
ATOM      9  H   UNL     1      49.092   9.381  13.034  0.00  0.00    +0.000 HD
ENDROOT
BRANCH   8  10
ATOM     10  C   UNL     1      44.852   4.858  12.904  0.00  0.00    +0.000 C 
ATOM     11  C   UNL     1      45.149   3.828  11.795  0.00  0.00    +0.000 C 
ATOM     12  C   UNL     1      44.150   3.826  10.650  0.00  0.00    +0.000 C 
ATOM     13  N   UNL     1      42.782   3.745  11.145  0.00  0.00    +0.000 NA
ATOM     14  C   UNL     1      42.446   4.946  11.904  0.00  0.00    +0.000 C 
ATOM     15  C   UNL     1      43.356   5.168  13.110  0.00  0.00    +0.000 C 
ATOM     16  H   UNL     1      42.678   2.918  11.734  0.00  0.00    +0.000 HD
ENDBRANCH   8  10
BRANCH   7  17
ATOM     17  C   UNL     1      47.324   4.623  14.488  0.00  0.00    +0.000 C 
ATOM     18  N   UNL     1      47.482   3.688  15.154  0.00  0.00    +0.000 NA
ENDBRANCH   7  17
BRANCH   5  19
ATOM     19  C   UNL     1      50.528   7.991  12.530  0.00  0.00    +0.000 C 
BRANCH  19  20
ATOM     20  C   UNL     1      51.322   8.300  11.282  0.00  0.00    +0.000 A 
ATOM     21  C   UNL     1      51.621   9.621  10.917  0.00  0.00    +0.000 A 
ATOM     22  C   UNL     1      52.384   9.887   9.777  0.00  0.00    +0.000 A 
ATOM     23  C   UNL     1      52.859   8.836   8.992  0.00  0.00    +0.000 A 
ATOM     24  C   UNL     1      52.582   7.514   9.350  0.00  0.00    +0.000 A 
ATOM     25  C   UNL     1      51.824   7.250  10.496  0.00  0.00    +0.000 A 
BRANCH  24  26
ATOM     26  C   UNL     1      53.072   6.436   8.549  0.00  0.00    +0.000 C 
ATOM     27  N   UNL     1      53.471   5.555   7.903  0.00  0.00    +0.000 NA
ENDBRANCH  24  26
ENDBRANCH  19  20
ENDBRANCH   5  19
TORSDOF 5
ENDMDL
MODEL 6
REMARK VINA RESULT:    -5.678      3.828      8.075
REMARK INTER + INTRA:          -8.237
REMARK INTER:                  -7.443
REMARK INTRA:                  -0.793
REMARK UNBOUND:                -0.899
REMARK  Name = 
REMARK  6 active torsions:
REMARK  status: ('A' for Active; 'I' for Inactive)
REMARK    1  A    between atoms: C_1  and  C_2
REMARK    2  A    between atoms: N_5  and  C_6
REMARK    3  A    between atoms: C_6  and  C_7
REMARK    4  A    between atoms: C_11  and  C_12
REMARK    5  A    between atoms: C_16  and  C_17
REMARK    6  A    between atoms: C_19  and  C_20
REMARK                            x       y       z     vdW  Elec       q    Type
REMARK                         _______ _______ _______ _____ _____    ______ ____
ROOT
ATOM      1  C   UNL     1      45.628   3.065  12.786  0.00  0.00    +0.000 C 
ATOM      2  C   UNL     1      46.409   4.178  13.414  0.00  0.00    +0.000 A 
ATOM      3  N   UNL     1      47.016   3.814  14.588  0.00  0.00    +0.000 NA
ATOM      4  C   UNL     1      47.708   4.704  15.315  0.00  0.00    +0.000 A 
ATOM      5  N   UNL     1      48.202   4.281  16.549  0.00  0.00    +0.000 N 
ATOM      6  C   UNL     1      47.948   5.958  14.812  0.00  0.00    +0.000 A 
ATOM      7  C   UNL     1      47.325   6.352  13.623  0.00  0.00    +0.000 A 
ATOM      8  C   UNL     1      46.483   5.475  12.898  0.00  0.00    +0.000 A 
ATOM      9  H   UNL     1      49.057   3.755  16.386  0.00  0.00    +0.000 HD
ENDROOT
BRANCH   8  10
ATOM     10  C   UNL     1      45.642   6.045  11.744  0.00  0.00    +0.000 C 
ATOM     11  C   UNL     1      44.188   6.317  12.184  0.00  0.00    +0.000 C 
ATOM     12  C   UNL     1      43.154   5.403  11.549  0.00  0.00    +0.000 C 
ATOM     13  N   UNL     1      43.308   5.360  10.101  0.00  0.00    +0.000 NA
ATOM     14  C   UNL     1      44.585   4.748   9.746  0.00  0.00    +0.000 C 
ATOM     15  C   UNL     1      45.789   5.499  10.310  0.00  0.00    +0.000 C 
ATOM     16  H   UNL     1      43.255   6.306   9.721  0.00  0.00    +0.000 HD
ENDBRANCH   8  10
BRANCH   7  17
ATOM     17  C   UNL     1      47.565   7.712  13.226  0.00  0.00    +0.000 C 
ATOM     18  N   UNL     1      47.777   8.801  12.890  0.00  0.00    +0.000 NA
ENDBRANCH   7  17
BRANCH   5  19
ATOM     19  C   UNL     1      48.397   5.301  17.578  0.00  0.00    +0.000 C 
BRANCH  19  20
ATOM     20  C   UNL     1      49.840   5.328  18.024  0.00  0.00    +0.000 A 
ATOM     21  C   UNL     1      50.454   6.521  18.435  0.00  0.00    +0.000 A 
ATOM     22  C   UNL     1      51.780   6.521  18.875  0.00  0.00    +0.000 A 
ATOM     23  C   UNL     1      52.506   5.330  18.914  0.00  0.00    +0.000 A 
ATOM     24  C   UNL     1      51.904   4.131  18.522  0.00  0.00    +0.000 A 
ATOM     25  C   UNL     1      50.574   4.131  18.089  0.00  0.00    +0.000 A 
BRANCH  24  26
ATOM     26  C   UNL     1      52.644   2.908  18.566  0.00  0.00    +0.000 C 
ATOM     27  N   UNL     1      53.249   1.916  18.598  0.00  0.00    +0.000 NA
ENDBRANCH  24  26
ENDBRANCH  19  20
ENDBRANCH   5  19
TORSDOF 5
ENDMDL
MODEL 7
REMARK VINA RESULT:    -5.572      2.639      3.618
REMARK INTER + INTRA:          -8.100
REMARK INTER:                  -7.404
REMARK INTRA:                  -0.695
REMARK UNBOUND:                -0.899
REMARK  Name = 
REMARK  6 active torsions:
REMARK  status: ('A' for Active; 'I' for Inactive)
REMARK    1  A    between atoms: C_1  and  C_2
REMARK    2  A    between atoms: N_5  and  C_6
REMARK    3  A    between atoms: C_6  and  C_7
REMARK    4  A    between atoms: C_11  and  C_12
REMARK    5  A    between atoms: C_16  and  C_17
REMARK    6  A    between atoms: C_19  and  C_20
REMARK                            x       y       z     vdW  Elec       q    Type
REMARK                         _______ _______ _______ _____ _____    ______ ____
ROOT
ATOM      1  C   UNL     1      50.476   8.575  11.973  0.00  0.00    +0.000 C 
ATOM      2  C   UNL     1      48.985   8.713  11.953  0.00  0.00    +0.000 A 
ATOM      3  N   UNL     1      48.333   7.506  11.942  0.00  0.00    +0.000 NA
ATOM      4  C   UNL     1      46.996   7.441  11.865  0.00  0.00    +0.000 A 
ATOM      5  N   UNL     1      46.419   6.177  11.750  0.00  0.00    +0.000 N 
ATOM      6  C   UNL     1      46.250   8.590  11.951  0.00  0.00    +0.000 A 
ATOM      7  C   UNL     1      46.897   9.831  11.948  0.00  0.00    +0.000 A 
ATOM      8  C   UNL     1      48.308   9.935  11.900  0.00  0.00    +0.000 A 
ATOM      9  H   UNL     1      46.381   5.758  12.676  0.00  0.00    +0.000 HD
ENDROOT
BRANCH   8  10
ATOM     10  C   UNL     1      48.939  11.314  11.652  0.00  0.00    +0.000 C 
ATOM     11  C   UNL     1      49.326  11.501  10.170  0.00  0.00    +0.000 C 
ATOM     12  C   UNL     1      50.821  11.554   9.908  0.00  0.00    +0.000 C 
ATOM     13  N   UNL     1      51.475  12.513  10.790  0.00  0.00    +0.000 NA
ATOM     14  C   UNL     1      51.375  12.075  12.178  0.00  0.00    +0.000 C 
ATOM     15  C   UNL     1      49.934  11.924  12.659  0.00  0.00    +0.000 C 
ATOM     16  H   UNL     1      51.044  13.431  10.680  0.00  0.00    +0.000 HD
ENDBRANCH   8  10
BRANCH   7  17
ATOM     17  C   UNL     1      46.028  10.975  11.949  0.00  0.00    +0.000 C 
ATOM     18  N   UNL     1      45.344  11.910  11.966  0.00  0.00    +0.000 NA
ENDBRANCH   7  17
BRANCH   5  19
ATOM     19  C   UNL     1      45.123   6.090  11.078  0.00  0.00    +0.000 C 
BRANCH  19  20
ATOM     20  C   UNL     1      45.013   4.793  10.311  0.00  0.00    +0.000 A 
ATOM     21  C   UNL     1      44.268   3.714  10.807  0.00  0.00    +0.000 A 
ATOM     22  C   UNL     1      44.151   2.533  10.069  0.00  0.00    +0.000 A 
ATOM     23  C   UNL     1      44.775   2.420   8.826  0.00  0.00    +0.000 A 
ATOM     24  C   UNL     1      45.509   3.491   8.311  0.00  0.00    +0.000 A 
ATOM     25  C   UNL     1      45.618   4.675   9.048  0.00  0.00    +0.000 A 
BRANCH  24  26
ATOM     26  C   UNL     1      46.145   3.379   7.035  0.00  0.00    +0.000 C 
ATOM     27  N   UNL     1      46.661   3.294   5.997  0.00  0.00    +0.000 NA
ENDBRANCH  24  26
ENDBRANCH  19  20
ENDBRANCH   5  19
TORSDOF 5
ENDMDL
MODEL 8
REMARK VINA RESULT:    -5.524      3.134      7.516
REMARK INTER + INTRA:          -8.038
REMARK INTER:                  -7.234
REMARK INTRA:                  -0.803
REMARK UNBOUND:                -0.899
REMARK  Name = 
REMARK  6 active torsions:
REMARK  status: ('A' for Active; 'I' for Inactive)
REMARK    1  A    between atoms: C_1  and  C_2
REMARK    2  A    between atoms: N_5  and  C_6
REMARK    3  A    between atoms: C_6  and  C_7
REMARK    4  A    between atoms: C_11  and  C_12
REMARK    5  A    between atoms: C_16  and  C_17
REMARK    6  A    between atoms: C_19  and  C_20
REMARK                            x       y       z     vdW  Elec       q    Type
REMARK                         _______ _______ _______ _____ _____    ______ ____
ROOT
ATOM      1  C   UNL     1      42.875   6.583  11.315  0.00  0.00    +0.000 C 
ATOM      2  C   UNL     1      44.187   7.166  11.745  0.00  0.00    +0.000 A 
ATOM      3  N   UNL     1      44.160   8.533  11.848  0.00  0.00    +0.000 NA
ATOM      4  C   UNL     1      45.264   9.226  12.165  0.00  0.00    +0.000 A 
ATOM      5  N   UNL     1      45.178  10.617  12.144  0.00  0.00    +0.000 N 
ATOM      6  C   UNL     1      46.404   8.560  12.542  0.00  0.00    +0.000 A 
ATOM      7  C   UNL     1      46.455   7.167  12.428  0.00  0.00    +0.000 A 
ATOM      8  C   UNL     1      45.344   6.415  11.973  0.00  0.00    +0.000 A 
ATOM      9  H   UNL     1      44.742  10.923  13.010  0.00  0.00    +0.000 HD
ENDROOT
BRANCH   8  10
ATOM     10  C   UNL     1      45.545   4.929  11.639  0.00  0.00    +0.000 C 
ATOM     11  C   UNL     1      45.466   4.674  10.120  0.00  0.00    +0.000 C 
ATOM     12  C   UNL     1      44.248   3.882   9.673  0.00  0.00    +0.000 C 
ATOM     13  N   UNL     1      44.095   2.665  10.460  0.00  0.00    +0.000 NA
ATOM     14  C   UNL     1      43.810   2.995  11.853  0.00  0.00    +0.000 C 
ATOM     15  C   UNL     1      44.909   3.827  12.510  0.00  0.00    +0.000 C 
ATOM     16  H   UNL     1      44.947   2.106  10.399  0.00  0.00    +0.000 HD
ENDBRANCH   8  10
BRANCH   7  17
ATOM     17  C   UNL     1      47.719   6.570  12.759  0.00  0.00    +0.000 C 
ATOM     18  N   UNL     1      48.740   6.103  13.047  0.00  0.00    +0.000 NA
ENDBRANCH   7  17
BRANCH   5  19
ATOM     19  C   UNL     1      46.409  11.361  11.880  0.00  0.00    +0.000 C 
BRANCH  19  20
ATOM     20  C   UNL     1      46.480  11.762  10.426  0.00  0.00    +0.000 A 
ATOM     21  C   UNL     1      47.706  12.043   9.805  0.00  0.00    +0.000 A 
ATOM     22  C   UNL     1      47.755  12.381   8.450  0.00  0.00    +0.000 A 
ATOM     23  C   UNL     1      46.580  12.440   7.700  0.00  0.00    +0.000 A 
ATOM     24  C   UNL     1      45.352  12.149   8.300  0.00  0.00    +0.000 A 
ATOM     25  C   UNL     1      45.306  11.803   9.654  0.00  0.00    +0.000 A 
BRANCH  24  26
ATOM     26  C   UNL     1      44.147  12.204   7.531  0.00  0.00    +0.000 C 
ATOM     27  N   UNL     1      43.168  12.242   6.905  0.00  0.00    +0.000 NA
ENDBRANCH  24  26
ENDBRANCH  19  20
ENDBRANCH   5  19
TORSDOF 5
ENDMDL
MODEL 9
REMARK VINA RESULT:    -5.320      3.478      8.567
REMARK INTER + INTRA:          -7.775
REMARK INTER:                  -6.981
REMARK INTRA:                  -0.794
REMARK UNBOUND:                -0.899
REMARK  Name = 
REMARK  6 active torsions:
REMARK  status: ('A' for Active; 'I' for Inactive)
REMARK    1  A    between atoms: C_1  and  C_2
REMARK    2  A    between atoms: N_5  and  C_6
REMARK    3  A    between atoms: C_6  and  C_7
REMARK    4  A    between atoms: C_11  and  C_12
REMARK    5  A    between atoms: C_16  and  C_17
REMARK    6  A    between atoms: C_19  and  C_20
REMARK                            x       y       z     vdW  Elec       q    Type
REMARK                         _______ _______ _______ _____ _____    ______ ____
ROOT
ATOM      1  C   UNL     1      45.712   3.128  12.866  0.00  0.00    +0.000 C 
ATOM      2  C   UNL     1      46.483   4.264  13.467  0.00  0.00    +0.000 A 
ATOM      3  N   UNL     1      47.099   3.932  14.646  0.00  0.00    +0.000 NA
ATOM      4  C   UNL     1      47.784   4.845  15.351  0.00  0.00    +0.000 A 
ATOM      5  N   UNL     1      48.288   4.454  16.591  0.00  0.00    +0.000 N 
ATOM      6  C   UNL     1      48.008   6.091  14.820  0.00  0.00    +0.000 A 
ATOM      7  C   UNL     1      47.375   6.452  13.626  0.00  0.00    +0.000 A 
ATOM      8  C   UNL     1      46.540   5.551  12.923  0.00  0.00    +0.000 A 
ATOM      9  H   UNL     1      49.149   3.934  16.436  0.00  0.00    +0.000 HD
ENDROOT
BRANCH   8  10
ATOM     10  C   UNL     1      45.688   6.086  11.761  0.00  0.00    +0.000 C 
ATOM     11  C   UNL     1      44.268   6.466  12.229  0.00  0.00    +0.000 C 
ATOM     12  C   UNL     1      43.164   5.569  11.694  0.00  0.00    +0.000 C 
ATOM     13  N   UNL     1      43.262   5.420  10.249  0.00  0.00    +0.000 NA
ATOM     14  C   UNL     1      44.491   4.716   9.894  0.00  0.00    +0.000 C 
ATOM     15  C   UNL     1      45.752   5.437  10.365  0.00  0.00    +0.000 C 
ATOM     16  H   UNL     1      43.244   6.339   9.805  0.00  0.00    +0.000 HD
ENDBRANCH   8  10
BRANCH   7  17
ATOM     17  C   UNL     1      47.598   7.806  13.199  0.00  0.00    +0.000 C 
ATOM     18  N   UNL     1      47.796   8.890  12.839  0.00  0.00    +0.000 NA
ENDBRANCH   7  17
BRANCH   5  19
ATOM     19  C   UNL     1      48.476   5.498  17.597  0.00  0.00    +0.000 C 
BRANCH  19  20
ATOM     20  C   UNL     1      49.944   5.665  17.914  0.00  0.00    +0.000 A 
ATOM     21  C   UNL     1      50.904   4.778  17.407  0.00  0.00    +0.000 A 
ATOM     22  C   UNL     1      52.261   4.966  17.684  0.00  0.00    +0.000 A 
ATOM     23  C   UNL     1      52.672   6.044  18.469  0.00  0.00    +0.000 A 
ATOM     24  C   UNL     1      51.729   6.945  18.970  0.00  0.00    +0.000 A 
ATOM     25  C   UNL     1      50.372   6.760  18.684  0.00  0.00    +0.000 A 
BRANCH  24  26
ATOM     26  C   UNL     1      52.148   8.054  19.769  0.00  0.00    +0.000 C 
ATOM     27  N   UNL     1      52.491   8.952  20.424  0.00  0.00    +0.000 NA
ENDBRANCH  24  26
ENDBRANCH  19  20
ENDBRANCH   5  19
TORSDOF 5
ENDMDL
