MODEL 1
REMARK VINA RESULT:    -7.205      0.000      0.000
REMARK INTER + INTRA:          -9.914
REMARK INTER:                  -9.310
REMARK INTRA:                  -0.604
REMARK UNBOUND:                -0.604
REMARK  Name = 
REMARK  5 active torsions:
REMARK  status: ('A' for Active; 'I' for Inactive)
REMARK    1  A    between atoms: C_2  and  C_4
REMARK    2  A    between atoms: C_8  and  C_9
REMARK    3  A    between atoms: C_9  and  N_10
REMARK    4  A    between atoms: N_10  and  C_11
REMARK    5  A    between atoms: C_15  and  N_16
REMARK                            x       y       z     vdW  Elec       q    Type
REMARK                         _______ _______ _______ _____ _____    ______ ____
ROOT
ATOM      1  N   UNL     1      46.137   6.345  13.198  0.00  0.00    +0.000 N 
ATOM      2  H   UNL     1      45.939   7.253  12.780  0.00  0.00    +0.000 HD
ENDROOT
BRANCH   1   3
ATOM      3  C   UNL     1      45.320   5.344  12.646  0.00  0.00    +0.000 A 
ATOM      4  C   UNL     1      44.409   4.654  13.448  0.00  0.00    +0.000 A 
ATOM      5  N   UNL     1      43.607   3.652  13.027  0.00  0.00    +0.000 NA
ATOM      6  C   UNL     1      43.754   3.277  11.734  0.00  0.00    +0.000 A 
ATOM      7  C   UNL     1      44.661   3.826  10.823  0.00  0.00    +0.000 A 
ATOM      8  C   UNL     1      45.451   4.871  11.331  0.00  0.00    +0.000 A 
BRANCH   7   9
ATOM      9  N   UNL     1      44.776   3.380   9.525  0.00  0.00    +0.000 N 
ATOM     10  C   UNL     1      44.722   1.962   9.141  0.00  0.00    +0.000 C 
ATOM     11  C   UNL     1      45.997   1.584   8.374  0.00  0.00    +0.000 C 
ATOM     12  O   UNL     1      46.204   2.445   7.240  0.00  0.00    +0.000 OA
ATOM     13  C   UNL     1      46.316   3.815   7.665  0.00  0.00    +0.000 C 
ATOM     14  C   UNL     1      45.052   4.292   8.404  0.00  0.00    +0.000 C 
ENDBRANCH   7   9
ENDBRANCH   1   3
BRANCH   1  15
ATOM     15  C   UNL     1      47.582   6.106  13.239  0.00  0.00    +0.000 C 
BRANCH  15  20
ATOM     16  C   UNL     1      48.021   4.864  16.709  0.00  0.00    +0.000 A 
ATOM     17  C   UNL     1      48.892   5.772  17.296  0.00  0.00    +0.000 A 
ATOM     18  C   UNL     1      49.367   6.821  16.520  0.00  0.00    +0.000 A 
ATOM     19  C   UNL     1      48.951   6.930  15.195  0.00  0.00    +0.000 A 
ATOM     20  C   UNL     1      48.068   5.980  14.674  0.00  0.00    +0.000 A 
ATOM     21  N   UNL     1      47.602   4.939  15.412  0.00  0.00    +0.000 NA
BRANCH  16  23
ATOM     22  N   UNL     1      48.165   3.461  18.681  0.00  0.00    +0.000 N 
ATOM     23  C   UNL     1      47.486   3.727  17.522  0.00  0.00    +0.000 C 
ATOM     24  O   UNL     1      46.505   3.074  17.187  0.00  0.00    +0.000 OA
ATOM     25  H   UNL     1      47.844   2.720  19.286  0.00  0.00    +0.000 HD
ATOM     26  H   UNL     1      48.957   4.036  18.941  0.00  0.00    +0.000 HD
ENDBRANCH  16  23
ENDBRANCH  15  20
ENDBRANCH   1  15
TORSDOF 5
ENDMDL
MODEL 2
REMARK VINA RESULT:    -7.031      2.332      3.698
REMARK INTER + INTRA:          -9.690
REMARK INTER:                  -9.005
REMARK INTRA:                  -0.685
REMARK UNBOUND:                -0.604
REMARK  Name = 
REMARK  5 active torsions:
REMARK  status: ('A' for Active; 'I' for Inactive)
REMARK    1  A    between atoms: C_2  and  C_4
REMARK    2  A    between atoms: C_8  and  C_9
REMARK    3  A    between atoms: C_9  and  N_10
REMARK    4  A    between atoms: N_10  and  C_11
REMARK    5  A    between atoms: C_15  and  N_16
REMARK                            x       y       z     vdW  Elec       q    Type
REMARK                         _______ _______ _______ _____ _____    ______ ____
ROOT
ATOM      1  N   UNL     1      49.044   6.573  14.744  0.00  0.00    +0.000 N 
ATOM      2  H   UNL     1      49.413   5.626  14.657  0.00  0.00    +0.000 HD
ENDROOT
BRANCH   1   3
ATOM      3  C   UNL     1      47.865   6.726  13.995  0.00  0.00    +0.000 A 
ATOM      4  C   UNL     1      47.464   7.991  13.562  0.00  0.00    +0.000 A 
ATOM      5  N   UNL     1      46.333   8.253  12.872  0.00  0.00    +0.000 NA
ATOM      6  C   UNL     1      45.520   7.195  12.639  0.00  0.00    +0.000 A 
ATOM      7  C   UNL     1      45.751   5.881  13.059  0.00  0.00    +0.000 A 
ATOM      8  C   UNL     1      46.953   5.686  13.759  0.00  0.00    +0.000 A 
BRANCH   7   9
ATOM      9  N   UNL     1      44.868   4.853  12.809  0.00  0.00    +0.000 N 
ATOM     10  C   UNL     1      45.278   3.518  12.350  0.00  0.00    +0.000 C 
ATOM     11  C   UNL     1      44.558   3.179  11.037  0.00  0.00    +0.000 C 
ATOM     12  O   UNL     1      43.131   3.290  11.176  0.00  0.00    +0.000 OA
ATOM     13  C   UNL     1      42.767   4.627  11.563  0.00  0.00    +0.000 C 
ATOM     14  C   UNL     1      43.411   5.032  12.902  0.00  0.00    +0.000 C 
ENDBRANCH   7   9
ENDBRANCH   1   3
BRANCH   1  15
ATOM     15  C   UNL     1      49.022   6.985  16.151  0.00  0.00    +0.000 C 
BRANCH  15  20
ATOM     16  C   UNL     1      49.342   3.533  17.475  0.00  0.00    +0.000 A 
ATOM     17  C   UNL     1      48.663   3.559  18.685  0.00  0.00    +0.000 A 
ATOM     18  C   UNL     1      48.093   4.759  19.090  0.00  0.00    +0.000 A 
ATOM     19  C   UNL     1      48.214   5.881  18.274  0.00  0.00    +0.000 A 
ATOM     20  C   UNL     1      48.910   5.776  17.065  0.00  0.00    +0.000 A 
ATOM     21  N   UNL     1      49.486   4.616  16.657  0.00  0.00    +0.000 NA
BRANCH  16  23
ATOM     22  N   UNL     1      50.973   1.766  17.790  0.00  0.00    +0.000 N 
ATOM     23  C   UNL     1      49.960   2.253  17.006  0.00  0.00    +0.000 C 
ATOM     24  O   UNL     1      49.592   1.668  15.995  0.00  0.00    +0.000 OA
ATOM     25  H   UNL     1      51.419   0.896  17.542  0.00  0.00    +0.000 HD
ATOM     26  H   UNL     1      51.236   2.262  18.633  0.00  0.00    +0.000 HD
ENDBRANCH  16  23
ENDBRANCH  15  20
ENDBRANCH   1  15
TORSDOF 5
ENDMDL
MODEL 3
REMARK VINA RESULT:    -6.914      2.016      3.012
REMARK INTER + INTRA:          -9.538
REMARK INTER:                  -8.786
REMARK INTRA:                  -0.753
REMARK UNBOUND:                -0.604
REMARK  Name = 
REMARK  5 active torsions:
REMARK  status: ('A' for Active; 'I' for Inactive)
REMARK    1  A    between atoms: C_2  and  C_4
REMARK    2  A    between atoms: C_8  and  C_9
REMARK    3  A    between atoms: C_9  and  N_10
REMARK    4  A    between atoms: N_10  and  C_11
REMARK    5  A    between atoms: C_15  and  N_16
REMARK                            x       y       z     vdW  Elec       q    Type
REMARK                         _______ _______ _______ _____ _____    ______ ____
ROOT
ATOM      1  N   UNL     1      48.618   6.524  13.194  0.00  0.00    +0.000 N 
ATOM      2  H   UNL     1      48.697   5.531  13.413  0.00  0.00    +0.000 HD
ENDROOT
BRANCH   1   3
ATOM      3  C   UNL     1      47.369   6.819  12.623  0.00  0.00    +0.000 A 
ATOM      4  C   UNL     1      46.967   8.144  12.449  0.00  0.00    +0.000 A 
ATOM      5  N   UNL     1      45.776   8.536  11.948  0.00  0.00    +0.000 NA
ATOM      6  C   UNL     1      44.905   7.545  11.644  0.00  0.00    +0.000 A 
ATOM      7  C   UNL     1      45.133   6.176  11.817  0.00  0.00    +0.000 A 
ATOM      8  C   UNL     1      46.399   5.848  12.331  0.00  0.00    +0.000 A 
BRANCH   7   9
ATOM      9  N   UNL     1      44.192   5.219  11.510  0.00  0.00    +0.000 N 
ATOM     10  C   UNL     1      43.305   4.596  12.503  0.00  0.00    +0.000 C 
ATOM     11  C   UNL     1      43.475   3.071  12.466  0.00  0.00    +0.000 C 
ATOM     12  O   UNL     1      43.258   2.550  11.144  0.00  0.00    +0.000 OA
ATOM     13  C   UNL     1      44.187   3.135  10.214  0.00  0.00    +0.000 C 
ATOM     14  C   UNL     1      44.048   4.668  10.153  0.00  0.00    +0.000 C 
ENDBRANCH   7   9
ENDBRANCH   1   3
BRANCH   1  15
ATOM     15  C   UNL     1      49.061   7.335  14.332  0.00  0.00    +0.000 C 
BRANCH  15  20
ATOM     16  C   UNL     1      48.175   4.700  16.791  0.00  0.00    +0.000 A 
ATOM     17  C   UNL     1      48.133   5.361  18.011  0.00  0.00    +0.000 A 
ATOM     18  C   UNL     1      48.424   6.719  18.030  0.00  0.00    +0.000 A 
ATOM     19  C   UNL     1      48.736   7.367  16.836  0.00  0.00    +0.000 A 
ATOM     20  C   UNL     1      48.753   6.634  15.645  0.00  0.00    +0.000 A 
ATOM     21  N   UNL     1      48.486   5.303  15.606  0.00  0.00    +0.000 NA
BRANCH  16  23
ATOM     22  N   UNL     1      46.913   2.807  17.626  0.00  0.00    +0.000 N 
ATOM     23  C   UNL     1      47.859   3.238  16.736  0.00  0.00    +0.000 C 
ATOM     24  O   UNL     1      48.401   2.470  15.950  0.00  0.00    +0.000 OA
ATOM     25  H   UNL     1      46.638   1.835  17.628  0.00  0.00    +0.000 HD
ATOM     26  H   UNL     1      46.466   3.473  18.245  0.00  0.00    +0.000 HD
ENDBRANCH  16  23
ENDBRANCH  15  20
ENDBRANCH   1  15
TORSDOF 5
ENDMDL
MODEL 4
REMARK VINA RESULT:    -6.881      3.417      4.809
REMARK INTER + INTRA:          -9.496
REMARK INTER:                  -8.820
REMARK INTRA:                  -0.676
REMARK UNBOUND:                -0.604
REMARK  Name = 
REMARK  5 active torsions:
REMARK  status: ('A' for Active; 'I' for Inactive)
REMARK    1  A    between atoms: C_2  and  C_4
REMARK    2  A    between atoms: C_8  and  C_9
REMARK    3  A    between atoms: C_9  and  N_10
REMARK    4  A    between atoms: N_10  and  C_11
REMARK    5  A    between atoms: C_15  and  N_16
REMARK                            x       y       z     vdW  Elec       q    Type
REMARK                         _______ _______ _______ _____ _____    ______ ____
ROOT
ATOM      1  N   UNL     1      45.759   6.011  13.289  0.00  0.00    +0.000 N 
ATOM      2  H   UNL     1      45.136   6.759  13.592  0.00  0.00    +0.000 HD
ENDROOT
BRANCH   1   3
ATOM      3  C   UNL     1      45.044   4.991  12.638  0.00  0.00    +0.000 A 
ATOM      4  C   UNL     1      44.146   4.193  13.350  0.00  0.00    +0.000 A 
ATOM      5  N   UNL     1      43.440   3.166  12.831  0.00  0.00    +0.000 NA
ATOM      6  C   UNL     1      43.678   2.879  11.529  0.00  0.00    +0.000 A 
ATOM      7  C   UNL     1      44.587   3.543  10.701  0.00  0.00    +0.000 A 
ATOM      8  C   UNL     1      45.274   4.607  11.309  0.00  0.00    +0.000 A 
BRANCH   7   9
ATOM      9  N   UNL     1      44.800   3.183   9.388  0.00  0.00    +0.000 N 
ATOM     10  C   UNL     1      44.835   1.791   8.917  0.00  0.00    +0.000 C 
ATOM     11  C   UNL     1      46.169   1.517   8.209  0.00  0.00    +0.000 C 
ATOM     12  O   UNL     1      46.400   2.455   7.143  0.00  0.00    +0.000 OA
ATOM     13  C   UNL     1      46.423   3.800   7.655  0.00  0.00    +0.000 C 
ATOM     14  C   UNL     1      45.097   4.174   8.342  0.00  0.00    +0.000 C 
ENDBRANCH   7   9
ENDBRANCH   1   3
BRANCH   1  15
ATOM     15  C   UNL     1      46.934   6.566  12.612  0.00  0.00    +0.000 C 
BRANCH  15  20
ATOM     16  C   UNL     1      45.300   9.782  11.738  0.00  0.00    +0.000 A 
ATOM     17  C   UNL     1      46.345  10.693  11.659  0.00  0.00    +0.000 A 
ATOM     18  C   UNL     1      47.631  10.239  11.919  0.00  0.00    +0.000 A 
ATOM     19  C   UNL     1      47.829   8.897  12.239  0.00  0.00    +0.000 A 
ATOM     20  C   UNL     1      46.728   8.038  12.295  0.00  0.00    +0.000 A 
ATOM     21  N   UNL     1      45.460   8.464  12.057  0.00  0.00    +0.000 NA
BRANCH  16  23
ATOM     22  N   UNL     1      43.096   9.318  10.841  0.00  0.00    +0.000 N 
ATOM     23  C   UNL     1      43.903  10.238  11.456  0.00  0.00    +0.000 C 
ATOM     24  O   UNL     1      43.496  11.355  11.752  0.00  0.00    +0.000 OA
ATOM     25  H   UNL     1      42.136   9.555  10.640  0.00  0.00    +0.000 HD
ATOM     26  H   UNL     1      43.458   8.395  10.631  0.00  0.00    +0.000 HD
ENDBRANCH  16  23
ENDBRANCH  15  20
ENDBRANCH   1  15
TORSDOF 5
ENDMDL
MODEL 5
REMARK VINA RESULT:    -6.813      2.001      2.208
REMARK INTER + INTRA:          -9.409
REMARK INTER:                  -8.941
REMARK INTRA:                  -0.468
REMARK UNBOUND:                -0.604
REMARK  Name = 
REMARK  5 active torsions:
REMARK  status: ('A' for Active; 'I' for Inactive)
REMARK    1  A    between atoms: C_2  and  C_4
REMARK    2  A    between atoms: C_8  and  C_9
REMARK    3  A    between atoms: C_9  and  N_10
REMARK    4  A    between atoms: N_10  and  C_11
REMARK    5  A    between atoms: C_15  and  N_16
REMARK                            x       y       z     vdW  Elec       q    Type
REMARK                         _______ _______ _______ _____ _____    ______ ____
ROOT
ATOM      1  N   UNL     1      46.211   4.699  13.945  0.00  0.00    +0.000 N 
ATOM      2  H   UNL     1      46.818   5.502  13.784  0.00  0.00    +0.000 HD
ENDROOT
BRANCH   1   3
ATOM      3  C   UNL     1      45.214   4.613  12.958  0.00  0.00    +0.000 A 
ATOM      4  C   UNL     1      43.894   4.951  13.258  0.00  0.00    +0.000 A 
ATOM      5  N   UNL     1      42.856   4.869  12.397  0.00  0.00    +0.000 NA
ATOM      6  C   UNL     1      43.141   4.369  11.170  0.00  0.00    +0.000 A 
ATOM      7  C   UNL     1      44.396   3.931  10.739  0.00  0.00    +0.000 A 
ATOM      8  C   UNL     1      45.426   4.061  11.686  0.00  0.00    +0.000 A 
BRANCH   7   9
ATOM      9  N   UNL     1      44.612   3.409   9.482  0.00  0.00    +0.000 N 
ATOM     10  C   UNL     1      44.610   1.970   9.184  0.00  0.00    +0.000 C 
ATOM     11  C   UNL     1      45.943   1.574   8.534  0.00  0.00    +0.000 C 
ATOM     12  O   UNL     1      46.215   2.369   7.367  0.00  0.00    +0.000 OA
ATOM     13  C   UNL     1      46.273   3.765   7.712  0.00  0.00    +0.000 C 
ATOM     14  C   UNL     1      44.951   4.258   8.329  0.00  0.00    +0.000 C 
ENDBRANCH   7   9
ENDBRANCH   1   3
BRANCH   1  15
ATOM     15  C   UNL     1      47.009   3.501  14.221  0.00  0.00    +0.000 C 
BRANCH  15  20
ATOM     16  C   UNL     1      49.257   2.930  17.118  0.00  0.00    +0.000 A 
ATOM     17  C   UNL     1      48.642   3.591  18.172  0.00  0.00    +0.000 A 
ATOM     18  C   UNL     1      47.454   4.265  17.919  0.00  0.00    +0.000 A 
ATOM     19  C   UNL     1      46.921   4.247  16.632  0.00  0.00    +0.000 A 
ATOM     20  C   UNL     1      47.596   3.555  15.622  0.00  0.00    +0.000 A 
ATOM     21  N   UNL     1      48.765   2.901  15.845  0.00  0.00    +0.000 NA
BRANCH  16  23
ATOM     22  N   UNL     1      51.391   2.768  18.257  0.00  0.00    +0.000 N 
ATOM     23  C   UNL     1      50.534   2.187  17.360  0.00  0.00    +0.000 C 
ATOM     24  O   UNL     1      50.804   1.130  16.805  0.00  0.00    +0.000 OA
ATOM     25  H   UNL     1      52.261   2.309  18.481  0.00  0.00    +0.000 HD
ATOM     26  H   UNL     1      51.126   3.631  18.717  0.00  0.00    +0.000 HD
ENDBRANCH  16  23
ENDBRANCH  15  20
ENDBRANCH   1  15
TORSDOF 5
ENDMDL
MODEL 6
REMARK VINA RESULT:    -6.312      1.731      7.549
REMARK INTER + INTRA:          -8.761
REMARK INTER:                  -8.089
REMARK INTRA:                  -0.672
REMARK UNBOUND:                -0.604
REMARK  Name = 
REMARK  5 active torsions:
REMARK  status: ('A' for Active; 'I' for Inactive)
REMARK    1  A    between atoms: C_2  and  C_4
REMARK    2  A    between atoms: C_8  and  C_9
REMARK    3  A    between atoms: C_9  and  N_10
REMARK    4  A    between atoms: N_10  and  C_11
REMARK    5  A    between atoms: C_15  and  N_16
REMARK                            x       y       z     vdW  Elec       q    Type
REMARK                         _______ _______ _______ _____ _____    ______ ____
ROOT
ATOM      1  N   UNL     1      47.282   6.837  11.883  0.00  0.00    +0.000 N 
ATOM      2  H   UNL     1      47.763   7.347  11.142  0.00  0.00    +0.000 HD
ENDROOT
BRANCH   1   3
ATOM      3  C   UNL     1      48.011   6.880  13.083  0.00  0.00    +0.000 A 
ATOM      4  C   UNL     1      49.186   7.628  13.167  0.00  0.00    +0.000 A 
ATOM      5  N   UNL     1      49.980   7.707  14.257  0.00  0.00    +0.000 NA
ATOM      6  C   UNL     1      49.608   6.952  15.319  0.00  0.00    +0.000 A 
ATOM      7  C   UNL     1      48.496   6.107  15.369  0.00  0.00    +0.000 A 
ATOM      8  C   UNL     1      47.713   6.089  14.203  0.00  0.00    +0.000 A 
BRANCH   7   9
ATOM      9  N   UNL     1      48.187   5.346  16.476  0.00  0.00    +0.000 N 
ATOM     10  C   UNL     1      48.740   5.591  17.815  0.00  0.00    +0.000 C 
ATOM     11  C   UNL     1      49.441   4.324  18.326  0.00  0.00    +0.000 C 
ATOM     12  O   UNL     1      48.559   3.189  18.302  0.00  0.00    +0.000 OA
ATOM     13  C   UNL     1      48.091   2.944  16.964  0.00  0.00    +0.000 C 
ATOM     14  C   UNL     1      47.330   4.154  16.392  0.00  0.00    +0.000 C 
ENDBRANCH   7   9
ENDBRANCH   1   3
BRANCH   1  15
ATOM     15  C   UNL     1      45.866   7.213  11.925  0.00  0.00    +0.000 C 
BRANCH  15  20
ATOM     16  C   UNL     1      44.244   4.107  10.703  0.00  0.00    +0.000 A 
ATOM     17  C   UNL     1      43.332   3.776  11.695  0.00  0.00    +0.000 A 
ATOM     18  C   UNL     1      43.258   4.593  12.816  0.00  0.00    +0.000 A 
ATOM     19  C   UNL     1      44.087   5.709  12.901  0.00  0.00    +0.000 A 
ATOM     20  C   UNL     1      44.978   5.981  11.859  0.00  0.00    +0.000 A 
ATOM     21  N   UNL     1      45.076   5.188  10.761  0.00  0.00    +0.000 NA
BRANCH  16  23
ATOM     22  N   UNL     1      44.355   3.926   8.288  0.00  0.00    +0.000 N 
ATOM     23  C   UNL     1      44.342   3.251   9.479  0.00  0.00    +0.000 C 
ATOM     24  O   UNL     1      44.410   2.029   9.526  0.00  0.00    +0.000 OA
ATOM     25  H   UNL     1      44.440   3.409   7.425  0.00  0.00    +0.000 HD
ATOM     26  H   UNL     1      44.323   4.938   8.285  0.00  0.00    +0.000 HD
ENDBRANCH  16  23
ENDBRANCH  15  20
ENDBRANCH   1  15
TORSDOF 5
ENDMDL
MODEL 7
REMARK VINA RESULT:    -6.132      2.014      8.137
REMARK INTER + INTRA:          -8.528
REMARK INTER:                  -8.057
REMARK INTRA:                  -0.471
REMARK UNBOUND:                -0.604
REMARK  Name = 
REMARK  5 active torsions:
REMARK  status: ('A' for Active; 'I' for Inactive)
REMARK    1  A    between atoms: C_2  and  C_4
REMARK    2  A    between atoms: C_8  and  C_9
REMARK    3  A    between atoms: C_9  and  N_10
REMARK    4  A    between atoms: N_10  and  C_11
REMARK    5  A    between atoms: C_15  and  N_16
REMARK                            x       y       z     vdW  Elec       q    Type
REMARK                         _______ _______ _______ _____ _____    ______ ____
ROOT
ATOM      1  N   UNL     1      47.343   6.443  12.967  0.00  0.00    +0.000 N 
ATOM      2  H   UNL     1      48.048   7.176  12.889  0.00  0.00    +0.000 HD
ENDROOT
BRANCH   1   3
ATOM      3  C   UNL     1      47.580   5.633  14.090  0.00  0.00    +0.000 A 
ATOM      4  C   UNL     1      47.137   4.309  14.111  0.00  0.00    +0.000 A 
ATOM      5  N   UNL     1      47.277   3.459  15.151  0.00  0.00    +0.000 NA
ATOM      6  C   UNL     1      47.853   3.973  16.264  0.00  0.00    +0.000 A 
ATOM      7  C   UNL     1      48.293   5.290  16.421  0.00  0.00    +0.000 A 
ATOM      8  C   UNL     1      48.124   6.109  15.292  0.00  0.00    +0.000 A 
BRANCH   7   9
ATOM      9  N   UNL     1      48.849   5.756  17.593  0.00  0.00    +0.000 N 
ATOM     10  C   UNL     1      48.984   4.946  18.811  0.00  0.00    +0.000 C 
ATOM     11  C   UNL     1      48.286   5.651  19.983  0.00  0.00    +0.000 C 
ATOM     12  O   UNL     1      48.783   6.989  20.163  0.00  0.00    +0.000 OA
ATOM     13  C   UNL     1      48.574   7.767  18.971  0.00  0.00    +0.000 C 
ATOM     14  C   UNL     1      49.286   7.152  17.752  0.00  0.00    +0.000 C 
ENDBRANCH   7   9
ENDBRANCH   1   3
BRANCH   1  15
ATOM     15  C   UNL     1      46.000   7.005  12.797  0.00  0.00    +0.000 C 
BRANCH  15  20
ATOM     16  C   UNL     1      44.614   4.726  10.216  0.00  0.00    +0.000 A 
ATOM     17  C   UNL     1      43.417   4.275  10.757  0.00  0.00    +0.000 A 
ATOM     18  C   UNL     1      43.061   4.721  12.023  0.00  0.00    +0.000 A 
ATOM     19  C   UNL     1      43.902   5.603  12.697  0.00  0.00    +0.000 A 
ATOM     20  C   UNL     1      45.089   6.018  12.085  0.00  0.00    +0.000 A 
ATOM     21  N   UNL     1      45.464   5.584  10.854  0.00  0.00    +0.000 NA
BRANCH  16  23
ATOM     22  N   UNL     1      44.345   3.183   8.366  0.00  0.00    +0.000 N 
ATOM     23  C   UNL     1      45.022   4.270   8.850  0.00  0.00    +0.000 C 
ATOM     24  O   UNL     1      45.898   4.826   8.198  0.00  0.00    +0.000 OA
ATOM     25  H   UNL     1      44.558   2.836   7.442  0.00  0.00    +0.000 HD
ATOM     26  H   UNL     1      43.609   2.763   8.921  0.00  0.00    +0.000 HD
ENDBRANCH  16  23
ENDBRANCH  15  20
ENDBRANCH   1  15
TORSDOF 5
ENDMDL
MODEL 8
REMARK VINA RESULT:    -6.071      2.299      3.588
REMARK INTER + INTRA:          -8.450
REMARK INTER:                  -7.881
REMARK INTRA:                  -0.569
REMARK UNBOUND:                -0.604
REMARK  Name = 
REMARK  5 active torsions:
REMARK  status: ('A' for Active; 'I' for Inactive)
REMARK    1  A    between atoms: C_2  and  C_4
REMARK    2  A    between atoms: C_8  and  C_9
REMARK    3  A    between atoms: C_9  and  N_10
REMARK    4  A    between atoms: N_10  and  C_11
REMARK    5  A    between atoms: C_15  and  N_16
REMARK                            x       y       z     vdW  Elec       q    Type
REMARK                         _______ _______ _______ _____ _____    ______ ____
ROOT
ATOM      1  N   UNL     1      48.472   6.206  14.271  0.00  0.00    +0.000 N 
ATOM      2  H   UNL     1      48.609   5.200  14.178  0.00  0.00    +0.000 HD
ENDROOT
BRANCH   1   3
ATOM      3  C   UNL     1      47.334   6.629  13.563  0.00  0.00    +0.000 A 
ATOM      4  C   UNL     1      47.088   7.990  13.371  0.00  0.00    +0.000 A 
ATOM      5  N   UNL     1      46.009   8.503  12.742  0.00  0.00    +0.000 NA
ATOM      6  C   UNL     1      45.087   7.606  12.318  0.00  0.00    +0.000 A 
ATOM      7  C   UNL     1      45.158   6.221  12.487  0.00  0.00    +0.000 A 
ATOM      8  C   UNL     1      46.315   5.763  13.140  0.00  0.00    +0.000 A 
BRANCH   7   9
ATOM      9  N   UNL     1      44.170   5.365  12.052  0.00  0.00    +0.000 N 
ATOM     10  C   UNL     1      43.398   4.487  12.944  0.00  0.00    +0.000 C 
ATOM     11  C   UNL     1      43.537   3.029  12.482  0.00  0.00    +0.000 C 
ATOM     12  O   UNL     1      43.153   2.875  11.105  0.00  0.00    +0.000 OA
ATOM     13  C   UNL     1      43.974   3.701  10.260  0.00  0.00    +0.000 C 
ATOM     14  C   UNL     1      43.855   5.192  10.626  0.00  0.00    +0.000 C 
ENDBRANCH   7   9
ENDBRANCH   1   3
BRANCH   1  15
ATOM     15  C   UNL     1      48.597   6.611  15.674  0.00  0.00    +0.000 C 
BRANCH  15  20
ATOM     16  C   UNL     1      48.702   4.437  18.680  0.00  0.00    +0.000 A 
ATOM     17  C   UNL     1      48.121   3.245  18.269  0.00  0.00    +0.000 A 
ATOM     18  C   UNL     1      47.661   3.158  16.962  0.00  0.00    +0.000 A 
ATOM     19  C   UNL     1      47.805   4.253  16.114  0.00  0.00    +0.000 A 
ATOM     20  C   UNL     1      48.406   5.419  16.598  0.00  0.00    +0.000 A 
ATOM     21  N   UNL     1      48.850   5.531  17.877  0.00  0.00    +0.000 NA
BRANCH  16  23
ATOM     22  N   UNL     1      50.577   4.505  20.216  0.00  0.00    +0.000 N 
ATOM     23  C   UNL     1      49.216   4.560  20.081  0.00  0.00    +0.000 C 
ATOM     24  O   UNL     1      48.478   4.703  21.049  0.00  0.00    +0.000 OA
ATOM     25  H   UNL     1      50.990   4.602  21.132  0.00  0.00    +0.000 HD
ATOM     26  H   UNL     1      51.159   4.410  19.392  0.00  0.00    +0.000 HD
ENDBRANCH  16  23
ENDBRANCH  15  20
ENDBRANCH   1  15
TORSDOF 5
ENDMDL
MODEL 9
REMARK VINA RESULT:    -5.960      3.477      7.511
REMARK INTER + INTRA:          -8.306
REMARK INTER:                  -7.660
REMARK INTRA:                  -0.646
REMARK UNBOUND:                -0.604
REMARK  Name = 
REMARK  5 active torsions:
REMARK  status: ('A' for Active; 'I' for Inactive)
REMARK    1  A    between atoms: C_2  and  C_4
REMARK    2  A    between atoms: C_8  and  C_9
REMARK    3  A    between atoms: C_9  and  N_10
REMARK    4  A    between atoms: N_10  and  C_11
REMARK    5  A    between atoms: C_15  and  N_16
REMARK                            x       y       z     vdW  Elec       q    Type
REMARK                         _______ _______ _______ _____ _____    ______ ____
ROOT
ATOM      1  N   UNL     1      44.351   6.838  12.634  0.00  0.00    +0.000 N 
ATOM      2  H   UNL     1      44.621   5.976  13.107  0.00  0.00    +0.000 HD
ENDROOT
BRANCH   1   3
ATOM      3  C   UNL     1      45.432   7.733  12.559  0.00  0.00    +0.000 A 
ATOM      4  C   UNL     1      45.218   9.071  12.221  0.00  0.00    +0.000 A 
ATOM      5  N   UNL     1      46.187  10.002  12.085  0.00  0.00    +0.000 NA
ATOM      6  C   UNL     1      47.459   9.564  12.245  0.00  0.00    +0.000 A 
ATOM      7  C   UNL     1      47.839   8.248  12.524  0.00  0.00    +0.000 A 
ATOM      8  C   UNL     1      46.775   7.341  12.665  0.00  0.00    +0.000 A 
BRANCH   7   9
ATOM      9  N   UNL     1      49.156   7.863  12.651  0.00  0.00    +0.000 N 
ATOM     10  C   UNL     1      49.803   7.576  13.939  0.00  0.00    +0.000 C 
ATOM     11  C   UNL     1      51.042   8.466  14.107  0.00  0.00    +0.000 C 
ATOM     12  O   UNL     1      51.949   8.317  13.000  0.00  0.00    +0.000 OA
ATOM     13  C   UNL     1      51.298   8.670  11.767  0.00  0.00    +0.000 C 
ATOM     14  C   UNL     1      50.065   7.787  11.497  0.00  0.00    +0.000 C 
ENDBRANCH   7   9
ENDBRANCH   1   3
BRANCH   1  15
ATOM     15  C   UNL     1      43.623   6.537  11.398  0.00  0.00    +0.000 C 
BRANCH  15  20
ATOM     16  C   UNL     1      44.870   3.635   9.450  0.00  0.00    +0.000 A 
ATOM     17  C   UNL     1      44.329   2.527  10.090  0.00  0.00    +0.000 A 
ATOM     18  C   UNL     1      43.540   2.740  11.212  0.00  0.00    +0.000 A 
ATOM     19  C   UNL     1      43.313   4.043  11.650  0.00  0.00    +0.000 A 
ATOM     20  C   UNL     1      43.888   5.109  10.950  0.00  0.00    +0.000 A 
ATOM     21  N   UNL     1      44.674   4.923   9.858  0.00  0.00    +0.000 NA
BRANCH  16  23
ATOM     22  N   UNL     1      46.156   2.160   8.020  0.00  0.00    +0.000 N 
ATOM     23  C   UNL     1      45.718   3.439   8.232  0.00  0.00    +0.000 C 
ATOM     24  O   UNL     1      46.004   4.353   7.468  0.00  0.00    +0.000 OA
ATOM     25  H   UNL     1      46.715   1.955   7.205  0.00  0.00    +0.000 HD
ATOM     26  H   UNL     1      45.880   1.423   8.658  0.00  0.00    +0.000 HD
ENDBRANCH  16  23
ENDBRANCH  15  20
ENDBRANCH   1  15
TORSDOF 5
ENDMDL
