MODEL 1
REMARK VINA RESULT:    -8.102      0.000      0.000
REMARK INTER + INTRA:         -12.440
REMARK INTER:                 -11.417
REMARK INTRA:                  -1.022
REMARK UNBOUND:                -1.022
REMARK  Name = 
REMARK  8 active torsions:
REMARK  status: ('A' for Active; 'I' for Inactive)
REMARK    1  A    between atoms: C_1  and  C_2
REMARK    2  A    between atoms: C_2  and  N_3
REMARK    3  A    between atoms: C_2  and  C_25
REMARK    4  A    between atoms: N_3  and  C_4
REMARK    5  A    between atoms: C_4  and  C_5
REMARK    6  A    between atoms: C_8  and  C_9
REMARK    7  A    between atoms: C_9  and  N_10
REMARK    8  A    between atoms: C_11  and  C_13
REMARK                            x       y       z     vdW  Elec       q    Type
REMARK                         _______ _______ _______ _____ _____    ______ ____
ROOT
ATOM      1  C   UNL     1      45.181   4.505  12.326  0.00  0.00    +0.000 A 
ATOM      2  C   UNL     1      45.618   5.738  11.837  0.00  0.00    +0.000 A 
ATOM      3  C   UNL     1      46.632   6.420  12.510  0.00  0.00    +0.000 A 
ATOM      4  C   UNL     1      47.186   5.870  13.666  0.00  0.00    +0.000 A 
ATOM      5  C   UNL     1      46.621   4.690  14.136  0.00  0.00    +0.000 A 
ATOM      6  N   UNL     1      45.654   3.993  13.490  0.00  0.00    +0.000 NA
ENDROOT
BRANCH   1   7
ATOM      7  C   UNL     1      44.325   3.610  11.435  0.00  0.00    +0.000 C 
BRANCH   7   8
ATOM      8  N   UNL     1      45.054   2.617  10.634  0.00  0.00    +0.000 NA
ATOM      9  H   UNL     1      44.792   1.687  10.961  0.00  0.00    +0.000 HD
BRANCH   8  11
ATOM     10  C   UNL     1      44.277   4.155   8.903  0.00  0.00    +0.000 C 
ATOM     11  C   UNL     1      44.678   2.707   9.199  0.00  0.00    +0.000 C 
BRANCH  11  12
ATOM     12  C   UNL     1      45.773   2.276   8.219  0.00  0.00    +0.000 A 
ATOM     13  C   UNL     1      46.328   3.205   7.334  0.00  0.00    +0.000 A 
ATOM     14  C   UNL     1      47.282   2.784   6.415  0.00  0.00    +0.000 A 
ATOM     15  C   UNL     1      47.675   1.450   6.404  0.00  0.00    +0.000 A 
ATOM     16  C   UNL     1      47.105   0.596   7.331  0.00  0.00    +0.000 A 
ATOM     17  N   UNL     1      46.170   0.973   8.234  0.00  0.00    +0.000 NA
ENDBRANCH  11  12
ENDBRANCH   8  11
ENDBRANCH   7   8
ENDBRANCH   1   7
BRANCH   4  18
ATOM     18  C   UNL     1      48.303   6.546  14.408  0.00  0.00    +0.000 C 
BRANCH  18  19
ATOM     19  N   UNL     1      48.149   6.348  15.822  0.00  0.00    +0.000 N 
ATOM     20  C   UNL     1      49.191   6.029  16.651  0.00  0.00    +0.000 C 
ATOM     21  O   UNL     1      50.344   5.935  16.250  0.00  0.00    +0.000 OA
ATOM     22  H   UNL     1      47.202   6.179  16.142  0.00  0.00    +0.000 HD
BRANCH  20  23
ATOM     23  C   UNL     1      48.843   5.887  18.072  0.00  0.00    +0.000 A 
ATOM     24  C   UNL     1      49.056   4.681  18.725  0.00  0.00    +0.000 A 
ATOM     25  S   UNL     1      48.699   4.737  20.393  0.00  0.00    +0.000 S 
ATOM     26  C   UNL     1      48.193   6.358  20.289  0.00  0.00    +0.000 A 
ATOM     27  N   UNL     1      47.752   7.030  21.388  0.00  0.00    +0.000 NA
ATOM     28  C   UNL     1      47.381   8.246  21.161  0.00  0.00    +0.000 A 
ATOM     29  N   UNL     1      47.404   8.851  19.928  0.00  0.00    +0.000 N 
ATOM     30  C   UNL     1      47.845   8.215  18.796  0.00  0.00    +0.000 A 
ATOM     31  O   UNL     1      47.861   8.787  17.709  0.00  0.00    +0.000 OA
ATOM     32  C   UNL     1      48.291   6.851  19.002  0.00  0.00    +0.000 A 
ATOM     33  H   UNL     1      47.097   9.805  19.812  0.00  0.00    +0.000 HD
ENDBRANCH  20  23
ENDBRANCH  18  19
ENDBRANCH   4  18
TORSDOF 7
ENDMDL
MODEL 2
REMARK VINA RESULT:    -8.071      1.336      1.944
REMARK INTER + INTRA:         -12.396
REMARK INTER:                 -11.618
REMARK INTRA:                  -0.778
REMARK UNBOUND:                -1.022
REMARK  Name = 
REMARK  8 active torsions:
REMARK  status: ('A' for Active; 'I' for Inactive)
REMARK    1  A    between atoms: C_1  and  C_2
REMARK    2  A    between atoms: C_2  and  N_3
REMARK    3  A    between atoms: C_2  and  C_25
REMARK    4  A    between atoms: N_3  and  C_4
REMARK    5  A    between atoms: C_4  and  C_5
REMARK    6  A    between atoms: C_8  and  C_9
REMARK    7  A    between atoms: C_9  and  N_10
REMARK    8  A    between atoms: C_11  and  C_13
REMARK                            x       y       z     vdW  Elec       q    Type
REMARK                         _______ _______ _______ _____ _____    ______ ____
ROOT
ATOM      1  C   UNL     1      45.382   4.667  12.565  0.00  0.00    +0.000 A 
ATOM      2  C   UNL     1      45.777   5.849  11.936  0.00  0.00    +0.000 A 
ATOM      3  C   UNL     1      46.845   6.578  12.460  0.00  0.00    +0.000 A 
ATOM      4  C   UNL     1      47.494   6.127  13.609  0.00  0.00    +0.000 A 
ATOM      5  C   UNL     1      46.969   4.997  14.226  0.00  0.00    +0.000 A 
ATOM      6  N   UNL     1      45.951   4.254  13.726  0.00  0.00    +0.000 NA
ENDROOT
BRANCH   1   7
ATOM      7  C   UNL     1      44.454   3.705  11.831  0.00  0.00    +0.000 C 
BRANCH   7   8
ATOM      8  N   UNL     1      45.109   2.723  10.956  0.00  0.00    +0.000 NA
ATOM      9  H   UNL     1      44.900   1.789  11.310  0.00  0.00    +0.000 HD
BRANCH   8  11
ATOM     10  C   UNL     1      44.041   4.220   9.350  0.00  0.00    +0.000 C 
ATOM     11  C   UNL     1      44.579   2.804   9.570  0.00  0.00    +0.000 C 
BRANCH  11  12
ATOM     12  C   UNL     1      45.595   2.473   8.473  0.00  0.00    +0.000 A 
ATOM     13  C   UNL     1      45.970   3.451   7.546  0.00  0.00    +0.000 A 
ATOM     14  C   UNL     1      46.852   3.118   6.524  0.00  0.00    +0.000 A 
ATOM     15  C   UNL     1      47.356   1.823   6.454  0.00  0.00    +0.000 A 
ATOM     16  C   UNL     1      46.965   0.920   7.426  0.00  0.00    +0.000 A 
ATOM     17  N   UNL     1      46.103   1.210   8.429  0.00  0.00    +0.000 NA
ENDBRANCH  11  12
ENDBRANCH   8  11
ENDBRANCH   7   8
ENDBRANCH   1   7
BRANCH   4  18
ATOM     18  C   UNL     1      48.670   6.855  14.193  0.00  0.00    +0.000 C 
BRANCH  18  19
ATOM     19  N   UNL     1      48.494   7.026  15.608  0.00  0.00    +0.000 N 
ATOM     20  C   UNL     1      49.383   6.555  16.536  0.00  0.00    +0.000 C 
ATOM     21  O   UNL     1      50.423   5.990  16.221  0.00  0.00    +0.000 OA
ATOM     22  H   UNL     1      47.554   7.263  15.909  0.00  0.00    +0.000 HD
BRANCH  20  23
ATOM     23  C   UNL     1      49.044   6.845  17.937  0.00  0.00    +0.000 A 
ATOM     24  C   UNL     1      48.859   8.156  18.352  0.00  0.00    +0.000 A 
ATOM     25  S   UNL     1      48.361   8.291  19.979  0.00  0.00    +0.000 S 
ATOM     26  C   UNL     1      48.432   6.606  20.201  0.00  0.00    +0.000 A 
ATOM     27  N   UNL     1      48.120   6.040  21.399  0.00  0.00    +0.000 NA
ATOM     28  C   UNL     1      48.236   4.754  21.432  0.00  0.00    +0.000 A 
ATOM     29  N   UNL     1      48.645   3.981  20.373  0.00  0.00    +0.000 N 
ATOM     30  C   UNL     1      48.965   4.507  19.147  0.00  0.00    +0.000 A 
ATOM     31  O   UNL     1      49.320   3.787  18.218  0.00  0.00    +0.000 OA
ATOM     32  C   UNL     1      48.832   5.948  19.054  0.00  0.00    +0.000 A 
ATOM     33  H   UNL     1      48.721   2.978  20.461  0.00  0.00    +0.000 HD
ENDBRANCH  20  23
ENDBRANCH  18  19
ENDBRANCH   4  18
TORSDOF 7
ENDMDL
MODEL 3
REMARK VINA RESULT:    -8.045      2.442      2.983
REMARK INTER + INTRA:         -12.359
REMARK INTER:                 -11.289
REMARK INTRA:                  -1.070
REMARK UNBOUND:                -1.022
REMARK  Name = 
REMARK  8 active torsions:
REMARK  status: ('A' for Active; 'I' for Inactive)
REMARK    1  A    between atoms: C_1  and  C_2
REMARK    2  A    between atoms: C_2  and  N_3
REMARK    3  A    between atoms: C_2  and  C_25
REMARK    4  A    between atoms: N_3  and  C_4
REMARK    5  A    between atoms: C_4  and  C_5
REMARK    6  A    between atoms: C_8  and  C_9
REMARK    7  A    between atoms: C_9  and  N_10
REMARK    8  A    between atoms: C_11  and  C_13
REMARK                            x       y       z     vdW  Elec       q    Type
REMARK                         _______ _______ _______ _____ _____    ______ ____
ROOT
ATOM      1  C   UNL     1      44.839   6.011  10.844  0.00  0.00    +0.000 A 
ATOM      2  C   UNL     1      46.224   5.836  10.891  0.00  0.00    +0.000 A 
ATOM      3  C   UNL     1      46.985   6.633  11.747  0.00  0.00    +0.000 A 
ATOM      4  C   UNL     1      46.358   7.600  12.532  0.00  0.00    +0.000 A 
ATOM      5  C   UNL     1      44.991   7.773  12.346  0.00  0.00    +0.000 A 
ATOM      6  N   UNL     1      44.222   6.998  11.542  0.00  0.00    +0.000 NA
ENDROOT
BRANCH   1   7
ATOM      7  C   UNL     1      43.974   4.947  10.176  0.00  0.00    +0.000 C 
BRANCH   7   8
ATOM      8  N   UNL     1      44.493   4.397   8.915  0.00  0.00    +0.000 NA
ATOM      9  H   UNL     1      45.131   5.080   8.507  0.00  0.00    +0.000 HD
BRANCH   8  11
ATOM     10  C   UNL     1      44.291   2.069   9.625  0.00  0.00    +0.000 C 
ATOM     11  C   UNL     1      45.266   3.151   9.154  0.00  0.00    +0.000 C 
BRANCH  11  12
ATOM     12  C   UNL     1      46.045   2.635   7.940  0.00  0.00    +0.000 A 
ATOM     13  C   UNL     1      46.215   3.451   6.817  0.00  0.00    +0.000 A 
ATOM     14  C   UNL     1      46.878   2.947   5.704  0.00  0.00    +0.000 A 
ATOM     15  C   UNL     1      47.373   1.648   5.735  0.00  0.00    +0.000 A 
ATOM     16  C   UNL     1      47.195   0.912   6.893  0.00  0.00    +0.000 A 
ATOM     17  N   UNL     1      46.548   1.370   7.991  0.00  0.00    +0.000 NA
ENDBRANCH  11  12
ENDBRANCH   8  11
ENDBRANCH   7   8
ENDBRANCH   1   7
BRANCH   4  18
ATOM     18  C   UNL     1      47.126   8.459  13.494  0.00  0.00    +0.000 C 
BRANCH  18  19
ATOM     19  N   UNL     1      47.540   7.682  14.630  0.00  0.00    +0.000 N 
ATOM     20  C   UNL     1      48.826   7.255  14.816  0.00  0.00    +0.000 C 
ATOM     21  O   UNL     1      49.734   7.546  14.046  0.00  0.00    +0.000 OA
ATOM     22  H   UNL     1      46.795   7.226  15.145  0.00  0.00    +0.000 HD
BRANCH  20  23
ATOM     23  C   UNL     1      49.063   6.489  16.049  0.00  0.00    +0.000 A 
ATOM     24  C   UNL     1      49.998   6.930  16.974  0.00  0.00    +0.000 A 
ATOM     25  S   UNL     1      50.055   5.980  18.391  0.00  0.00    +0.000 S 
ATOM     26  C   UNL     1      48.874   4.912  17.791  0.00  0.00    +0.000 A 
ATOM     27  N   UNL     1      48.450   3.846  18.524  0.00  0.00    +0.000 NA
ATOM     28  C   UNL     1      47.566   3.109  17.940  0.00  0.00    +0.000 A 
ATOM     29  N   UNL     1      47.069   3.339  16.679  0.00  0.00    +0.000 N 
ATOM     30  C   UNL     1      47.462   4.402  15.908  0.00  0.00    +0.000 A 
ATOM     31  O   UNL     1      46.992   4.585  14.788  0.00  0.00    +0.000 OA
ATOM     32  C   UNL     1      48.442   5.272  16.529  0.00  0.00    +0.000 A 
ATOM     33  H   UNL     1      46.380   2.724  16.273  0.00  0.00    +0.000 HD
ENDBRANCH  20  23
ENDBRANCH  18  19
ENDBRANCH   4  18
TORSDOF 7
ENDMDL
MODEL 4
REMARK VINA RESULT:    -7.356      3.387      4.984
REMARK INTER + INTRA:         -11.388
REMARK INTER:                 -10.232
REMARK INTRA:                  -1.156
REMARK UNBOUND:                -1.022
REMARK  Name = 
REMARK  8 active torsions:
REMARK  status: ('A' for Active; 'I' for Inactive)
REMARK    1  A    between atoms: C_1  and  C_2
REMARK    2  A    between atoms: C_2  and  N_3
REMARK    3  A    between atoms: C_2  and  C_25
REMARK    4  A    between atoms: N_3  and  C_4
REMARK    5  A    between atoms: C_4  and  C_5
REMARK    6  A    between atoms: C_8  and  C_9
REMARK    7  A    between atoms: C_9  and  N_10
REMARK    8  A    between atoms: C_11  and  C_13
REMARK                            x       y       z     vdW  Elec       q    Type
REMARK                         _______ _______ _______ _____ _____    ______ ____
ROOT
ATOM      1  C   UNL     1      47.010   4.740  14.512  0.00  0.00    +0.000 A 
ATOM      2  C   UNL     1      47.754   5.912  14.360  0.00  0.00    +0.000 A 
ATOM      3  C   UNL     1      48.506   6.387  15.436  0.00  0.00    +0.000 A 
ATOM      4  C   UNL     1      48.496   5.697  16.647  0.00  0.00    +0.000 A 
ATOM      5  C   UNL     1      47.649   4.598  16.738  0.00  0.00    +0.000 A 
ATOM      6  N   UNL     1      46.927   4.098  15.705  0.00  0.00    +0.000 NA
ENDROOT
BRANCH   1   7
ATOM      7  C   UNL     1      46.460   4.040  13.274  0.00  0.00    +0.000 C 
BRANCH   7   8
ATOM      8  N   UNL     1      45.011   3.788  13.270  0.00  0.00    +0.000 NA
ATOM      9  H   UNL     1      44.623   4.140  14.145  0.00  0.00    +0.000 HD
BRANCH   8  11
ATOM     10  C   UNL     1      44.721   5.999  12.272  0.00  0.00    +0.000 C 
ATOM     11  C   UNL     1      44.345   4.519  12.160  0.00  0.00    +0.000 C 
BRANCH  11  12
ATOM     12  C   UNL     1      44.694   4.014  10.757  0.00  0.00    +0.000 A 
ATOM     13  C   UNL     1      45.298   4.872   9.833  0.00  0.00    +0.000 A 
ATOM     14  C   UNL     1      45.559   4.413   8.547  0.00  0.00    +0.000 A 
ATOM     15  C   UNL     1      45.227   3.105   8.210  0.00  0.00    +0.000 A 
ATOM     16  C   UNL     1      44.662   2.305   9.188  0.00  0.00    +0.000 A 
ATOM     17  N   UNL     1      44.389   2.724  10.446  0.00  0.00    +0.000 NA
ENDBRANCH  11  12
ENDBRANCH   8  11
ENDBRANCH   7   8
ENDBRANCH   1   7
BRANCH   4  18
ATOM     18  C   UNL     1      49.315   6.147  17.822  0.00  0.00    +0.000 C 
BRANCH  18  19
ATOM     19  N   UNL     1      50.371   5.207  18.078  0.00  0.00    +0.000 N 
ATOM     20  C   UNL     1      51.585   5.254  17.448  0.00  0.00    +0.000 C 
ATOM     21  O   UNL     1      51.876   6.135  16.648  0.00  0.00    +0.000 OA
ATOM     22  H   UNL     1      50.091   4.346  18.535  0.00  0.00    +0.000 HD
BRANCH  20  23
ATOM     23  C   UNL     1      52.547   4.221  17.857  0.00  0.00    +0.000 A 
ATOM     24  C   UNL     1      53.786   4.584  18.364  0.00  0.00    +0.000 A 
ATOM     25  S   UNL     1      54.723   3.258  18.890  0.00  0.00    +0.000 S 
ATOM     26  C   UNL     1      53.528   2.148  18.404  0.00  0.00    +0.000 A 
ATOM     27  N   UNL     1      53.700   0.808  18.574  0.00  0.00    +0.000 NA
ATOM     28  C   UNL     1      52.723   0.082  18.143  0.00  0.00    +0.000 A 
ATOM     29  N   UNL     1      51.588   0.576  17.548  0.00  0.00    +0.000 N 
ATOM     30  C   UNL     1      51.369   1.917  17.361  0.00  0.00    +0.000 A 
ATOM     31  O   UNL     1      50.340   2.327  16.833  0.00  0.00    +0.000 OA
ATOM     32  C   UNL     1      52.431   2.777  17.847  0.00  0.00    +0.000 A 
ATOM     33  H   UNL     1      50.859  -0.043  17.227  0.00  0.00    +0.000 HD
ENDBRANCH  20  23
ENDBRANCH  18  19
ENDBRANCH   4  18
TORSDOF 7
ENDMDL
MODEL 5
REMARK VINA RESULT:    -7.338      3.176      9.195
REMARK INTER + INTRA:         -11.363
REMARK INTER:                  -9.943
REMARK INTRA:                  -1.420
REMARK UNBOUND:                -1.022
REMARK  Name = 
REMARK  8 active torsions:
REMARK  status: ('A' for Active; 'I' for Inactive)
REMARK    1  A    between atoms: C_1  and  C_2
REMARK    2  A    between atoms: C_2  and  N_3
REMARK    3  A    between atoms: C_2  and  C_25
REMARK    4  A    between atoms: N_3  and  C_4
REMARK    5  A    between atoms: C_4  and  C_5
REMARK    6  A    between atoms: C_8  and  C_9
REMARK    7  A    between atoms: C_9  and  N_10
REMARK    8  A    between atoms: C_11  and  C_13
REMARK                            x       y       z     vdW  Elec       q    Type
REMARK                         _______ _______ _______ _____ _____    ______ ____
ROOT
ATOM      1  C   UNL     1      48.875   8.065  16.165  0.00  0.00    +0.000 A 
ATOM      2  C   UNL     1      48.486   9.241  15.521  0.00  0.00    +0.000 A 
ATOM      3  C   UNL     1      48.084   9.188  14.186  0.00  0.00    +0.000 A 
ATOM      4  C   UNL     1      48.087   7.969  13.510  0.00  0.00    +0.000 A 
ATOM      5  C   UNL     1      48.585   6.868  14.198  0.00  0.00    +0.000 A 
ATOM      6  N   UNL     1      48.958   6.884  15.501  0.00  0.00    +0.000 NA
ENDROOT
BRANCH   1   7
ATOM      7  C   UNL     1      48.997   8.051  17.685  0.00  0.00    +0.000 C 
BRANCH   7   8
ATOM      8  N   UNL     1      47.848   7.497  18.416  0.00  0.00    +0.000 NA
ATOM      9  H   UNL     1      47.145   7.207  17.735  0.00  0.00    +0.000 HD
BRANCH   8  11
ATOM     10  C   UNL     1      47.279   6.156  20.377  0.00  0.00    +0.000 C 
ATOM     11  C   UNL     1      48.240   6.292  19.193  0.00  0.00    +0.000 C 
BRANCH  11  12
ATOM     12  C   UNL     1      48.245   4.986  18.394  0.00  0.00    +0.000 A 
ATOM     13  C   UNL     1      49.428   4.253  18.256  0.00  0.00    +0.000 A 
ATOM     14  C   UNL     1      49.427   3.098  17.482  0.00  0.00    +0.000 A 
ATOM     15  C   UNL     1      48.246   2.686  16.874  0.00  0.00    +0.000 A 
ATOM     16  C   UNL     1      47.108   3.445  17.083  0.00  0.00    +0.000 A 
ATOM     17  N   UNL     1      47.077   4.578  17.824  0.00  0.00    +0.000 NA
ENDBRANCH  11  12
ENDBRANCH   8  11
ENDBRANCH   7   8
ENDBRANCH   1   7
BRANCH   4  18
ATOM     18  C   UNL     1      47.630   7.852  12.085  0.00  0.00    +0.000 C 
BRANCH  18  19
ATOM     19  N   UNL     1      46.912   6.622  11.893  0.00  0.00    +0.000 N 
ATOM     20  C   UNL     1      45.546   6.542  11.906  0.00  0.00    +0.000 C 
ATOM     21  O   UNL     1      44.832   7.529  12.036  0.00  0.00    +0.000 OA
ATOM     22  H   UNL     1      47.452   5.774  12.025  0.00  0.00    +0.000 HD
BRANCH  20  23
ATOM     23  C   UNL     1      44.992   5.201  11.671  0.00  0.00    +0.000 A 
ATOM     24  C   UNL     1      44.355   4.521  12.698  0.00  0.00    +0.000 A 
ATOM     25  S   UNL     1      43.678   3.031  12.212  0.00  0.00    +0.000 S 
ATOM     26  C   UNL     1      44.265   3.217  10.626  0.00  0.00    +0.000 A 
ATOM     27  N   UNL     1      44.031   2.273   9.673  0.00  0.00    +0.000 NA
ATOM     28  C   UNL     1      44.550   2.533   8.520  0.00  0.00    +0.000 A 
ATOM     29  N   UNL     1      45.291   3.654   8.234  0.00  0.00    +0.000 N 
ATOM     30  C   UNL     1      45.547   4.633   9.160  0.00  0.00    +0.000 A 
ATOM     31  O   UNL     1      46.206   5.628   8.870  0.00  0.00    +0.000 OA
ATOM     32  C   UNL     1      44.968   4.396  10.468  0.00  0.00    +0.000 A 
ATOM     33  H   UNL     1      45.676   3.801   7.312  0.00  0.00    +0.000 HD
ENDBRANCH  20  23
ENDBRANCH  18  19
ENDBRANCH   4  18
TORSDOF 7
ENDMDL
MODEL 6
REMARK VINA RESULT:    -7.200      2.909      3.650
REMARK INTER + INTRA:         -11.169
REMARK INTER:                 -10.203
REMARK INTRA:                  -0.966
REMARK UNBOUND:                -1.022
REMARK  Name = 
REMARK  8 active torsions:
REMARK  status: ('A' for Active; 'I' for Inactive)
REMARK    1  A    between atoms: C_1  and  C_2
REMARK    2  A    between atoms: C_2  and  N_3
REMARK    3  A    between atoms: C_2  and  C_25
REMARK    4  A    between atoms: N_3  and  C_4
REMARK    5  A    between atoms: C_4  and  C_5
REMARK    6  A    between atoms: C_8  and  C_9
REMARK    7  A    between atoms: C_9  and  N_10
REMARK    8  A    between atoms: C_11  and  C_13
REMARK                            x       y       z     vdW  Elec       q    Type
REMARK                         _______ _______ _______ _____ _____    ______ ____
ROOT
ATOM      1  C   UNL     1      46.019   4.931  12.786  0.00  0.00    +0.000 A 
ATOM      2  C   UNL     1      46.721   4.782  13.984  0.00  0.00    +0.000 A 
ATOM      3  C   UNL     1      47.710   5.709  14.316  0.00  0.00    +0.000 A 
ATOM      4  C   UNL     1      47.993   6.761  13.445  0.00  0.00    +0.000 A 
ATOM      5  C   UNL     1      47.317   6.772  12.230  0.00  0.00    +0.000 A 
ATOM      6  N   UNL     1      46.334   5.902  11.892  0.00  0.00    +0.000 NA
ENDROOT
BRANCH   1   7
ATOM      7  C   UNL     1      44.735   4.136  12.570  0.00  0.00    +0.000 C 
BRANCH   7   8
ATOM      8  N   UNL     1      44.873   2.891  11.801  0.00  0.00    +0.000 NA
ATOM      9  H   UNL     1      44.397   2.146  12.310  0.00  0.00    +0.000 HD
BRANCH   8  11
ATOM     10  C   UNL     1      43.481   4.349  10.422  0.00  0.00    +0.000 C 
ATOM     11  C   UNL     1      44.221   3.009  10.471  0.00  0.00    +0.000 C 
BRANCH  11  12
ATOM     12  C   UNL     1      45.176   2.915   9.277  0.00  0.00    +0.000 A 
ATOM     13  C   UNL     1      45.495   4.061   8.543  0.00  0.00    +0.000 A 
ATOM     14  C   UNL     1      46.321   3.948   7.429  0.00  0.00    +0.000 A 
ATOM     15  C   UNL     1      46.823   2.700   7.078  0.00  0.00    +0.000 A 
ATOM     16  C   UNL     1      46.489   1.617   7.872  0.00  0.00    +0.000 A 
ATOM     17  N   UNL     1      45.684   1.692   8.957  0.00  0.00    +0.000 NA
ENDBRANCH  11  12
ENDBRANCH   8  11
ENDBRANCH   7   8
ENDBRANCH   1   7
BRANCH   4  18
ATOM     18  C   UNL     1      49.022   7.803  13.771  0.00  0.00    +0.000 C 
BRANCH  18  19
ATOM     19  N   UNL     1      50.152   7.198  14.421  0.00  0.00    +0.000 N 
ATOM     20  C   UNL     1      50.369   7.276  15.770  0.00  0.00    +0.000 C 
ATOM     21  O   UNL     1      49.586   7.832  16.531  0.00  0.00    +0.000 OA
ATOM     22  H   UNL     1      50.926   6.950  13.815  0.00  0.00    +0.000 HD
BRANCH  20  23
ATOM     23  C   UNL     1      51.568   6.576  16.255  0.00  0.00    +0.000 A 
ATOM     24  C   UNL     1      52.830   7.060  15.946  0.00  0.00    +0.000 A 
ATOM     25  S   UNL     1      54.095   6.186  16.688  0.00  0.00    +0.000 S 
ATOM     26  C   UNL     1      53.001   5.095  17.400  0.00  0.00    +0.000 A 
ATOM     27  N   UNL     1      53.437   4.073  18.186  0.00  0.00    +0.000 NA
ATOM     28  C   UNL     1      52.501   3.311  18.645  0.00  0.00    +0.000 A 
ATOM     29  N   UNL     1      51.162   3.477  18.383  0.00  0.00    +0.000 N 
ATOM     30  C   UNL     1      50.677   4.495  17.602  0.00  0.00    +0.000 A 
ATOM     31  O   UNL     1      49.474   4.620  17.393  0.00  0.00    +0.000 OA
ATOM     32  C   UNL     1      51.690   5.390  17.077  0.00  0.00    +0.000 A 
ATOM     33  H   UNL     1      50.476   2.845  18.768  0.00  0.00    +0.000 HD
ENDBRANCH  20  23
ENDBRANCH  18  19
ENDBRANCH   4  18
TORSDOF 7
ENDMDL
MODEL 7
REMARK VINA RESULT:    -6.717      4.657      6.998
REMARK INTER + INTRA:         -10.488
REMARK INTER:                  -9.726
REMARK INTRA:                  -0.761
REMARK UNBOUND:                -1.022
REMARK  Name = 
REMARK  8 active torsions:
REMARK  status: ('A' for Active; 'I' for Inactive)
REMARK    1  A    between atoms: C_1  and  C_2
REMARK    2  A    between atoms: C_2  and  N_3
REMARK    3  A    between atoms: C_2  and  C_25
REMARK    4  A    between atoms: N_3  and  C_4
REMARK    5  A    between atoms: C_4  and  C_5
REMARK    6  A    between atoms: C_8  and  C_9
REMARK    7  A    between atoms: C_9  and  N_10
REMARK    8  A    between atoms: C_11  and  C_13
REMARK                            x       y       z     vdW  Elec       q    Type
REMARK                         _______ _______ _______ _____ _____    ______ ____
ROOT
ATOM      1  C   UNL     1      45.486   7.510  12.050  0.00  0.00    +0.000 A 
ATOM      2  C   UNL     1      44.470   6.585  12.298  0.00  0.00    +0.000 A 
ATOM      3  C   UNL     1      44.755   5.444  13.049  0.00  0.00    +0.000 A 
ATOM      4  C   UNL     1      46.048   5.236  13.530  0.00  0.00    +0.000 A 
ATOM      5  C   UNL     1      47.017   6.157  13.149  0.00  0.00    +0.000 A 
ATOM      6  N   UNL     1      46.765   7.287  12.443  0.00  0.00    +0.000 NA
ENDROOT
BRANCH   1   7
ATOM      7  C   UNL     1      45.121   8.896  11.526  0.00  0.00    +0.000 C 
BRANCH   7   8
ATOM      8  N   UNL     1      43.690   9.135  11.288  0.00  0.00    +0.000 NA
ATOM      9  H   UNL     1      43.159   8.627  11.995  0.00  0.00    +0.000 HD
BRANCH   8  11
ATOM     10  C   UNL     1      43.886  11.312  10.197  0.00  0.00    +0.000 C 
ATOM     11  C   UNL     1      43.359  10.577  11.432  0.00  0.00    +0.000 C 
BRANCH  11  12
ATOM     12  C   UNL     1      41.867  10.880  11.602  0.00  0.00    +0.000 A 
ATOM     13  C   UNL     1      40.934  10.326  10.721  0.00  0.00    +0.000 A 
ATOM     14  C   UNL     1      39.590  10.655  10.858  0.00  0.00    +0.000 A 
ATOM     15  C   UNL     1      39.199  11.517  11.878  0.00  0.00    +0.000 A 
ATOM     16  C   UNL     1      40.176  11.999  12.731  0.00  0.00    +0.000 A 
ATOM     17  N   UNL     1      41.493  11.704  12.620  0.00  0.00    +0.000 NA
ENDBRANCH  11  12
ENDBRANCH   8  11
ENDBRANCH   7   8
ENDBRANCH   1   7
BRANCH   4  18
ATOM     18  C   UNL     1      46.397   4.043  14.372  0.00  0.00    +0.000 C 
BRANCH  18  19
ATOM     19  N   UNL     1      47.450   4.377  15.291  0.00  0.00    +0.000 N 
ATOM     20  C   UNL     1      47.458   3.975  16.599  0.00  0.00    +0.000 C 
ATOM     21  O   UNL     1      46.585   3.257  17.070  0.00  0.00    +0.000 OA
ATOM     22  H   UNL     1      48.046   5.150  15.014  0.00  0.00    +0.000 HD
BRANCH  20  23
ATOM     23  C   UNL     1      48.631   4.396  17.379  0.00  0.00    +0.000 A 
ATOM     24  C   UNL     1      48.626   5.616  18.040  0.00  0.00    +0.000 A 
ATOM     25  S   UNL     1      50.022   5.884  18.985  0.00  0.00    +0.000 S 
ATOM     26  C   UNL     1      50.707   4.405  18.496  0.00  0.00    +0.000 A 
ATOM     27  N   UNL     1      51.928   4.010  18.950  0.00  0.00    +0.000 NA
ATOM     28  C   UNL     1      52.334   2.877  18.483  0.00  0.00    +0.000 A 
ATOM     29  N   UNL     1      51.629   2.102  17.593  0.00  0.00    +0.000 N 
ATOM     30  C   UNL     1      50.394   2.458  17.113  0.00  0.00    +0.000 A 
ATOM     31  O   UNL     1      49.786   1.739  16.325  0.00  0.00    +0.000 OA
ATOM     32  C   UNL     1      49.886   3.716  17.624  0.00  0.00    +0.000 A 
ATOM     33  H   UNL     1      52.001   1.225  17.260  0.00  0.00    +0.000 HD
ENDBRANCH  20  23
ENDBRANCH  18  19
ENDBRANCH   4  18
TORSDOF 7
ENDMDL
MODEL 8
REMARK VINA RESULT:    -6.706      3.927      8.542
REMARK INTER + INTRA:         -10.473
REMARK INTER:                  -8.620
REMARK INTRA:                  -1.853
REMARK UNBOUND:                -1.022
REMARK  Name = 
REMARK  8 active torsions:
REMARK  status: ('A' for Active; 'I' for Inactive)
REMARK    1  A    between atoms: C_1  and  C_2
REMARK    2  A    between atoms: C_2  and  N_3
REMARK    3  A    between atoms: C_2  and  C_25
REMARK    4  A    between atoms: N_3  and  C_4
REMARK    5  A    between atoms: C_4  and  C_5
REMARK    6  A    between atoms: C_8  and  C_9
REMARK    7  A    between atoms: C_9  and  N_10
REMARK    8  A    between atoms: C_11  and  C_13
REMARK                            x       y       z     vdW  Elec       q    Type
REMARK                         _______ _______ _______ _____ _____    ______ ____
ROOT
ATOM      1  C   UNL     1      49.800   7.886  18.288  0.00  0.00    +0.000 A 
ATOM      2  C   UNL     1      48.698   8.735  18.175  0.00  0.00    +0.000 A 
ATOM      3  C   UNL     1      48.218   9.067  16.907  0.00  0.00    +0.000 A 
ATOM      4  C   UNL     1      48.850   8.558  15.773  0.00  0.00    +0.000 A 
ATOM      5  C   UNL     1      50.000   7.803  15.978  0.00  0.00    +0.000 A 
ATOM      6  N   UNL     1      50.474   7.444  17.196  0.00  0.00    +0.000 NA
ENDROOT
BRANCH   1   7
ATOM      7  C   UNL     1      50.125   7.261  19.641  0.00  0.00    +0.000 C 
BRANCH   7   8
ATOM      8  N   UNL     1      50.634   5.882  19.606  0.00  0.00    +0.000 NA
ATOM      9  H   UNL     1      51.315   5.774  20.357  0.00  0.00    +0.000 HD
BRANCH   8  11
ATOM     10  C   UNL     1      48.439   5.609  20.642  0.00  0.00    +0.000 C 
ATOM     11  C   UNL     1      49.542   4.904  19.848  0.00  0.00    +0.000 C 
BRANCH  11  12
ATOM     12  C   UNL     1      48.938   4.289  18.582  0.00  0.00    +0.000 A 
ATOM     13  C   UNL     1      47.783   4.837  18.018  0.00  0.00    +0.000 A 
ATOM     14  C   UNL     1      47.218   4.233  16.900  0.00  0.00    +0.000 A 
ATOM     15  C   UNL     1      47.822   3.104  16.357  0.00  0.00    +0.000 A 
ATOM     16  C   UNL     1      48.982   2.638  16.951  0.00  0.00    +0.000 A 
ATOM     17  N   UNL     1      49.553   3.198  18.043  0.00  0.00    +0.000 NA
ENDBRANCH  11  12
ENDBRANCH   8  11
ENDBRANCH   7   8
ENDBRANCH   1   7
BRANCH   4  18
ATOM     18  C   UNL     1      48.352   8.855  14.388  0.00  0.00    +0.000 C 
BRANCH  18  19
ATOM     19  N   UNL     1      47.424   7.841  13.968  0.00  0.00    +0.000 N 
ATOM     20  C   UNL     1      47.784   6.770  13.197  0.00  0.00    +0.000 C 
ATOM     21  O   UNL     1      48.941   6.571  12.847  0.00  0.00    +0.000 OA
ATOM     22  H   UNL     1      46.443   8.093  14.027  0.00  0.00    +0.000 HD
BRANCH  20  23
ATOM     23  C   UNL     1      46.700   5.827  12.884  0.00  0.00    +0.000 A 
ATOM     24  C   UNL     1      46.843   4.479  13.181  0.00  0.00    +0.000 A 
ATOM     25  S   UNL     1      45.443   3.558  12.853  0.00  0.00    +0.000 S 
ATOM     26  C   UNL     1      44.619   4.919  12.249  0.00  0.00    +0.000 A 
ATOM     27  N   UNL     1      43.341   4.822  11.790  0.00  0.00    +0.000 NA
ATOM     28  C   UNL     1      42.846   5.928  11.344  0.00  0.00    +0.000 A 
ATOM     29  N   UNL     1      43.518   7.125  11.308  0.00  0.00    +0.000 N 
ATOM     30  C   UNL     1      44.803   7.271  11.764  0.00  0.00    +0.000 A 
ATOM     31  O   UNL     1      45.374   8.357  11.725  0.00  0.00    +0.000 OA
ATOM     32  C   UNL     1      45.398   6.059  12.294  0.00  0.00    +0.000 A 
ATOM     33  H   UNL     1      43.078   7.957  10.942  0.00  0.00    +0.000 HD
ENDBRANCH  20  23
ENDBRANCH  18  19
ENDBRANCH   4  18
TORSDOF 7
ENDMDL
MODEL 9
REMARK VINA RESULT:    -6.630      4.465      8.758
REMARK INTER + INTRA:         -10.366
REMARK INTER:                  -9.158
REMARK INTRA:                  -1.207
REMARK UNBOUND:                -1.022
REMARK  Name = 
REMARK  8 active torsions:
REMARK  status: ('A' for Active; 'I' for Inactive)
REMARK    1  A    between atoms: C_1  and  C_2
REMARK    2  A    between atoms: C_2  and  N_3
REMARK    3  A    between atoms: C_2  and  C_25
REMARK    4  A    between atoms: N_3  and  C_4
REMARK    5  A    between atoms: C_4  and  C_5
REMARK    6  A    between atoms: C_8  and  C_9
REMARK    7  A    between atoms: C_9  and  N_10
REMARK    8  A    between atoms: C_11  and  C_13
REMARK                            x       y       z     vdW  Elec       q    Type
REMARK                         _______ _______ _______ _____ _____    ______ ____
ROOT
ATOM      1  C   UNL     1      51.278   3.908  18.064  0.00  0.00    +0.000 A 
ATOM      2  C   UNL     1      50.927   2.717  17.425  0.00  0.00    +0.000 A 
ATOM      3  C   UNL     1      49.598   2.507  17.054  0.00  0.00    +0.000 A 
ATOM      4  C   UNL     1      48.639   3.479  17.335  0.00  0.00    +0.000 A 
ATOM      5  C   UNL     1      49.059   4.587  18.062  0.00  0.00    +0.000 A 
ATOM      6  N   UNL     1      50.346   4.830  18.414  0.00  0.00    +0.000 NA
ENDROOT
BRANCH   1   7
ATOM      7  C   UNL     1      52.751   4.288  18.175  0.00  0.00    +0.000 C 
BRANCH   7   8
ATOM      8  N   UNL     1      53.296   5.078  17.061  0.00  0.00    +0.000 NA
ATOM      9  H   UNL     1      52.873   4.743  16.195  0.00  0.00    +0.000 HD
BRANCH   8  11
ATOM     10  C   UNL     1      54.219   7.282  17.563  0.00  0.00    +0.000 C 
ATOM     11  C   UNL     1      52.945   6.514  17.203  0.00  0.00    +0.000 C 
BRANCH  11  12
ATOM     12  C   UNL     1      52.308   7.146  15.961  0.00  0.00    +0.000 A 
ATOM     13  C   UNL     1      53.112   7.765  14.999  0.00  0.00    +0.000 A 
ATOM     14  C   UNL     1      52.513   8.380  13.905  0.00  0.00    +0.000 A 
ATOM     15  C   UNL     1      51.128   8.355  13.783  0.00  0.00    +0.000 A 
ATOM     16  C   UNL     1      50.401   7.695  14.758  0.00  0.00    +0.000 A 
ATOM     17  N   UNL     1      50.952   7.093  15.838  0.00  0.00    +0.000 NA
ENDBRANCH  11  12
ENDBRANCH   8  11
ENDBRANCH   7   8
ENDBRANCH   1   7
BRANCH   4  18
ATOM     18  C   UNL     1      47.204   3.317  16.925  0.00  0.00    +0.000 C 
BRANCH  18  19
ATOM     19  N   UNL     1      46.849   4.319  15.957  0.00  0.00    +0.000 N 
ATOM     20  C   UNL     1      46.947   4.123  14.607  0.00  0.00    +0.000 C 
ATOM     21  O   UNL     1      47.302   3.055  14.122  0.00  0.00    +0.000 OA
ATOM     22  H   UNL     1      46.788   5.268  16.310  0.00  0.00    +0.000 HD
BRANCH  20  23
ATOM     23  C   UNL     1      46.518   5.256  13.774  0.00  0.00    +0.000 A 
ATOM     24  C   UNL     1      47.351   6.352  13.606  0.00  0.00    +0.000 A 
ATOM     25  S   UNL     1      46.735   7.516  12.519  0.00  0.00    +0.000 S 
ATOM     26  C   UNL     1      45.307   6.621  12.281  0.00  0.00    +0.000 A 
ATOM     27  N   UNL     1      44.330   7.065  11.444  0.00  0.00    +0.000 NA
ATOM     28  C   UNL     1      43.294   6.298  11.373  0.00  0.00    +0.000 A 
ATOM     29  N   UNL     1      43.144   5.124  12.071  0.00  0.00    +0.000 N 
ATOM     30  C   UNL     1      44.104   4.635  12.919  0.00  0.00    +0.000 A 
ATOM     31  O   UNL     1      43.944   3.578  13.523  0.00  0.00    +0.000 OA
ATOM     32  C   UNL     1      45.297   5.454  13.020  0.00  0.00    +0.000 A 
ATOM     33  H   UNL     1      42.308   4.567  11.976  0.00  0.00    +0.000 HD
ENDBRANCH  20  23
ENDBRANCH  18  19
ENDBRANCH   4  18
TORSDOF 7
ENDMDL
