MODEL 1
REMARK VINA RESULT:    -8.663      0.000      0.000
REMARK INTER + INTRA:         -12.992
REMARK INTER:                 -12.208
REMARK INTRA:                  -0.784
REMARK UNBOUND:                -0.784
REMARK  Name = 
REMARK  7 active torsions:
REMARK  status: ('A' for Active; 'I' for Inactive)
REMARK    1  A    between atoms: C_2  and  C_4
REMARK    2  A    between atoms: C_8  and  N_9
REMARK    3  A    between atoms: N_9  and  C_10
REMARK    4  A    between atoms: C_10  and  C_11
REMARK    5  A    between atoms: C_14  and  C_15
REMARK    6  A    between atoms: C_15  and  N_16
REMARK    7  A    between atoms: C_17  and  C_19
REMARK                            x       y       z     vdW  Elec       q    Type
REMARK                         _______ _______ _______ _____ _____    ______ ____
ROOT
ATOM      1  C   UNL     1      44.726   4.212  12.328  0.00  0.00    +0.000 A 
ATOM      2  C   UNL     1      45.763   3.496  12.945  0.00  0.00    +0.000 A 
ATOM      3  C   UNL     1      46.870   4.161  13.487  0.00  0.00    +0.000 A 
ATOM      4  C   UNL     1      46.955   5.558  13.444  0.00  0.00    +0.000 A 
ATOM      5  C   UNL     1      45.923   6.274  12.825  0.00  0.00    +0.000 A 
ATOM      6  C   UNL     1      44.816   5.610  12.282  0.00  0.00    +0.000 A 
ENDROOT
BRANCH   1   7
ATOM      7  C   UNL     1      43.535   3.491  11.728  0.00  0.00    +0.000 C 
BRANCH   7   8
ATOM      8  N   UNL     1      43.983   2.438  10.835  0.00  0.00    +0.000 N 
ATOM      9  H   UNL     1      43.285   1.731  10.625  0.00  0.00    +0.000 HD
BRANCH   8  14
ATOM     10  C   UNL     1      46.190   2.058   8.064  0.00  0.00    +0.000 A 
ATOM     11  C   UNL     1      46.229   3.301   7.450  0.00  0.00    +0.000 A 
ATOM     12  C   UNL     1      45.431   4.301   7.978  0.00  0.00    +0.000 A 
ATOM     13  C   UNL     1      44.646   4.025   9.100  0.00  0.00    +0.000 A 
ATOM     14  C   UNL     1      44.663   2.751   9.669  0.00  0.00    +0.000 A 
ATOM     15  N   UNL     1      45.419   1.762   9.154  0.00  0.00    +0.000 NA
BRANCH  10  17
ATOM     16  N   UNL     1      48.028   1.339   6.652  0.00  0.00    +0.000 N 
ATOM     17  C   UNL     1      47.040   0.953   7.516  0.00  0.00    +0.000 C 
ATOM     18  O   UNL     1      46.875  -0.224   7.819  0.00  0.00    +0.000 OA
ATOM     19  H   UNL     1      48.631   0.640   6.244  0.00  0.00    +0.000 HD
ATOM     20  H   UNL     1      48.135   2.319   6.419  0.00  0.00    +0.000 HD
ENDBRANCH  10  17
ENDBRANCH   8  14
ENDBRANCH   7   8
ENDBRANCH   1   7
BRANCH   4  21
ATOM     21  C   UNL     1      48.149   6.279  14.019  0.00  0.00    +0.000 C 
BRANCH  21  22
ATOM     22  N   UNL     1      48.002   6.491  15.438  0.00  0.00    +0.000 N 
ATOM     23  C   UNL     1      49.091   6.520  16.273  0.00  0.00    +0.000 C 
ATOM     24  O   UNL     1      50.239   6.413  15.848  0.00  0.00    +0.000 OA
ATOM     25  H   UNL     1      47.076   6.353  15.830  0.00  0.00    +0.000 HD
BRANCH  23  26
ATOM     26  C   UNL     1      48.823   6.746  17.699  0.00  0.00    +0.000 A 
ATOM     27  C   UNL     1      48.635   8.041  18.168  0.00  0.00    +0.000 A 
ATOM     28  S   UNL     1      48.278   8.123  19.833  0.00  0.00    +0.000 S 
ATOM     29  C   UNL     1      48.410   6.436  19.999  0.00  0.00    +0.000 A 
ATOM     30  N   UNL     1      48.236   5.837  21.209  0.00  0.00    +0.000 NA
ATOM     31  C   UNL     1      48.395   4.556  21.198  0.00  0.00    +0.000 A 
ATOM     32  N   UNL     1      48.709   3.818  20.086  0.00  0.00    +0.000 N 
ATOM     33  C   UNL     1      48.869   4.375  18.840  0.00  0.00    +0.000 A 
ATOM     34  O   UNL     1      49.114   3.682  17.859  0.00  0.00    +0.000 OA
ATOM     35  C   UNL     1      48.708   5.816  18.798  0.00  0.00    +0.000 A 
ATOM     36  H   UNL     1      48.815   2.817  20.144  0.00  0.00    +0.000 HD
ENDBRANCH  23  26
ENDBRANCH  21  22
ENDBRANCH   4  21
TORSDOF 7
ENDMDL
MODEL 2
REMARK VINA RESULT:    -8.542      2.032      2.581
REMARK INTER + INTRA:         -12.822
REMARK INTER:                 -11.744
REMARK INTRA:                  -1.078
REMARK UNBOUND:                -0.784
REMARK  Name = 
REMARK  7 active torsions:
REMARK  status: ('A' for Active; 'I' for Inactive)
REMARK    1  A    between atoms: C_2  and  C_4
REMARK    2  A    between atoms: C_8  and  N_9
REMARK    3  A    between atoms: N_9  and  C_10
REMARK    4  A    between atoms: C_10  and  C_11
REMARK    5  A    between atoms: C_14  and  C_15
REMARK    6  A    between atoms: C_15  and  N_16
REMARK    7  A    between atoms: C_17  and  C_19
REMARK                            x       y       z     vdW  Elec       q    Type
REMARK                         _______ _______ _______ _____ _____    ______ ____
ROOT
ATOM      1  C   UNL     1      44.529   5.680  11.130  0.00  0.00    +0.000 A 
ATOM      2  C   UNL     1      44.333   7.056  11.324  0.00  0.00    +0.000 A 
ATOM      3  C   UNL     1      45.226   7.805  12.100  0.00  0.00    +0.000 A 
ATOM      4  C   UNL     1      46.348   7.201  12.683  0.00  0.00    +0.000 A 
ATOM      5  C   UNL     1      46.542   5.827  12.493  0.00  0.00    +0.000 A 
ATOM      6  C   UNL     1      45.650   5.076  11.718  0.00  0.00    +0.000 A 
ENDROOT
BRANCH   1   7
ATOM      7  C   UNL     1      43.555   4.866  10.303  0.00  0.00    +0.000 C 
BRANCH   7   8
ATOM      8  N   UNL     1      44.068   4.686   8.957  0.00  0.00    +0.000 N 
ATOM      9  H   UNL     1      44.500   5.510   8.551  0.00  0.00    +0.000 HD
BRANCH   8  14
ATOM     10  C   UNL     1      46.416   2.649   7.215  0.00  0.00    +0.000 A 
ATOM     11  C   UNL     1      46.311   1.391   7.789  0.00  0.00    +0.000 A 
ATOM     12  C   UNL     1      45.433   1.243   8.849  0.00  0.00    +0.000 A 
ATOM     13  C   UNL     1      44.688   2.344   9.276  0.00  0.00    +0.000 A 
ATOM     14  C   UNL     1      44.842   3.579   8.646  0.00  0.00    +0.000 A 
ATOM     15  N   UNL     1      45.708   3.744   7.626  0.00  0.00    +0.000 NA
BRANCH  10  17
ATOM     16  N   UNL     1      48.687   2.706   6.364  0.00  0.00    +0.000 N 
ATOM     17  C   UNL     1      47.360   2.845   6.068  0.00  0.00    +0.000 C 
ATOM     18  O   UNL     1      46.978   3.107   4.932  0.00  0.00    +0.000 OA
ATOM     19  H   UNL     1      49.375   2.832   5.635  0.00  0.00    +0.000 HD
ATOM     20  H   UNL     1      48.970   2.493   7.313  0.00  0.00    +0.000 HD
ENDBRANCH  10  17
ENDBRANCH   8  14
ENDBRANCH   7   8
ENDBRANCH   1   7
BRANCH   4  21
ATOM     21  C   UNL     1      47.308   8.002  13.526  0.00  0.00    +0.000 C 
BRANCH  21  22
ATOM     22  N   UNL     1      47.655   7.300  14.737  0.00  0.00    +0.000 N 
ATOM     23  C   UNL     1      48.935   6.859  14.966  0.00  0.00    +0.000 C 
ATOM     24  O   UNL     1      49.849   7.081  14.176  0.00  0.00    +0.000 OA
ATOM     25  H   UNL     1      46.890   6.914  15.280  0.00  0.00    +0.000 HD
BRANCH  23  26
ATOM     26  C   UNL     1      49.174   6.159  16.235  0.00  0.00    +0.000 A 
ATOM     27  C   UNL     1      50.185   6.595  17.082  0.00  0.00    +0.000 A 
ATOM     28  S   UNL     1      50.292   5.710  18.536  0.00  0.00    +0.000 S 
ATOM     29  C   UNL     1      49.023   4.680  18.064  0.00  0.00    +0.000 A 
ATOM     30  N   UNL     1      48.616   3.660  18.868  0.00  0.00    +0.000 NA
ATOM     31  C   UNL     1      47.667   2.939  18.374  0.00  0.00    +0.000 A 
ATOM     32  N   UNL     1      47.084   3.146  17.150  0.00  0.00    +0.000 N 
ATOM     33  C   UNL     1      47.445   4.177  16.316  0.00  0.00    +0.000 A 
ATOM     34  O   UNL     1      46.879   4.355  15.244  0.00  0.00    +0.000 OA
ATOM     35  C   UNL     1      48.516   5.015  16.821  0.00  0.00    +0.000 A 
ATOM     36  H   UNL     1      46.341   2.547  16.824  0.00  0.00    +0.000 HD
ENDBRANCH  23  26
ENDBRANCH  21  22
ENDBRANCH   4  21
TORSDOF 7
ENDMDL
MODEL 3
REMARK VINA RESULT:    -8.278      1.476      1.668
REMARK INTER + INTRA:         -12.450
REMARK INTER:                 -11.873
REMARK INTRA:                  -0.577
REMARK UNBOUND:                -0.784
REMARK  Name = 
REMARK  7 active torsions:
REMARK  status: ('A' for Active; 'I' for Inactive)
REMARK    1  A    between atoms: C_2  and  C_4
REMARK    2  A    between atoms: C_8  and  N_9
REMARK    3  A    between atoms: N_9  and  C_10
REMARK    4  A    between atoms: C_10  and  C_11
REMARK    5  A    between atoms: C_14  and  C_15
REMARK    6  A    between atoms: C_15  and  N_16
REMARK    7  A    between atoms: C_17  and  C_19
REMARK                            x       y       z     vdW  Elec       q    Type
REMARK                         _______ _______ _______ _____ _____    ______ ____
ROOT
ATOM      1  C   UNL     1      44.235   4.258  11.882  0.00  0.00    +0.000 A 
ATOM      2  C   UNL     1      45.442   3.941  12.523  0.00  0.00    +0.000 A 
ATOM      3  C   UNL     1      46.315   4.951  12.948  0.00  0.00    +0.000 A 
ATOM      4  C   UNL     1      45.991   6.300  12.762  0.00  0.00    +0.000 A 
ATOM      5  C   UNL     1      44.787   6.618  12.119  0.00  0.00    +0.000 A 
ATOM      6  C   UNL     1      43.914   5.609  11.693  0.00  0.00    +0.000 A 
ENDROOT
BRANCH   1   7
ATOM      7  C   UNL     1      43.298   3.165  11.409  0.00  0.00    +0.000 C 
BRANCH   7   8
ATOM      8  N   UNL     1      44.027   2.180  10.631  0.00  0.00    +0.000 N 
ATOM      9  H   UNL     1      43.520   1.318  10.452  0.00  0.00    +0.000 HD
BRANCH   8  14
ATOM     10  C   UNL     1      46.233   1.965   7.841  0.00  0.00    +0.000 A 
ATOM     11  C   UNL     1      46.229   3.228   7.269  0.00  0.00    +0.000 A 
ATOM     12  C   UNL     1      45.400   4.183   7.834  0.00  0.00    +0.000 A 
ATOM     13  C   UNL     1      44.630   3.845   8.948  0.00  0.00    +0.000 A 
ATOM     14  C   UNL     1      44.690   2.554   9.474  0.00  0.00    +0.000 A 
ATOM     15  N   UNL     1      45.477   1.608   8.923  0.00  0.00    +0.000 NA
BRANCH  10  17
ATOM     16  N   UNL     1      46.809  -0.379   7.601  0.00  0.00    +0.000 N 
ATOM     17  C   UNL     1      47.116   0.907   7.254  0.00  0.00    +0.000 C 
ATOM     18  O   UNL     1      48.052   1.165   6.503  0.00  0.00    +0.000 OA
ATOM     19  H   UNL     1      47.370  -1.138   7.243  0.00  0.00    +0.000 HD
ATOM     20  H   UNL     1      46.032  -0.558   8.225  0.00  0.00    +0.000 HD
ENDBRANCH  10  17
ENDBRANCH   8  14
ENDBRANCH   7   8
ENDBRANCH   1   7
BRANCH   4  21
ATOM     21  C   UNL     1      46.931   7.392  13.211  0.00  0.00    +0.000 C 
BRANCH  21  22
ATOM     22  N   UNL     1      47.486   7.106  14.510  0.00  0.00    +0.000 N 
ATOM     23  C   UNL     1      48.819   6.818  14.670  0.00  0.00    +0.000 C 
ATOM     24  O   UNL     1      49.605   6.836  13.726  0.00  0.00    +0.000 OA
ATOM     25  H   UNL     1      46.832   6.864  15.247  0.00  0.00    +0.000 HD
BRANCH  23  26
ATOM     26  C   UNL     1      49.275   6.546  16.040  0.00  0.00    +0.000 A 
ATOM     27  C   UNL     1      50.279   7.326  16.599  0.00  0.00    +0.000 A 
ATOM     28  S   UNL     1      50.650   6.915  18.212  0.00  0.00    +0.000 S 
ATOM     29  C   UNL     1      49.516   5.647  18.206  0.00  0.00    +0.000 A 
ATOM     30  N   UNL     1      49.342   4.860  19.302  0.00  0.00    +0.000 NA
ATOM     31  C   UNL     1      48.474   3.918  19.150  0.00  0.00    +0.000 A 
ATOM     32  N   UNL     1      47.759   3.693  18.001  0.00  0.00    +0.000 N 
ATOM     33  C   UNL     1      47.882   4.476  16.879  0.00  0.00    +0.000 A 
ATOM     34  O   UNL     1      47.202   4.270  15.881  0.00  0.00    +0.000 OA
ATOM     35  C   UNL     1      48.854   5.548  16.995  0.00  0.00    +0.000 A 
ATOM     36  H   UNL     1      47.090   2.940  17.949  0.00  0.00    +0.000 HD
ENDBRANCH  23  26
ENDBRANCH  21  22
ENDBRANCH   4  21
TORSDOF 7
ENDMDL
MODEL 4
REMARK VINA RESULT:    -8.091      1.817      2.593
REMARK INTER + INTRA:         -12.186
REMARK INTER:                 -11.051
REMARK INTRA:                  -1.135
REMARK UNBOUND:                -0.784
REMARK  Name = 
REMARK  7 active torsions:
REMARK  status: ('A' for Active; 'I' for Inactive)
REMARK    1  A    between atoms: C_2  and  C_4
REMARK    2  A    between atoms: C_8  and  N_9
REMARK    3  A    between atoms: N_9  and  C_10
REMARK    4  A    between atoms: C_10  and  C_11
REMARK    5  A    between atoms: C_14  and  C_15
REMARK    6  A    between atoms: C_15  and  N_16
REMARK    7  A    between atoms: C_17  and  C_19
REMARK                            x       y       z     vdW  Elec       q    Type
REMARK                         _______ _______ _______ _____ _____    ______ ____
ROOT
ATOM      1  C   UNL     1      44.868   5.366  11.419  0.00  0.00    +0.000 A 
ATOM      2  C   UNL     1      45.611   6.481  11.003  0.00  0.00    +0.000 A 
ATOM      3  C   UNL     1      46.697   6.942  11.758  0.00  0.00    +0.000 A 
ATOM      4  C   UNL     1      47.079   6.285  12.935  0.00  0.00    +0.000 A 
ATOM      5  C   UNL     1      46.336   5.174  13.353  0.00  0.00    +0.000 A 
ATOM      6  C   UNL     1      45.249   4.713  12.599  0.00  0.00    +0.000 A 
ENDROOT
BRANCH   1   7
ATOM      7  C   UNL     1      43.684   4.876  10.610  0.00  0.00    +0.000 C 
BRANCH   7   8
ATOM      8  N   UNL     1      44.062   4.709   9.218  0.00  0.00    +0.000 N 
ATOM      9  H   UNL     1      44.450   5.539   8.779  0.00  0.00    +0.000 HD
BRANCH   8  14
ATOM     10  C   UNL     1      46.331   2.737   7.306  0.00  0.00    +0.000 A 
ATOM     11  C   UNL     1      46.202   1.446   7.796  0.00  0.00    +0.000 A 
ATOM     12  C   UNL     1      45.336   1.249   8.858  0.00  0.00    +0.000 A 
ATOM     13  C   UNL     1      44.626   2.337   9.370  0.00  0.00    +0.000 A 
ATOM     14  C   UNL     1      44.802   3.608   8.821  0.00  0.00    +0.000 A 
ATOM     15  N   UNL     1      45.657   3.819   7.800  0.00  0.00    +0.000 NA
BRANCH  10  17
ATOM     16  N   UNL     1      48.578   2.701   6.393  0.00  0.00    +0.000 N 
ATOM     17  C   UNL     1      47.261   2.986   6.159  0.00  0.00    +0.000 C 
ATOM     18  O   UNL     1      46.878   3.411   5.073  0.00  0.00    +0.000 OA
ATOM     19  H   UNL     1      49.257   2.853   5.662  0.00  0.00    +0.000 HD
ATOM     20  H   UNL     1      48.862   2.355   7.301  0.00  0.00    +0.000 HD
ENDBRANCH  10  17
ENDBRANCH   8  14
ENDBRANCH   7   8
ENDBRANCH   1   7
BRANCH   4  21
ATOM     21  C   UNL     1      48.242   6.782  13.756  0.00  0.00    +0.000 C 
BRANCH  21  22
ATOM     22  N   UNL     1      48.053   6.503  15.158  0.00  0.00    +0.000 N 
ATOM     23  C   UNL     1      49.121   6.333  16.004  0.00  0.00    +0.000 C 
ATOM     24  O   UNL     1      50.281   6.456  15.618  0.00  0.00    +0.000 OA
ATOM     25  H   UNL     1      47.135   6.178  15.442  0.00  0.00    +0.000 HD
BRANCH  23  26
ATOM     26  C   UNL     1      48.809   6.057  17.412  0.00  0.00    +0.000 A 
ATOM     27  C   UNL     1      48.996   4.777  17.921  0.00  0.00    +0.000 A 
ATOM     28  S   UNL     1      48.641   4.641  19.583  0.00  0.00    +0.000 S 
ATOM     29  C   UNL     1      48.177   6.274  19.673  0.00  0.00    +0.000 A 
ATOM     30  N   UNL     1      47.735   6.812  20.842  0.00  0.00    +0.000 NA
ATOM     31  C   UNL     1      47.386   8.052  20.761  0.00  0.00    +0.000 A 
ATOM     32  N   UNL     1      47.443   8.806  19.617  0.00  0.00    +0.000 N 
ATOM     33  C   UNL     1      47.907   8.314  18.420  0.00  0.00    +0.000 A 
ATOM     34  O   UNL     1      47.979   9.025  17.425  0.00  0.00    +0.000 OA
ATOM     35  C   UNL     1      48.305   6.919  18.455  0.00  0.00    +0.000 A 
ATOM     36  H   UNL     1      47.160   9.774  19.622  0.00  0.00    +0.000 HD
ENDBRANCH  23  26
ENDBRANCH  21  22
ENDBRANCH   4  21
TORSDOF 7
ENDMDL
MODEL 5
REMARK VINA RESULT:    -8.081      1.374      1.985
REMARK INTER + INTRA:         -12.172
REMARK INTER:                 -11.231
REMARK INTRA:                  -0.941
REMARK UNBOUND:                -0.784
REMARK  Name = 
REMARK  7 active torsions:
REMARK  status: ('A' for Active; 'I' for Inactive)
REMARK    1  A    between atoms: C_2  and  C_4
REMARK    2  A    between atoms: C_8  and  N_9
REMARK    3  A    between atoms: N_9  and  C_10
REMARK    4  A    between atoms: C_10  and  C_11
REMARK    5  A    between atoms: C_14  and  C_15
REMARK    6  A    between atoms: C_15  and  N_16
REMARK    7  A    between atoms: C_17  and  C_19
REMARK                            x       y       z     vdW  Elec       q    Type
REMARK                         _______ _______ _______ _____ _____    ______ ____
ROOT
ATOM      1  C   UNL     1      45.116   4.662  12.010  0.00  0.00    +0.000 A 
ATOM      2  C   UNL     1      45.569   4.101  13.213  0.00  0.00    +0.000 A 
ATOM      3  C   UNL     1      46.594   4.710  13.949  0.00  0.00    +0.000 A 
ATOM      4  C   UNL     1      47.174   5.907  13.509  0.00  0.00    +0.000 A 
ATOM      5  C   UNL     1      46.725   6.466  12.306  0.00  0.00    +0.000 A 
ATOM      6  C   UNL     1      45.701   5.857  11.569  0.00  0.00    +0.000 A 
ENDROOT
BRANCH   1   7
ATOM      7  C   UNL     1      44.017   3.995  11.207  0.00  0.00    +0.000 C 
BRANCH   7   8
ATOM      8  N   UNL     1      44.526   2.802  10.554  0.00  0.00    +0.000 N 
ATOM      9  H   UNL     1      43.869   2.029  10.507  0.00  0.00    +0.000 HD
BRANCH   8  14
ATOM     10  C   UNL     1      46.440   1.805   7.719  0.00  0.00    +0.000 A 
ATOM     11  C   UNL     1      46.706   2.974   7.023  0.00  0.00    +0.000 A 
ATOM     12  C   UNL     1      46.169   4.150   7.519  0.00  0.00    +0.000 A 
ATOM     13  C   UNL     1      45.410   4.112   8.691  0.00  0.00    +0.000 A 
ATOM     14  C   UNL     1      45.188   2.897   9.341  0.00  0.00    +0.000 A 
ATOM     15  N   UNL     1      45.688   1.742   8.859  0.00  0.00    +0.000 NA
BRANCH  10  17
ATOM     16  N   UNL     1      47.654   0.587   6.008  0.00  0.00    +0.000 N 
ATOM     17  C   UNL     1      47.004   0.514   7.208  0.00  0.00    +0.000 C 
ATOM     18  O   UNL     1      46.901  -0.544   7.821  0.00  0.00    +0.000 OA
ATOM     19  H   UNL     1      48.051  -0.250   5.606  0.00  0.00    +0.000 HD
ATOM     20  H   UNL     1      47.718   1.475   5.525  0.00  0.00    +0.000 HD
ENDBRANCH  10  17
ENDBRANCH   8  14
ENDBRANCH   7   8
ENDBRANCH   1   7
BRANCH   4  21
ATOM     21  C   UNL     1      48.284   6.563  14.292  0.00  0.00    +0.000 C 
BRANCH  21  22
ATOM     22  N   UNL     1      48.107   6.377  15.711  0.00  0.00    +0.000 N 
ATOM     23  C   UNL     1      49.172   6.115  16.536  0.00  0.00    +0.000 C 
ATOM     24  O   UNL     1      50.325   6.073  16.114  0.00  0.00    +0.000 OA
ATOM     25  H   UNL     1      47.165   6.182  16.035  0.00  0.00    +0.000 HD
BRANCH  23  26
ATOM     26  C   UNL     1      48.874   5.947  17.965  0.00  0.00    +0.000 A 
ATOM     27  C   UNL     1      49.133   4.731  18.584  0.00  0.00    +0.000 A 
ATOM     28  S   UNL     1      48.784   4.722  20.253  0.00  0.00    +0.000 S 
ATOM     29  C   UNL     1      48.226   6.328  20.199  0.00  0.00    +0.000 A 
ATOM     30  N   UNL     1      47.751   6.941  21.317  0.00  0.00    +0.000 NA
ATOM     31  C   UNL     1      47.332   8.147  21.128  0.00  0.00    +0.000 A 
ATOM     32  N   UNL     1      47.348   8.798  19.921  0.00  0.00    +0.000 N 
ATOM     33  C   UNL     1      47.841   8.229  18.771  0.00  0.00    +0.000 A 
ATOM     34  O   UNL     1      47.874   8.852  17.717  0.00  0.00    +0.000 OA
ATOM     35  C   UNL     1      48.319   6.868  18.928  0.00  0.00    +0.000 A 
ATOM     36  H   UNL     1      47.009   9.745  19.841  0.00  0.00    +0.000 HD
ENDBRANCH  23  26
ENDBRANCH  21  22
ENDBRANCH   4  21
TORSDOF 7
ENDMDL
MODEL 6
REMARK VINA RESULT:    -7.950      3.217      9.103
REMARK INTER + INTRA:         -11.988
REMARK INTER:                 -10.569
REMARK INTRA:                  -1.419
REMARK UNBOUND:                -0.784
REMARK  Name = 
REMARK  7 active torsions:
REMARK  status: ('A' for Active; 'I' for Inactive)
REMARK    1  A    between atoms: C_2  and  C_4
REMARK    2  A    between atoms: C_8  and  N_9
REMARK    3  A    between atoms: N_9  and  C_10
REMARK    4  A    between atoms: C_10  and  C_11
REMARK    5  A    between atoms: C_14  and  C_15
REMARK    6  A    between atoms: C_15  and  N_16
REMARK    7  A    between atoms: C_17  and  C_19
REMARK                            x       y       z     vdW  Elec       q    Type
REMARK                         _______ _______ _______ _____ _____    ______ ____
ROOT
ATOM      1  C   UNL     1      49.875   7.990  15.630  0.00  0.00    +0.000 A 
ATOM      2  C   UNL     1      48.507   8.298  15.597  0.00  0.00    +0.000 A 
ATOM      3  C   UNL     1      47.796   8.278  14.390  0.00  0.00    +0.000 A 
ATOM      4  C   UNL     1      48.431   7.928  13.192  0.00  0.00    +0.000 A 
ATOM      5  C   UNL     1      49.798   7.624  13.223  0.00  0.00    +0.000 A 
ATOM      6  C   UNL     1      50.510   7.644  14.429  0.00  0.00    +0.000 A 
ENDROOT
BRANCH   1   7
ATOM      7  C   UNL     1      50.648   8.026  16.933  0.00  0.00    +0.000 C 
BRANCH   7   8
ATOM      8  N   UNL     1      51.182   6.710  17.236  0.00  0.00    +0.000 N 
ATOM      9  H   UNL     1      52.016   6.712  17.816  0.00  0.00    +0.000 HD
BRANCH   8  14
ATOM     10  C   UNL     1      49.747   3.460  17.499  0.00  0.00    +0.000 A 
ATOM     11  C   UNL     1      48.624   3.615  18.296  0.00  0.00    +0.000 A 
ATOM     12  C   UNL     1      48.370   4.877  18.805  0.00  0.00    +0.000 A 
ATOM     13  C   UNL     1      49.233   5.927  18.484  0.00  0.00    +0.000 A 
ATOM     14  C   UNL     1      50.342   5.697  17.669  0.00  0.00    +0.000 A 
ATOM     15  N   UNL     1      50.613   4.470  17.183  0.00  0.00    +0.000 NA
BRANCH  10  17
ATOM     16  N   UNL     1      50.978   1.372  17.623  0.00  0.00    +0.000 N 
ATOM     17  C   UNL     1      50.053   2.106  16.934  0.00  0.00    +0.000 C 
ATOM     18  O   UNL     1      49.509   1.670  15.923  0.00  0.00    +0.000 OA
ATOM     19  H   UNL     1      51.232   0.454  17.290  0.00  0.00    +0.000 HD
ATOM     20  H   UNL     1      51.411   1.763  18.451  0.00  0.00    +0.000 HD
ENDBRANCH  10  17
ENDBRANCH   8  14
ENDBRANCH   7   8
ENDBRANCH   1   7
BRANCH   4  21
ATOM     21  C   UNL     1      47.672   7.913  11.888  0.00  0.00    +0.000 C 
BRANCH  21  22
ATOM     22  N   UNL     1      46.971   6.667  11.703  0.00  0.00    +0.000 N 
ATOM     23  C   UNL     1      45.604   6.595  11.801  0.00  0.00    +0.000 C 
ATOM     24  O   UNL     1      44.914   7.591  12.005  0.00  0.00    +0.000 OA
ATOM     25  H   UNL     1      47.521   5.816  11.763  0.00  0.00    +0.000 HD
BRANCH  23  26
ATOM     26  C   UNL     1      44.996   5.275  11.590  0.00  0.00    +0.000 A 
ATOM     27  C   UNL     1      44.310   4.658  12.629  0.00  0.00    +0.000 A 
ATOM     28  S   UNL     1      43.619   3.159  12.201  0.00  0.00    +0.000 S 
ATOM     29  C   UNL     1      44.253   3.256  10.626  0.00  0.00    +0.000 A 
ATOM     30  N   UNL     1      44.044   2.257   9.726  0.00  0.00    +0.000 NA
ATOM     31  C   UNL     1      44.607   2.445   8.580  0.00  0.00    +0.000 A 
ATOM     32  N   UNL     1      45.359   3.543   8.250  0.00  0.00    +0.000 N 
ATOM     33  C   UNL     1      45.577   4.587   9.117  0.00  0.00    +0.000 A 
ATOM     34  O   UNL     1      46.224   5.571   8.778  0.00  0.00    +0.000 OA
ATOM     35  C   UNL     1      44.971   4.422  10.425  0.00  0.00    +0.000 A 
ATOM     36  H   UNL     1      45.769   3.632   7.333  0.00  0.00    +0.000 HD
ENDBRANCH  23  26
ENDBRANCH  21  22
ENDBRANCH   4  21
TORSDOF 7
ENDMDL
MODEL 7
REMARK VINA RESULT:    -7.578      2.410      3.531
REMARK INTER + INTRA:         -11.463
REMARK INTER:                  -9.964
REMARK INTRA:                  -1.499
REMARK UNBOUND:                -0.784
REMARK  Name = 
REMARK  7 active torsions:
REMARK  status: ('A' for Active; 'I' for Inactive)
REMARK    1  A    between atoms: C_2  and  C_4
REMARK    2  A    between atoms: C_8  and  N_9
REMARK    3  A    between atoms: N_9  and  C_10
REMARK    4  A    between atoms: C_10  and  C_11
REMARK    5  A    between atoms: C_14  and  C_15
REMARK    6  A    between atoms: C_15  and  N_16
REMARK    7  A    between atoms: C_17  and  C_19
REMARK                            x       y       z     vdW  Elec       q    Type
REMARK                         _______ _______ _______ _____ _____    ______ ____
ROOT
ATOM      1  C   UNL     1      45.495   7.877  11.725  0.00  0.00    +0.000 A 
ATOM      2  C   UNL     1      45.648   8.750  12.812  0.00  0.00    +0.000 A 
ATOM      3  C   UNL     1      46.864   8.829  13.503  0.00  0.00    +0.000 A 
ATOM      4  C   UNL     1      47.961   8.052  13.109  0.00  0.00    +0.000 A 
ATOM      5  C   UNL     1      47.808   7.177  12.026  0.00  0.00    +0.000 A 
ATOM      6  C   UNL     1      46.592   7.097  11.335  0.00  0.00    +0.000 A 
ENDROOT
BRANCH   1   7
ATOM      7  C   UNL     1      44.175   7.781  10.986  0.00  0.00    +0.000 C 
BRANCH   7   8
ATOM      8  N   UNL     1      43.261   6.908  11.702  0.00  0.00    +0.000 N 
ATOM      9  H   UNL     1      42.278   7.056  11.493  0.00  0.00    +0.000 HD
BRANCH   8  14
ATOM     10  C   UNL     1      43.992   3.601  10.597  0.00  0.00    +0.000 A 
ATOM     11  C   UNL     1      43.819   2.793  11.711  0.00  0.00    +0.000 A 
ATOM     12  C   UNL     1      43.483   3.411  12.903  0.00  0.00    +0.000 A 
ATOM     13  C   UNL     1      43.317   4.797  12.929  0.00  0.00    +0.000 A 
ATOM     14  C   UNL     1      43.502   5.546  11.767  0.00  0.00    +0.000 A 
ATOM     15  N   UNL     1      43.848   4.961  10.603  0.00  0.00    +0.000 NA
BRANCH  10  17
ATOM     16  N   UNL     1      44.360   3.798   8.207  0.00  0.00    +0.000 N 
ATOM     17  C   UNL     1      44.358   2.965   9.291  0.00  0.00    +0.000 C 
ATOM     18  O   UNL     1      44.646   1.776   9.189  0.00  0.00    +0.000 OA
ATOM     19  H   UNL     1      44.592   3.429   7.297  0.00  0.00    +0.000 HD
ATOM     20  H   UNL     1      44.113   4.774   8.325  0.00  0.00    +0.000 HD
ENDBRANCH  10  17
ENDBRANCH   8  14
ENDBRANCH   7   8
ENDBRANCH   1   7
BRANCH   4  21
ATOM     21  C   UNL     1      49.270   8.127  13.855  0.00  0.00    +0.000 C 
BRANCH  21  22
ATOM     22  N   UNL     1      49.329   7.148  14.912  0.00  0.00    +0.000 N 
ATOM     23  C   UNL     1      49.071   7.488  16.216  0.00  0.00    +0.000 C 
ATOM     24  O   UNL     1      48.735   8.626  16.536  0.00  0.00    +0.000 OA
ATOM     25  H   UNL     1      49.817   6.281  14.709  0.00  0.00    +0.000 HD
BRANCH  23  26
ATOM     26  C   UNL     1      49.157   6.409  17.209  0.00  0.00    +0.000 A 
ATOM     27  C   UNL     1      49.962   6.567  18.330  0.00  0.00    +0.000 A 
ATOM     28  S   UNL     1      49.905   5.246  19.408  0.00  0.00    +0.000 S 
ATOM     29  C   UNL     1      48.841   4.394  18.391  0.00  0.00    +0.000 A 
ATOM     30  N   UNL     1      48.404   3.149  18.724  0.00  0.00    +0.000 NA
ATOM     31  C   UNL     1      47.627   2.605  17.848  0.00  0.00    +0.000 A 
ATOM     32  N   UNL     1      47.245   3.194  16.671  0.00  0.00    +0.000 N 
ATOM     33  C   UNL     1      47.640   4.458  16.304  0.00  0.00    +0.000 A 
ATOM     34  O   UNL     1      47.251   4.969  15.261  0.00  0.00    +0.000 OA
ATOM     35  C   UNL     1      48.523   5.112  17.252  0.00  0.00    +0.000 A 
ATOM     36  H   UNL     1      46.630   2.716  16.030  0.00  0.00    +0.000 HD
ENDBRANCH  23  26
ENDBRANCH  21  22
ENDBRANCH   4  21
TORSDOF 7
ENDMDL
MODEL 8
REMARK VINA RESULT:    -7.401      4.987      6.497
REMARK INTER + INTRA:         -11.214
REMARK INTER:                 -10.402
REMARK INTRA:                  -0.812
REMARK UNBOUND:                -0.784
REMARK  Name = 
REMARK  7 active torsions:
REMARK  status: ('A' for Active; 'I' for Inactive)
REMARK    1  A    between atoms: C_2  and  C_4
REMARK    2  A    between atoms: C_8  and  N_9
REMARK    3  A    between atoms: N_9  and  C_10
REMARK    4  A    between atoms: C_10  and  C_11
REMARK    5  A    between atoms: C_14  and  C_15
REMARK    6  A    between atoms: C_15  and  N_16
REMARK    7  A    between atoms: C_17  and  C_19
REMARK                            x       y       z     vdW  Elec       q    Type
REMARK                         _______ _______ _______ _____ _____    ______ ____
ROOT
ATOM      1  C   UNL     1      45.212   7.424  12.156  0.00  0.00    +0.000 A 
ATOM      2  C   UNL     1      46.531   7.328  12.622  0.00  0.00    +0.000 A 
ATOM      3  C   UNL     1      46.973   6.181  13.294  0.00  0.00    +0.000 A 
ATOM      4  C   UNL     1      46.111   5.096  13.497  0.00  0.00    +0.000 A 
ATOM      5  C   UNL     1      44.792   5.192  13.036  0.00  0.00    +0.000 A 
ATOM      6  C   UNL     1      44.349   6.339  12.365  0.00  0.00    +0.000 A 
ENDROOT
BRANCH   1   7
ATOM      7  C   UNL     1      44.730   8.671  11.442  0.00  0.00    +0.000 C 
BRANCH   7   8
ATOM      8  N   UNL     1      43.361   8.494  10.992  0.00  0.00    +0.000 N 
ATOM      9  H   UNL     1      42.791   7.898  11.584  0.00  0.00    +0.000 HD
BRANCH   8  14
ATOM     10  C   UNL     1      40.521  10.610  10.605  0.00  0.00    +0.000 A 
ATOM     11  C   UNL     1      40.925  11.616   9.741  0.00  0.00    +0.000 A 
ATOM     12  C   UNL     1      42.239  11.596   9.306  0.00  0.00    +0.000 A 
ATOM     13  C   UNL     1      43.084  10.571   9.736  0.00  0.00    +0.000 A 
ATOM     14  C   UNL     1      42.605   9.588  10.603  0.00  0.00    +0.000 A 
ATOM     15  N   UNL     1      41.334   9.605  11.050  0.00  0.00    +0.000 NA
BRANCH  10  17
ATOM     16  N   UNL     1      38.364  11.706  10.779  0.00  0.00    +0.000 N 
ATOM     17  C   UNL     1      39.106  10.603  11.097  0.00  0.00    +0.000 C 
ATOM     18  O   UNL     1      38.630   9.671  11.738  0.00  0.00    +0.000 OA
ATOM     19  H   UNL     1      37.404  11.765  11.087  0.00  0.00    +0.000 HD
ATOM     20  H   UNL     1      38.787  12.461  10.252  0.00  0.00    +0.000 HD
ENDBRANCH  10  17
ENDBRANCH   8  14
ENDBRANCH   7   8
ENDBRANCH   1   7
BRANCH   4  21
ATOM     21  C   UNL     1      46.579   3.861  14.228  0.00  0.00    +0.000 C 
BRANCH  21  22
ATOM     22  N   UNL     1      47.664   4.163  15.128  0.00  0.00    +0.000 N 
ATOM     23  C   UNL     1      47.564   3.922  16.476  0.00  0.00    +0.000 C 
ATOM     24  O   UNL     1      46.569   3.397  16.969  0.00  0.00    +0.000 OA
ATOM     25  H   UNL     1      48.384   4.793  14.786  0.00  0.00    +0.000 HD
BRANCH  23  26
ATOM     26  C   UNL     1      48.733   4.265  17.296  0.00  0.00    +0.000 A 
ATOM     27  C   UNL     1      48.749   5.459  18.006  0.00  0.00    +0.000 A 
ATOM     28  S   UNL     1      50.153   5.678  18.950  0.00  0.00    +0.000 S 
ATOM     29  C   UNL     1      50.812   4.208  18.406  0.00  0.00    +0.000 A 
ATOM     30  N   UNL     1      52.039   3.794  18.825  0.00  0.00    +0.000 NA
ATOM     31  C   UNL     1      52.430   2.678  18.310  0.00  0.00    +0.000 A 
ATOM     32  N   UNL     1      51.705   1.933  17.416  0.00  0.00    +0.000 N 
ATOM     33  C   UNL     1      50.452   2.297  16.983  0.00  0.00    +0.000 A 
ATOM     34  O   UNL     1      49.816   1.591  16.211  0.00  0.00    +0.000 OA
ATOM     35  C   UNL     1      49.967   3.552  17.527  0.00  0.00    +0.000 A 
ATOM     36  H   UNL     1      52.067   1.064  17.054  0.00  0.00    +0.000 HD
ENDBRANCH  23  26
ENDBRANCH  21  22
ENDBRANCH   4  21
TORSDOF 7
ENDMDL
MODEL 9
REMARK VINA RESULT:    -7.294      3.787      8.369
REMARK INTER + INTRA:         -11.063
REMARK INTER:                  -9.107
REMARK INTRA:                  -1.956
REMARK UNBOUND:                -0.784
REMARK  Name = 
REMARK  7 active torsions:
REMARK  status: ('A' for Active; 'I' for Inactive)
REMARK    1  A    between atoms: C_2  and  C_4
REMARK    2  A    between atoms: C_8  and  N_9
REMARK    3  A    between atoms: N_9  and  C_10
REMARK    4  A    between atoms: C_10  and  C_11
REMARK    5  A    between atoms: C_14  and  C_15
REMARK    6  A    between atoms: C_15  and  N_16
REMARK    7  A    between atoms: C_17  and  C_19
REMARK                            x       y       z     vdW  Elec       q    Type
REMARK                         _______ _______ _______ _____ _____    ______ ____
ROOT
ATOM      1  C   UNL     1      50.827   7.351  17.905  0.00  0.00    +0.000 A 
ATOM      2  C   UNL     1      51.143   7.415  16.540  0.00  0.00    +0.000 A 
ATOM      3  C   UNL     1      50.306   8.087  15.641  0.00  0.00    +0.000 A 
ATOM      4  C   UNL     1      49.145   8.729  16.089  0.00  0.00    +0.000 A 
ATOM      5  C   UNL     1      48.826   8.662  17.452  0.00  0.00    +0.000 A 
ATOM      6  C   UNL     1      49.662   7.990  18.352  0.00  0.00    +0.000 A 
ENDROOT
BRANCH   1   7
ATOM      7  C   UNL     1      51.726   6.611  18.876  0.00  0.00    +0.000 C 
BRANCH   7   8
ATOM      8  N   UNL     1      51.062   5.414  19.362  0.00  0.00    +0.000 N 
ATOM      9  H   UNL     1      50.171   5.577  19.821  0.00  0.00    +0.000 HD
BRANCH   8  14
ATOM     10  C   UNL     1      49.540   2.965  17.269  0.00  0.00    +0.000 A 
ATOM     11  C   UNL     1      50.516   2.004  17.056  0.00  0.00    +0.000 A 
ATOM     12  C   UNL     1      51.764   2.224  17.614  0.00  0.00    +0.000 A 
ATOM     13  C   UNL     1      51.978   3.378  18.371  0.00  0.00    +0.000 A 
ATOM     14  C   UNL     1      50.946   4.300  18.548  0.00  0.00    +0.000 A 
ATOM     15  N   UNL     1      49.732   4.109  17.994  0.00  0.00    +0.000 NA
BRANCH  10  17
ATOM     16  N   UNL     1      47.127   3.008  17.514  0.00  0.00    +0.000 N 
ATOM     17  C   UNL     1      48.180   2.760  16.677  0.00  0.00    +0.000 C 
ATOM     18  O   UNL     1      48.008   2.399  15.517  0.00  0.00    +0.000 OA
ATOM     19  H   UNL     1      46.184   2.882  17.177  0.00  0.00    +0.000 HD
ATOM     20  H   UNL     1      47.303   3.301  18.467  0.00  0.00    +0.000 HD
ENDBRANCH  10  17
ENDBRANCH   8  14
ENDBRANCH   7   8
ENDBRANCH   1   7
BRANCH   4  21
ATOM     21  C   UNL     1      48.235   9.447  15.124  0.00  0.00    +0.000 C 
BRANCH  21  22
ATOM     22  N   UNL     1      47.292   8.541  14.517  0.00  0.00    +0.000 N 
ATOM     23  C   UNL     1      47.176   8.439  13.153  0.00  0.00    +0.000 C 
ATOM     24  O   UNL     1      47.897   9.078  12.390  0.00  0.00    +0.000 OA
ATOM     25  H   UNL     1      46.548   8.186  15.109  0.00  0.00    +0.000 HD
BRANCH  23  26
ATOM     26  C   UNL     1      46.185   7.480  12.645  0.00  0.00    +0.000 A 
ATOM     27  C   UNL     1      45.106   7.936  11.899  0.00  0.00    +0.000 A 
ATOM     28  S   UNL     1      44.084   6.690  11.339  0.00  0.00    +0.000 S 
ATOM     29  C   UNL     1      45.019   5.501  12.116  0.00  0.00    +0.000 A 
ATOM     30  N   UNL     1      44.673   4.187  12.052  0.00  0.00    +0.000 NA
ATOM     31  C   UNL     1      45.451   3.397  12.711  0.00  0.00    +0.000 A 
ATOM     32  N   UNL     1      46.549   3.801  13.427  0.00  0.00    +0.000 N 
ATOM     33  C   UNL     1      46.952   5.112  13.500  0.00  0.00    +0.000 A 
ATOM     34  O   UNL     1      47.959   5.435  14.119  0.00  0.00    +0.000 OA
ATOM     35  C   UNL     1      46.104   6.045  12.781  0.00  0.00    +0.000 A 
ATOM     36  H   UNL     1      47.120   3.130  13.918  0.00  0.00    +0.000 HD
ENDBRANCH  23  26
ENDBRANCH  21  22
ENDBRANCH   4  21
TORSDOF 7
ENDMDL
