MODEL 1
REMARK VINA RESULT:    -8.495      0.000      0.000
REMARK INTER + INTRA:         -13.058
REMARK INTER:                 -12.219
REMARK INTRA:                  -0.838
REMARK UNBOUND:                -0.838
REMARK  Name = 
REMARK  9 active torsions:
REMARK  status: ('A' for Active; 'I' for Inactive)
REMARK    1  A    between atoms: C_1  and  C_2
REMARK    2  A    between atoms: C_6  and  C_7
REMARK    3  A    between atoms: C_7  and  N_8
REMARK    4  A    between atoms: N_8  and  C_9
REMARK    5  A    between atoms: C_9  and  C_10
REMARK    6  A    between atoms: C_13  and  C_14
REMARK    7  A    between atoms: C_14  and  N_15
REMARK    8  A    between atoms: C_16  and  C_18
REMARK    9  A    between atoms: C_25  and  O_26
REMARK                            x       y       z     vdW  Elec       q    Type
REMARK                         _______ _______ _______ _____ _____    ______ ____
ROOT
ATOM      1  C   UNL     1      44.283   6.378  11.693  0.00  0.00    +0.000 A 
ATOM      2  C   UNL     1      45.176   5.752  12.576  0.00  0.00    +0.000 A 
ATOM      3  C   UNL     1      46.197   6.479  13.195  0.00  0.00    +0.000 A 
ATOM      4  C   UNL     1      46.344   7.850  12.947  0.00  0.00    +0.000 A 
ATOM      5  C   UNL     1      45.476   8.468  12.035  0.00  0.00    +0.000 A 
ATOM      6  C   UNL     1      44.454   7.741  11.419  0.00  0.00    +0.000 A 
ENDROOT
BRANCH   1   7
ATOM      7  C   UNL     1      43.150   5.602  11.063  0.00  0.00    +0.000 C 
BRANCH   7   8
ATOM      8  N   UNL     1      43.521   4.933   9.815  0.00  0.00    +0.000 NA
ATOM      9  H   UNL     1      42.702   4.871   9.213  0.00  0.00    +0.000 HD
BRANCH   8  10
ATOM     10  C   UNL     1      44.029   3.576  10.031  0.00  0.00    +0.000 C 
BRANCH  10  16
ATOM     11  C   UNL     1      46.783   0.105   7.650  0.00  0.00    +0.000 C 
ATOM     12  C   UNL     1      46.417   1.545   7.844  0.00  0.00    +0.000 A 
ATOM     13  C   UNL     1      47.027   2.556   7.096  0.00  0.00    +0.000 A 
ATOM     14  C   UNL     1      46.674   3.892   7.297  0.00  0.00    +0.000 A 
ATOM     15  C   UNL     1      45.710   4.230   8.248  0.00  0.00    +0.000 A 
ATOM     16  C   UNL     1      45.090   3.235   9.009  0.00  0.00    +0.000 A 
ATOM     17  C   UNL     1      45.445   1.893   8.793  0.00  0.00    +0.000 A 
ENDBRANCH  10  16
ENDBRANCH   8  10
ENDBRANCH   7   8
ENDBRANCH   1   7
BRANCH   4  18
ATOM     18  C   UNL     1      47.437   8.640  13.620  0.00  0.00    +0.000 C 
BRANCH  18  19
ATOM     19  N   UNL     1      47.788   8.058  14.889  0.00  0.00    +0.000 N 
ATOM     20  C   UNL     1      48.806   7.147  15.007  0.00  0.00    +0.000 C 
ATOM     21  O   UNL     1      49.587   6.898  14.095  0.00  0.00    +0.000 OA
ATOM     22  H   UNL     1      47.116   8.149  15.640  0.00  0.00    +0.000 HD
BRANCH  20  23
ATOM     23  C   UNL     1      48.934   6.523  16.326  0.00  0.00    +0.000 A 
ATOM     24  C   UNL     1      49.592   7.173  17.359  0.00  0.00    +0.000 A 
ATOM     25  S   UNL     1      49.560   6.302  18.827  0.00  0.00    +0.000 S 
ATOM     26  C   UNL     1      48.726   5.009  18.102  0.00  0.00    +0.000 A 
ATOM     27  N   UNL     1      48.393   3.921  18.819  0.00  0.00    +0.000 NA
ATOM     28  C   UNL     1      47.773   2.990  18.087  0.00  0.00    +0.000 A 
ATOM     29  N   UNL     1      47.485   3.037  16.779  0.00  0.00    +0.000 NA
ATOM     30  C   UNL     1      47.841   4.146  16.129  0.00  0.00    +0.000 A 
ATOM     31  C   UNL     1      48.469   5.221  16.756  0.00  0.00    +0.000 A 
BRANCH  30  32
ATOM     32  O   UNL     1      47.527   4.135  14.801  0.00  0.00    +0.000 OA
ATOM     33  H   UNL     1      48.270   3.616  14.441  0.00  0.00    +0.000 HD
ENDBRANCH  30  32
ENDBRANCH  20  23
ENDBRANCH  18  19
ENDBRANCH   4  18
TORSDOF 8
ENDMDL
MODEL 2
REMARK VINA RESULT:    -8.386      1.715      2.117
REMARK INTER + INTRA:         -12.901
REMARK INTER:                 -11.590
REMARK INTRA:                  -1.311
REMARK UNBOUND:                -0.838
REMARK  Name = 
REMARK  9 active torsions:
REMARK  status: ('A' for Active; 'I' for Inactive)
REMARK    1  A    between atoms: C_1  and  C_2
REMARK    2  A    between atoms: C_6  and  C_7
REMARK    3  A    between atoms: C_7  and  N_8
REMARK    4  A    between atoms: N_8  and  C_9
REMARK    5  A    between atoms: C_9  and  C_10
REMARK    6  A    between atoms: C_13  and  C_14
REMARK    7  A    between atoms: C_14  and  N_15
REMARK    8  A    between atoms: C_16  and  C_18
REMARK    9  A    between atoms: C_25  and  O_26
REMARK                            x       y       z     vdW  Elec       q    Type
REMARK                         _______ _______ _______ _____ _____    ______ ____
ROOT
ATOM      1  C   UNL     1      44.795   5.727  11.951  0.00  0.00    +0.000 A 
ATOM      2  C   UNL     1      45.124   5.067  13.145  0.00  0.00    +0.000 A 
ATOM      3  C   UNL     1      46.337   5.321  13.790  0.00  0.00    +0.000 A 
ATOM      4  C   UNL     1      47.246   6.244  13.257  0.00  0.00    +0.000 A 
ATOM      5  C   UNL     1      46.936   6.875  12.044  0.00  0.00    +0.000 A 
ATOM      6  C   UNL     1      45.721   6.623  11.401  0.00  0.00    +0.000 A 
ENDROOT
BRANCH   1   7
ATOM      7  C   UNL     1      43.461   5.489  11.281  0.00  0.00    +0.000 C 
BRANCH   7   8
ATOM      8  N   UNL     1      43.575   4.890   9.950  0.00  0.00    +0.000 NA
ATOM      9  H   UNL     1      42.678   4.964   9.472  0.00  0.00    +0.000 HD
BRANCH   8  10
ATOM     10  C   UNL     1      43.948   3.474   9.997  0.00  0.00    +0.000 C 
BRANCH  10  16
ATOM     11  C   UNL     1      46.848   0.118   7.624  0.00  0.00    +0.000 C 
ATOM     12  C   UNL     1      46.451   1.546   7.846  0.00  0.00    +0.000 A 
ATOM     13  C   UNL     1      47.074   2.588   7.154  0.00  0.00    +0.000 A 
ATOM     14  C   UNL     1      46.693   3.912   7.381  0.00  0.00    +0.000 A 
ATOM     15  C   UNL     1      45.687   4.207   8.303  0.00  0.00    +0.000 A 
ATOM     16  C   UNL     1      45.053   3.180   9.009  0.00  0.00    +0.000 A 
ATOM     17  C   UNL     1      45.437   1.851   8.766  0.00  0.00    +0.000 A 
ENDBRANCH  10  16
ENDBRANCH   8  10
ENDBRANCH   7   8
ENDBRANCH   1   7
BRANCH   4  18
ATOM     18  C   UNL     1      48.552   6.528  13.955  0.00  0.00    +0.000 C 
BRANCH  18  19
ATOM     19  N   UNL     1      48.328   6.991  15.300  0.00  0.00    +0.000 N 
ATOM     20  C   UNL     1      49.013   6.467  16.367  0.00  0.00    +0.000 C 
ATOM     21  O   UNL     1      49.968   5.708  16.237  0.00  0.00    +0.000 OA
ATOM     22  H   UNL     1      47.489   7.531  15.468  0.00  0.00    +0.000 HD
BRANCH  20  23
ATOM     23  C   UNL     1      48.558   6.920  17.682  0.00  0.00    +0.000 A 
ATOM     24  C   UNL     1      48.135   8.226  17.877  0.00  0.00    +0.000 A 
ATOM     25  S   UNL     1      47.579   8.521  19.464  0.00  0.00    +0.000 S 
ATOM     26  C   UNL     1      47.953   6.933  19.945  0.00  0.00    +0.000 A 
ATOM     27  N   UNL     1      47.726   6.529  21.208  0.00  0.00    +0.000 NA
ATOM     28  C   UNL     1      48.107   5.266  21.423  0.00  0.00    +0.000 A 
ATOM     29  N   UNL     1      48.675   4.424  20.548  0.00  0.00    +0.000 NA
ATOM     30  C   UNL     1      48.869   4.888  19.313  0.00  0.00    +0.000 A 
ATOM     31  C   UNL     1      48.498   6.174  18.921  0.00  0.00    +0.000 A 
BRANCH  30  32
ATOM     32  O   UNL     1      49.453   3.990  18.469  0.00  0.00    +0.000 OA
ATOM     33  H   UNL     1      49.081   4.273  17.613  0.00  0.00    +0.000 HD
ENDBRANCH  30  32
ENDBRANCH  20  23
ENDBRANCH  18  19
ENDBRANCH   4  18
TORSDOF 8
ENDMDL
MODEL 3
REMARK VINA RESULT:    -7.834      2.953      7.987
REMARK INTER + INTRA:         -12.108
REMARK INTER:                 -10.319
REMARK INTRA:                  -1.789
REMARK UNBOUND:                -0.838
REMARK  Name = 
REMARK  9 active torsions:
REMARK  status: ('A' for Active; 'I' for Inactive)
REMARK    1  A    between atoms: C_1  and  C_2
REMARK    2  A    between atoms: C_6  and  C_7
REMARK    3  A    between atoms: C_7  and  N_8
REMARK    4  A    between atoms: N_8  and  C_9
REMARK    5  A    between atoms: C_9  and  C_10
REMARK    6  A    between atoms: C_13  and  C_14
REMARK    7  A    between atoms: C_14  and  N_15
REMARK    8  A    between atoms: C_16  and  C_18
REMARK    9  A    between atoms: C_25  and  O_26
REMARK                            x       y       z     vdW  Elec       q    Type
REMARK                         _______ _______ _______ _____ _____    ______ ____
ROOT
ATOM      1  C   UNL     1      48.867   7.918  16.130  0.00  0.00    +0.000 A 
ATOM      2  C   UNL     1      48.886   6.737  15.372  0.00  0.00    +0.000 A 
ATOM      3  C   UNL     1      48.429   6.728  14.052  0.00  0.00    +0.000 A 
ATOM      4  C   UNL     1      47.947   7.902  13.459  0.00  0.00    +0.000 A 
ATOM      5  C   UNL     1      47.891   9.074  14.227  0.00  0.00    +0.000 A 
ATOM      6  C   UNL     1      48.351   9.083  15.547  0.00  0.00    +0.000 A 
ENDROOT
BRANCH   1   7
ATOM      7  C   UNL     1      49.408   7.938  17.542  0.00  0.00    +0.000 C 
BRANCH   7   8
ATOM      8  N   UNL     1      48.449   7.464  18.541  0.00  0.00    +0.000 NA
ATOM      9  H   UNL     1      48.291   8.199  19.228  0.00  0.00    +0.000 HD
BRANCH   8  10
ATOM     10  C   UNL     1      48.919   6.272  19.253  0.00  0.00    +0.000 C 
BRANCH  10  16
ATOM     11  C   UNL     1      50.646   2.039  17.155  0.00  0.00    +0.000 C 
ATOM     12  C   UNL     1      49.499   2.963  17.429  0.00  0.00    +0.000 A 
ATOM     13  C   UNL     1      48.214   2.685  16.955  0.00  0.00    +0.000 A 
ATOM     14  C   UNL     1      47.160   3.563  17.218  0.00  0.00    +0.000 A 
ATOM     15  C   UNL     1      47.382   4.727  17.954  0.00  0.00    +0.000 A 
ATOM     16  C   UNL     1      48.660   5.026  18.436  0.00  0.00    +0.000 A 
ATOM     17  C   UNL     1      49.711   4.132  18.174  0.00  0.00    +0.000 A 
ENDBRANCH  10  16
ENDBRANCH   8  10
ENDBRANCH   7   8
ENDBRANCH   1   7
BRANCH   4  18
ATOM     18  C   UNL     1      47.462   7.899  12.031  0.00  0.00    +0.000 C 
BRANCH  18  19
ATOM     19  N   UNL     1      46.760   6.680  11.727  0.00  0.00    +0.000 N 
ATOM     20  C   UNL     1      45.399   6.577  11.866  0.00  0.00    +0.000 C 
ATOM     21  O   UNL     1      44.678   7.544  12.086  0.00  0.00    +0.000 OA
ATOM     22  H   UNL     1      47.314   5.837  11.646  0.00  0.00    +0.000 HD
BRANCH  20  23
ATOM     23  C   UNL     1      44.854   5.232  11.679  0.00  0.00    +0.000 A 
ATOM     24  C   UNL     1      44.261   4.552  12.732  0.00  0.00    +0.000 A 
ATOM     25  S   UNL     1      43.628   3.033  12.278  0.00  0.00    +0.000 S 
ATOM     26  C   UNL     1      44.190   3.217  10.683  0.00  0.00    +0.000 A 
ATOM     27  N   UNL     1      43.983   2.254   9.769  0.00  0.00    +0.000 NA
ATOM     28  C   UNL     1      44.517   2.546   8.578  0.00  0.00    +0.000 A 
ATOM     29  N   UNL     1      45.213   3.643   8.243  0.00  0.00    +0.000 NA
ATOM     30  C   UNL     1      45.379   4.559   9.197  0.00  0.00    +0.000 A 
ATOM     31  C   UNL     1      44.856   4.417  10.482  0.00  0.00    +0.000 A 
BRANCH  30  32
ATOM     32  O   UNL     1      46.096   5.649   8.800  0.00  0.00    +0.000 OA
ATOM     33  H   UNL     1      46.808   5.654   9.467  0.00  0.00    +0.000 HD
ENDBRANCH  30  32
ENDBRANCH  20  23
ENDBRANCH  18  19
ENDBRANCH   4  18
TORSDOF 8
ENDMDL
MODEL 4
REMARK VINA RESULT:    -7.604      3.377      7.816
REMARK INTER + INTRA:         -11.776
REMARK INTER:                  -9.502
REMARK INTRA:                  -2.275
REMARK UNBOUND:                -0.838
REMARK  Name = 
REMARK  9 active torsions:
REMARK  status: ('A' for Active; 'I' for Inactive)
REMARK    1  A    between atoms: C_1  and  C_2
REMARK    2  A    between atoms: C_6  and  C_7
REMARK    3  A    between atoms: C_7  and  N_8
REMARK    4  A    between atoms: N_8  and  C_9
REMARK    5  A    between atoms: C_9  and  C_10
REMARK    6  A    between atoms: C_13  and  C_14
REMARK    7  A    between atoms: C_14  and  N_15
REMARK    8  A    between atoms: C_16  and  C_18
REMARK    9  A    between atoms: C_25  and  O_26
REMARK                            x       y       z     vdW  Elec       q    Type
REMARK                         _______ _______ _______ _____ _____    ______ ____
ROOT
ATOM      1  C   UNL     1      49.727   7.513  18.217  0.00  0.00    +0.000 A 
ATOM      2  C   UNL     1      48.691   8.201  17.569  0.00  0.00    +0.000 A 
ATOM      3  C   UNL     1      48.617   8.230  16.173  0.00  0.00    +0.000 A 
ATOM      4  C   UNL     1      49.575   7.567  15.397  0.00  0.00    +0.000 A 
ATOM      5  C   UNL     1      50.633   6.912  16.043  0.00  0.00    +0.000 A 
ATOM      6  C   UNL     1      50.705   6.880  17.439  0.00  0.00    +0.000 A 
ENDROOT
BRANCH   1   7
ATOM      7  C   UNL     1      49.779   7.441  19.726  0.00  0.00    +0.000 C 
BRANCH   7   8
ATOM      8  N   UNL     1      49.755   6.073  20.247  0.00  0.00    +0.000 NA
ATOM      9  H   UNL     1      50.420   5.504  19.725  0.00  0.00    +0.000 HD
BRANCH   8  10
ATOM     10  C   UNL     1      48.435   5.448  20.131  0.00  0.00    +0.000 C 
BRANCH  10  16
ATOM     11  C   UNL     1      50.361   1.954  17.068  0.00  0.00    +0.000 C 
ATOM     12  C   UNL     1      49.268   2.931  17.378  0.00  0.00    +0.000 A 
ATOM     13  C   UNL     1      48.174   3.091  16.523  0.00  0.00    +0.000 A 
ATOM     14  C   UNL     1      47.169   4.010  16.829  0.00  0.00    +0.000 A 
ATOM     15  C   UNL     1      47.250   4.781  17.991  0.00  0.00    +0.000 A 
ATOM     16  C   UNL     1      48.337   4.639  18.858  0.00  0.00    +0.000 A 
ATOM     17  C   UNL     1      49.337   3.703  18.546  0.00  0.00    +0.000 A 
ENDBRANCH  10  16
ENDBRANCH   8  10
ENDBRANCH   7   8
ENDBRANCH   1   7
BRANCH   4  18
ATOM     18  C   UNL     1      49.494   7.587  13.891  0.00  0.00    +0.000 C 
BRANCH  18  19
ATOM     19  N   UNL     1      48.132   7.442  13.447  0.00  0.00    +0.000 N 
ATOM     20  C   UNL     1      47.603   6.217  13.132  0.00  0.00    +0.000 C 
ATOM     21  O   UNL     1      48.182   5.161  13.367  0.00  0.00    +0.000 OA
ATOM     22  H   UNL     1      47.655   8.281  13.140  0.00  0.00    +0.000 HD
BRANCH  20  23
ATOM     23  C   UNL     1      46.264   6.250  12.540  0.00  0.00    +0.000 A 
ATOM     24  C   UNL     1      45.726   7.437  12.067  0.00  0.00    +0.000 A 
ATOM     25  S   UNL     1      44.188   7.237  11.352  0.00  0.00    +0.000 S 
ATOM     26  C   UNL     1      44.177   5.576  11.717  0.00  0.00    +0.000 A 
ATOM     27  N   UNL     1      43.127   4.808  11.379  0.00  0.00    +0.000 NA
ATOM     28  C   UNL     1      43.268   3.537  11.768  0.00  0.00    +0.000 A 
ATOM     29  N   UNL     1      44.296   2.998  12.440  0.00  0.00    +0.000 NA
ATOM     30  C   UNL     1      45.306   3.816  12.741  0.00  0.00    +0.000 A 
ATOM     31  C   UNL     1      45.323   5.162  12.378  0.00  0.00    +0.000 A 
BRANCH  30  32
ATOM     32  O   UNL     1      46.320   3.214  13.427  0.00  0.00    +0.000 OA
ATOM     33  H   UNL     1      47.088   3.472  12.883  0.00  0.00    +0.000 HD
ENDBRANCH  30  32
ENDBRANCH  20  23
ENDBRANCH  18  19
ENDBRANCH   4  18
TORSDOF 8
ENDMDL
MODEL 5
REMARK VINA RESULT:    -7.432      2.001      2.664
REMARK INTER + INTRA:         -11.529
REMARK INTER:                 -10.481
REMARK INTRA:                  -1.048
REMARK UNBOUND:                -0.838
REMARK  Name = 
REMARK  9 active torsions:
REMARK  status: ('A' for Active; 'I' for Inactive)
REMARK    1  A    between atoms: C_1  and  C_2
REMARK    2  A    between atoms: C_6  and  C_7
REMARK    3  A    between atoms: C_7  and  N_8
REMARK    4  A    between atoms: N_8  and  C_9
REMARK    5  A    between atoms: C_9  and  C_10
REMARK    6  A    between atoms: C_13  and  C_14
REMARK    7  A    between atoms: C_14  and  N_15
REMARK    8  A    between atoms: C_16  and  C_18
REMARK    9  A    between atoms: C_25  and  O_26
REMARK                            x       y       z     vdW  Elec       q    Type
REMARK                         _______ _______ _______ _____ _____    ______ ____
ROOT
ATOM      1  C   UNL     1      44.726   4.260  11.448  0.00  0.00    +0.000 A 
ATOM      2  C   UNL     1      45.235   3.811  12.676  0.00  0.00    +0.000 A 
ATOM      3  C   UNL     1      46.224   4.536  13.347  0.00  0.00    +0.000 A 
ATOM      4  C   UNL     1      46.721   5.729  12.807  0.00  0.00    +0.000 A 
ATOM      5  C   UNL     1      46.241   6.158  11.561  0.00  0.00    +0.000 A 
ATOM      6  C   UNL     1      45.250   5.434  10.892  0.00  0.00    +0.000 A 
ENDROOT
BRANCH   1   7
ATOM      7  C   UNL     1      43.622   3.502  10.748  0.00  0.00    +0.000 C 
BRANCH   7   8
ATOM      8  N   UNL     1      43.979   3.065   9.397  0.00  0.00    +0.000 NA
ATOM      9  H   UNL     1      43.218   2.505   9.015  0.00  0.00    +0.000 HD
BRANCH   8  10
ATOM     10  C   UNL     1      45.198   2.253   9.370  0.00  0.00    +0.000 C 
BRANCH  10  16
ATOM     11  C   UNL     1      47.401   0.338   5.273  0.00  0.00    +0.000 C 
ATOM     12  C   UNL     1      47.013   1.538   6.083  0.00  0.00    +0.000 A 
ATOM     13  C   UNL     1      47.330   2.832   5.660  0.00  0.00    +0.000 A 
ATOM     14  C   UNL     1      46.963   3.935   6.433  0.00  0.00    +0.000 A 
ATOM     15  C   UNL     1      46.279   3.756   7.637  0.00  0.00    +0.000 A 
ATOM     16  C   UNL     1      45.955   2.470   8.080  0.00  0.00    +0.000 A 
ATOM     17  C   UNL     1      46.320   1.367   7.290  0.00  0.00    +0.000 A 
ENDBRANCH  10  16
ENDBRANCH   8  10
ENDBRANCH   7   8
ENDBRANCH   1   7
BRANCH   4  18
ATOM     18  C   UNL     1      47.781   6.519  13.532  0.00  0.00    +0.000 C 
BRANCH  18  19
ATOM     19  N   UNL     1      47.752   6.245  14.945  0.00  0.00    +0.000 N 
ATOM     20  C   UNL     1      48.890   6.281  15.710  0.00  0.00    +0.000 C 
ATOM     21  O   UNL     1      49.960   6.711  15.292  0.00  0.00    +0.000 OA
ATOM     22  H   UNL     1      46.925   5.789  15.309  0.00  0.00    +0.000 HD
BRANCH  20  23
ATOM     23  C   UNL     1      48.727   5.819  17.090  0.00  0.00    +0.000 A 
ATOM     24  C   UNL     1      48.949   4.492  17.426  0.00  0.00    +0.000 A 
ATOM     25  S   UNL     1      48.775   4.187  19.097  0.00  0.00    +0.000 S 
ATOM     26  C   UNL     1      48.334   5.801  19.399  0.00  0.00    +0.000 A 
ATOM     27  N   UNL     1      48.041   6.208  20.647  0.00  0.00    +0.000 NA
ATOM     28  C   UNL     1      47.684   7.495  20.701  0.00  0.00    +0.000 A 
ATOM     29  N   UNL     1      47.584   8.358  19.679  0.00  0.00    +0.000 NA
ATOM     30  C   UNL     1      47.894   7.890  18.470  0.00  0.00    +0.000 A 
ATOM     31  C   UNL     1      48.313   6.578  18.251  0.00  0.00    +0.000 A 
BRANCH  30  32
ATOM     32  O   UNL     1      47.771   8.810  17.470  0.00  0.00    +0.000 OA
ATOM     33  H   UNL     1      47.382   9.560  17.958  0.00  0.00    +0.000 HD
ENDBRANCH  30  32
ENDBRANCH  20  23
ENDBRANCH  18  19
ENDBRANCH   4  18
TORSDOF 8
ENDMDL
MODEL 6
REMARK VINA RESULT:    -7.326      3.258      7.548
REMARK INTER + INTRA:         -11.377
REMARK INTER:                  -9.502
REMARK INTRA:                  -1.875
REMARK UNBOUND:                -0.838
REMARK  Name = 
REMARK  9 active torsions:
REMARK  status: ('A' for Active; 'I' for Inactive)
REMARK    1  A    between atoms: C_1  and  C_2
REMARK    2  A    between atoms: C_6  and  C_7
REMARK    3  A    between atoms: C_7  and  N_8
REMARK    4  A    between atoms: N_8  and  C_9
REMARK    5  A    between atoms: C_9  and  C_10
REMARK    6  A    between atoms: C_13  and  C_14
REMARK    7  A    between atoms: C_14  and  N_15
REMARK    8  A    between atoms: C_16  and  C_18
REMARK    9  A    between atoms: C_25  and  O_26
REMARK                            x       y       z     vdW  Elec       q    Type
REMARK                         _______ _______ _______ _____ _____    ______ ____
ROOT
ATOM      1  C   UNL     1      48.715   7.793  16.135  0.00  0.00    +0.000 A 
ATOM      2  C   UNL     1      49.138   6.755  15.292  0.00  0.00    +0.000 A 
ATOM      3  C   UNL     1      49.075   6.893  13.902  0.00  0.00    +0.000 A 
ATOM      4  C   UNL     1      48.591   8.075  13.327  0.00  0.00    +0.000 A 
ATOM      5  C   UNL     1      48.132   9.098  14.169  0.00  0.00    +0.000 A 
ATOM      6  C   UNL     1      48.198   8.961  15.558  0.00  0.00    +0.000 A 
ENDROOT
BRANCH   1   7
ATOM      7  C   UNL     1      48.830   7.662  17.637  0.00  0.00    +0.000 C 
BRANCH   7   8
ATOM      8  N   UNL     1      47.622   7.134  18.272  0.00  0.00    +0.000 NA
ATOM      9  H   UNL     1      47.222   7.849  18.877  0.00  0.00    +0.000 HD
BRANCH   8  10
ATOM     10  C   UNL     1      47.887   5.946  19.088  0.00  0.00    +0.000 C 
BRANCH  10  16
ATOM     11  C   UNL     1      51.154   2.441  17.556  0.00  0.00    +0.000 C 
ATOM     12  C   UNL     1      49.784   3.044  17.479  0.00  0.00    +0.000 A 
ATOM     13  C   UNL     1      48.808   2.520  16.628  0.00  0.00    +0.000 A 
ATOM     14  C   UNL     1      47.540   3.101  16.567  0.00  0.00    +0.000 A 
ATOM     15  C   UNL     1      47.237   4.212  17.355  0.00  0.00    +0.000 A 
ATOM     16  C   UNL     1      48.200   4.755  18.211  0.00  0.00    +0.000 A 
ATOM     17  C   UNL     1      49.469   4.157  18.272  0.00  0.00    +0.000 A 
ENDBRANCH  10  16
ENDBRANCH   8  10
ENDBRANCH   7   8
ENDBRANCH   1   7
BRANCH   4  18
ATOM     18  C   UNL     1      48.531   8.232  11.828  0.00  0.00    +0.000 C 
BRANCH  18  19
ATOM     19  N   UNL     1      47.768   7.169  11.229  0.00  0.00    +0.000 N 
ATOM     20  C   UNL     1      46.399   7.128  11.311  0.00  0.00    +0.000 C 
ATOM     21  O   UNL     1      45.730   8.062  11.740  0.00  0.00    +0.000 OA
ATOM     22  H   UNL     1      48.273   6.333  10.961  0.00  0.00    +0.000 HD
BRANCH  20  23
ATOM     23  C   UNL     1      45.781   5.903  10.799  0.00  0.00    +0.000 A 
ATOM     24  C   UNL     1      45.903   5.552   9.463  0.00  0.00    +0.000 A 
ATOM     25  S   UNL     1      45.171   4.053   9.096  0.00  0.00    +0.000 S 
ATOM     26  C   UNL     1      44.617   3.873  10.694  0.00  0.00    +0.000 A 
ATOM     27  N   UNL     1      43.902   2.792  11.052  0.00  0.00    +0.000 NA
ATOM     28  C   UNL     1      43.520   2.826  12.333  0.00  0.00    +0.000 A 
ATOM     29  N   UNL     1      43.760   3.793  13.231  0.00  0.00    +0.000 NA
ATOM     30  C   UNL     1      44.478   4.835  12.810  0.00  0.00    +0.000 A 
ATOM     31  C   UNL     1      44.975   4.934  11.511  0.00  0.00    +0.000 A 
BRANCH  30  32
ATOM     32  O   UNL     1      44.686   5.787  13.764  0.00  0.00    +0.000 OA
ATOM     33  H   UNL     1      44.684   6.596  13.220  0.00  0.00    +0.000 HD
ENDBRANCH  30  32
ENDBRANCH  20  23
ENDBRANCH  18  19
ENDBRANCH   4  18
TORSDOF 8
ENDMDL
MODEL 7
REMARK VINA RESULT:    -6.746      3.586      8.871
REMARK INTER + INTRA:         -10.542
REMARK INTER:                  -9.078
REMARK INTRA:                  -1.464
REMARK UNBOUND:                -0.838
REMARK  Name = 
REMARK  9 active torsions:
REMARK  status: ('A' for Active; 'I' for Inactive)
REMARK    1  A    between atoms: C_1  and  C_2
REMARK    2  A    between atoms: C_6  and  C_7
REMARK    3  A    between atoms: C_7  and  N_8
REMARK    4  A    between atoms: N_8  and  C_9
REMARK    5  A    between atoms: C_9  and  C_10
REMARK    6  A    between atoms: C_13  and  C_14
REMARK    7  A    between atoms: C_14  and  N_15
REMARK    8  A    between atoms: C_16  and  C_18
REMARK    9  A    between atoms: C_25  and  O_26
REMARK                            x       y       z     vdW  Elec       q    Type
REMARK                         _______ _______ _______ _____ _____    ______ ____
ROOT
ATOM      1  C   UNL     1      51.485   3.600  17.765  0.00  0.00    +0.000 A 
ATOM      2  C   UNL     1      50.885   2.394  17.372  0.00  0.00    +0.000 A 
ATOM      3  C   UNL     1      49.509   2.322  17.139  0.00  0.00    +0.000 A 
ATOM      4  C   UNL     1      48.703   3.458  17.290  0.00  0.00    +0.000 A 
ATOM      5  C   UNL     1      49.295   4.654  17.721  0.00  0.00    +0.000 A 
ATOM      6  C   UNL     1      50.671   4.726  17.951  0.00  0.00    +0.000 A 
ENDROOT
BRANCH   1   7
ATOM      7  C   UNL     1      52.980   3.688  17.968  0.00  0.00    +0.000 C 
BRANCH   7   8
ATOM      8  N   UNL     1      53.452   5.044  18.255  0.00  0.00    +0.000 NA
ATOM      9  H   UNL     1      52.650   5.669  18.326  0.00  0.00    +0.000 HD
BRANCH   8  10
ATOM     10  C   UNL     1      54.342   5.563  17.213  0.00  0.00    +0.000 C 
BRANCH  10  16
ATOM     11  C   UNL     1      50.801   7.990  14.589  0.00  0.00    +0.000 C 
ATOM     12  C   UNL     1      52.072   8.035  15.382  0.00  0.00    +0.000 A 
ATOM     13  C   UNL     1      52.745   9.239  15.605  0.00  0.00    +0.000 A 
ATOM     14  C   UNL     1      53.931   9.258  16.343  0.00  0.00    +0.000 A 
ATOM     15  C   UNL     1      54.456   8.072  16.860  0.00  0.00    +0.000 A 
ATOM     16  C   UNL     1      53.801   6.856  16.645  0.00  0.00    +0.000 A 
ATOM     17  C   UNL     1      52.603   6.850  15.911  0.00  0.00    +0.000 A 
ENDBRANCH  10  16
ENDBRANCH   8  10
ENDBRANCH   7   8
ENDBRANCH   1   7
BRANCH   4  18
ATOM     18  C   UNL     1      47.219   3.388  17.031  0.00  0.00    +0.000 C 
BRANCH  18  19
ATOM     19  N   UNL     1      46.825   4.343  16.029  0.00  0.00    +0.000 N 
ATOM     20  C   UNL     1      47.030   4.112  14.692  0.00  0.00    +0.000 C 
ATOM     21  O   UNL     1      47.394   3.027  14.252  0.00  0.00    +0.000 OA
ATOM     22  H   UNL     1      46.622   5.284  16.343  0.00  0.00    +0.000 HD
BRANCH  20  23
ATOM     23  C   UNL     1      46.729   5.243  13.812  0.00  0.00    +0.000 A 
ATOM     24  C   UNL     1      47.629   6.286  13.663  0.00  0.00    +0.000 A 
ATOM     25  S   UNL     1      47.113   7.460  12.536  0.00  0.00    +0.000 S 
ATOM     26  C   UNL     1      45.648   6.638  12.272  0.00  0.00    +0.000 A 
ATOM     27  N   UNL     1      44.735   7.125  11.413  0.00  0.00    +0.000 NA
ATOM     28  C   UNL     1      43.631   6.374  11.351  0.00  0.00    +0.000 A 
ATOM     29  N   UNL     1      43.365   5.255  12.040  0.00  0.00    +0.000 NA
ATOM     30  C   UNL     1      44.315   4.826  12.872  0.00  0.00    +0.000 A 
ATOM     31  C   UNL     1      45.536   5.481  13.027  0.00  0.00    +0.000 A 
BRANCH  30  32
ATOM     32  O   UNL     1      43.987   3.687  13.547  0.00  0.00    +0.000 OA
ATOM     33  H   UNL     1      43.195   3.403  13.056  0.00  0.00    +0.000 HD
ENDBRANCH  30  32
ENDBRANCH  20  23
ENDBRANCH  18  19
ENDBRANCH   4  18
TORSDOF 8
ENDMDL
MODEL 8
REMARK VINA RESULT:    -6.567      5.571      7.135
REMARK INTER + INTRA:         -10.285
REMARK INTER:                  -9.212
REMARK INTRA:                  -1.073
REMARK UNBOUND:                -0.838
REMARK  Name = 
REMARK  9 active torsions:
REMARK  status: ('A' for Active; 'I' for Inactive)
REMARK    1  A    between atoms: C_1  and  C_2
REMARK    2  A    between atoms: C_6  and  C_7
REMARK    3  A    between atoms: C_7  and  N_8
REMARK    4  A    between atoms: N_8  and  C_9
REMARK    5  A    between atoms: C_9  and  C_10
REMARK    6  A    between atoms: C_13  and  C_14
REMARK    7  A    between atoms: C_14  and  N_15
REMARK    8  A    between atoms: C_16  and  C_18
REMARK    9  A    between atoms: C_25  and  O_26
REMARK                            x       y       z     vdW  Elec       q    Type
REMARK                         _______ _______ _______ _____ _____    ______ ____
ROOT
ATOM      1  C   UNL     1      47.435   8.335  12.128  0.00  0.00    +0.000 A 
ATOM      2  C   UNL     1      48.497   7.433  11.968  0.00  0.00    +0.000 A 
ATOM      3  C   UNL     1      49.779   7.889  11.645  0.00  0.00    +0.000 A 
ATOM      4  C   UNL     1      50.026   9.257  11.480  0.00  0.00    +0.000 A 
ATOM      5  C   UNL     1      48.957  10.156  11.602  0.00  0.00    +0.000 A 
ATOM      6  C   UNL     1      47.676   9.701  11.928  0.00  0.00    +0.000 A 
ENDROOT
BRANCH   1   7
ATOM      7  C   UNL     1      46.061   7.847  12.526  0.00  0.00    +0.000 C 
BRANCH   7   8
ATOM      8  N   UNL     1      45.825   6.439  12.203  0.00  0.00    +0.000 NA
ATOM      9  H   UNL     1      46.607   6.086  11.654  0.00  0.00    +0.000 HD
BRANCH   8  10
ATOM     10  C   UNL     1      44.598   6.236  11.428  0.00  0.00    +0.000 C 
BRANCH  10  16
ATOM     11  C   UNL     1      46.443   3.864   7.394  0.00  0.00    +0.000 C 
ATOM     12  C   UNL     1      45.606   3.827   8.637  0.00  0.00    +0.000 A 
ATOM     13  C   UNL     1      44.938   2.664   9.027  0.00  0.00    +0.000 A 
ATOM     14  C   UNL     1      44.159   2.653  10.186  0.00  0.00    +0.000 A 
ATOM     15  C   UNL     1      44.040   3.806  10.964  0.00  0.00    +0.000 A 
ATOM     16  C   UNL     1      44.698   4.982  10.590  0.00  0.00    +0.000 A 
ATOM     17  C   UNL     1      45.486   4.979   9.428  0.00  0.00    +0.000 A 
ENDBRANCH  10  16
ENDBRANCH   8  10
ENDBRANCH   7   8
ENDBRANCH   1   7
BRANCH   4  18
ATOM     18  C   UNL     1      51.409   9.754  11.141  0.00  0.00    +0.000 C 
BRANCH  18  19
ATOM     19  N   UNL     1      52.300   8.655  10.874  0.00  0.00    +0.000 N 
ATOM     20  C   UNL     1      52.817   8.434   9.623  0.00  0.00    +0.000 C 
ATOM     21  O   UNL     1      52.701   9.236   8.703  0.00  0.00    +0.000 OA
ATOM     22  H   UNL     1      52.340   7.916  11.564  0.00  0.00    +0.000 HD
BRANCH  20  23
ATOM     23  C   UNL     1      53.571   7.188   9.473  0.00  0.00    +0.000 A 
ATOM     24  C   UNL     1      54.375   6.715  10.499  0.00  0.00    +0.000 A 
ATOM     25  S   UNL     1      55.103   5.213  10.142  0.00  0.00    +0.000 S 
ATOM     26  C   UNL     1      54.417   5.191   8.585  0.00  0.00    +0.000 A 
ATOM     27  N   UNL     1      54.655   4.168   7.746  0.00  0.00    +0.000 NA
ATOM     28  C   UNL     1      54.067   4.327   6.556  0.00  0.00    +0.000 A 
ATOM     29  N   UNL     1      53.319   5.361   6.147  0.00  0.00    +0.000 NA
ATOM     30  C   UNL     1      53.119   6.340   7.031  0.00  0.00    +0.000 A 
ATOM     31  C   UNL     1      53.640   6.309   8.324  0.00  0.00    +0.000 A 
BRANCH  30  32
ATOM     32  O   UNL     1      52.355   7.367   6.558  0.00  0.00    +0.000 OA
ATOM     33  H   UNL     1      53.041   7.948   6.181  0.00  0.00    +0.000 HD
ENDBRANCH  30  32
ENDBRANCH  20  23
ENDBRANCH  18  19
ENDBRANCH   4  18
TORSDOF 8
ENDMDL
MODEL 9
REMARK VINA RESULT:    -6.381      2.154      2.874
REMARK INTER + INTRA:         -10.017
REMARK INTER:                  -8.696
REMARK INTRA:                  -1.321
REMARK UNBOUND:                -0.838
REMARK  Name = 
REMARK  9 active torsions:
REMARK  status: ('A' for Active; 'I' for Inactive)
REMARK    1  A    between atoms: C_1  and  C_2
REMARK    2  A    between atoms: C_6  and  C_7
REMARK    3  A    between atoms: C_7  and  N_8
REMARK    4  A    between atoms: N_8  and  C_9
REMARK    5  A    between atoms: C_9  and  C_10
REMARK    6  A    between atoms: C_13  and  C_14
REMARK    7  A    between atoms: C_14  and  N_15
REMARK    8  A    between atoms: C_16  and  C_18
REMARK    9  A    between atoms: C_25  and  O_26
REMARK                            x       y       z     vdW  Elec       q    Type
REMARK                         _______ _______ _______ _____ _____    ______ ____
ROOT
ATOM      1  C   UNL     1      45.336   5.646  12.365  0.00  0.00    +0.000 A 
ATOM      2  C   UNL     1      46.642   5.708  11.857  0.00  0.00    +0.000 A 
ATOM      3  C   UNL     1      47.355   6.910  11.864  0.00  0.00    +0.000 A 
ATOM      4  C   UNL     1      46.779   8.075  12.386  0.00  0.00    +0.000 A 
ATOM      5  C   UNL     1      45.460   8.023  12.859  0.00  0.00    +0.000 A 
ATOM      6  C   UNL     1      44.748   6.820  12.854  0.00  0.00    +0.000 A 
ENDROOT
BRANCH   1   7
ATOM      7  C   UNL     1      44.584   4.335  12.402  0.00  0.00    +0.000 C 
BRANCH   7   8
ATOM      8  N   UNL     1      43.381   4.328  11.568  0.00  0.00    +0.000 NA
ATOM      9  H   UNL     1      43.026   3.375  11.503  0.00  0.00    +0.000 HD
BRANCH   8  10
ATOM     10  C   UNL     1      43.634   4.812  10.209  0.00  0.00    +0.000 C 
BRANCH  10  16
ATOM     11  C   UNL     1      47.030   3.820   6.631  0.00  0.00    +0.000 C 
ATOM     12  C   UNL     1      46.097   3.321   7.694  0.00  0.00    +0.000 A 
ATOM     13  C   UNL     1      45.972   1.957   7.966  0.00  0.00    +0.000 A 
ATOM     14  C   UNL     1      45.093   1.514   8.957  0.00  0.00    +0.000 A 
ATOM     15  C   UNL     1      44.330   2.430   9.682  0.00  0.00    +0.000 A 
ATOM     16  C   UNL     1      44.437   3.800   9.423  0.00  0.00    +0.000 A 
ATOM     17  C   UNL     1      45.332   4.236   8.431  0.00  0.00    +0.000 A 
ENDBRANCH  10  16
ENDBRANCH   8  10
ENDBRANCH   7   8
ENDBRANCH   1   7
BRANCH   4  18
ATOM     18  C   UNL     1      47.548   9.372  12.405  0.00  0.00    +0.000 C 
BRANCH  18  19
ATOM     19  N   UNL     1      48.319   9.496  13.614  0.00  0.00    +0.000 N 
ATOM     20  C   UNL     1      49.641   9.133  13.667  0.00  0.00    +0.000 C 
ATOM     21  O   UNL     1      50.293   8.848  12.668  0.00  0.00    +0.000 OA
ATOM     22  H   UNL     1      47.806   9.624  14.477  0.00  0.00    +0.000 HD
BRANCH  20  23
ATOM     23  C   UNL     1      50.241   9.162  15.002  0.00  0.00    +0.000 A 
ATOM     24  C   UNL     1      51.327   9.979  15.276  0.00  0.00    +0.000 A 
ATOM     25  S   UNL     1      51.820   9.913  16.909  0.00  0.00    +0.000 S 
ATOM     26  C   UNL     1      50.642   8.741  17.272  0.00  0.00    +0.000 A 
ATOM     27  N   UNL     1      50.532   8.243  18.516  0.00  0.00    +0.000 NA
ATOM     28  C   UNL     1      49.579   7.311  18.618  0.00  0.00    +0.000 A 
ATOM     29  N   UNL     1      48.782   6.848  17.644  0.00  0.00    +0.000 NA
ATOM     30  C   UNL     1      48.942   7.388  16.435  0.00  0.00    +0.000 A 
ATOM     31  C   UNL     1      49.873   8.392  16.172  0.00  0.00    +0.000 A 
BRANCH  30  32
ATOM     32  O   UNL     1      48.108   6.876  15.484  0.00  0.00    +0.000 OA
ATOM     33  H   UNL     1      48.381   5.940  15.485  0.00  0.00    +0.000 HD
ENDBRANCH  30  32
ENDBRANCH  20  23
ENDBRANCH  18  19
ENDBRANCH   4  18
TORSDOF 8
ENDMDL
