MODEL 1
REMARK VINA RESULT:    -6.154      0.000      0.000
REMARK INTER + INTRA:          -8.088
REMARK INTER:                  -7.772
REMARK INTRA:                  -0.315
REMARK UNBOUND:                -0.315
REMARK  Name = 
REMARK  5 active torsions:
REMARK  status: ('A' for Active; 'I' for Inactive)
REMARK    1  A    between atoms: N_1  and  C_2
REMARK    2  A    between atoms: C_2  and  C_3
REMARK    3  A    between atoms: C_7  and  C_8
REMARK    4  A    between atoms: C_9  and  N_10
REMARK    5  A    between atoms: C_14  and  C_15
REMARK                            x       y       z     vdW  Elec       q    Type
REMARK                         _______ _______ _______ _____ _____    ______ ____
ROOT
ATOM      1  N   UNL     1      47.279   3.315  14.605  0.00  0.00    +0.000 N 
ATOM      2  C   UNL     1      46.442   3.771  13.580  0.00  0.00    +0.000 A 
ATOM      3  C   UNL     1      46.295   5.130  13.298  0.00  0.00    +0.000 A 
ATOM      4  C   UNL     1      45.398   5.544  12.316  0.00  0.00    +0.000 A 
ATOM      5  C   UNL     1      44.663   4.598  11.612  0.00  0.00    +0.000 A 
ATOM      6  C   UNL     1      44.894   3.266  11.926  0.00  0.00    +0.000 A 
ATOM      7  N   UNL     1      45.769   2.835  12.878  0.00  0.00    +0.000 NA
ATOM      8  H   UNL     1      47.316   2.302  14.649  0.00  0.00    +0.000 HD
ENDROOT
BRANCH   5   9
ATOM      9  C   UNL     1      43.697   5.063  10.587  0.00  0.00    +0.000 C 
ATOM     10  N   UNL     1      43.858   4.656   9.291  0.00  0.00    +0.000 N 
ATOM     11  O   UNL     1      42.765   5.798  10.883  0.00  0.00    +0.000 OA
ATOM     12  H   UNL     1      44.577   4.041   8.943  0.00  0.00    +0.000 HD
ATOM     13  H   UNL     1      43.172   4.993   8.627  0.00  0.00    +0.000 HD
ENDBRANCH   5   9
BRANCH   1  15
ATOM     14  C   UNL     1      47.289   3.729  17.024  0.00  0.00    +0.000 C 
ATOM     15  C   UNL     1      47.598   4.003  15.746  0.00  0.00    +0.000 C 
BRANCH  14  20
ATOM     16  C   UNL     1      49.556   5.245  19.661  0.00  0.00    +0.000 A 
ATOM     17  C   UNL     1      48.748   6.286  20.142  0.00  0.00    +0.000 A 
ATOM     18  C   UNL     1      47.443   6.438  19.679  0.00  0.00    +0.000 A 
ATOM     19  C   UNL     1      46.943   5.577  18.699  0.00  0.00    +0.000 A 
ATOM     20  C   UNL     1      47.749   4.570  18.145  0.00  0.00    +0.000 A 
ATOM     21  C   UNL     1      49.040   4.390  18.668  0.00  0.00    +0.000 A 
BRANCH  16  22
ATOM     22  C   UNL     1      50.983   5.102  20.134  0.00  0.00    +0.000 C 
BRANCH  22  23
ATOM     23  N   UNL     1      51.679   3.984  19.503  0.00  0.00    +0.000 NA
ATOM     24  H   UNL     1      51.243   3.115  19.804  0.00  0.00    +0.000 HD
ATOM     25  H   UNL     1      52.637   3.958  19.846  0.00  0.00    +0.000 HD
ENDBRANCH  22  23
ENDBRANCH  16  22
ENDBRANCH  14  20
ENDBRANCH   1  15
TORSDOF 5
ENDMDL
MODEL 2
REMARK VINA RESULT:    -6.150      2.436      2.969
REMARK INTER + INTRA:          -8.084
REMARK INTER:                  -7.746
REMARK INTRA:                  -0.338
REMARK UNBOUND:                -0.315
REMARK  Name = 
REMARK  5 active torsions:
REMARK  status: ('A' for Active; 'I' for Inactive)
REMARK    1  A    between atoms: N_1  and  C_2
REMARK    2  A    between atoms: C_2  and  C_3
REMARK    3  A    between atoms: C_7  and  C_8
REMARK    4  A    between atoms: C_9  and  N_10
REMARK    5  A    between atoms: C_14  and  C_15
REMARK                            x       y       z     vdW  Elec       q    Type
REMARK                         _______ _______ _______ _____ _____    ______ ____
ROOT
ATOM      1  N   UNL     1      46.658   3.547  14.423  0.00  0.00    +0.000 N 
ATOM      2  C   UNL     1      46.175   4.634  13.684  0.00  0.00    +0.000 A 
ATOM      3  C   UNL     1      47.024   5.628  13.195  0.00  0.00    +0.000 A 
ATOM      4  C   UNL     1      46.494   6.729  12.526  0.00  0.00    +0.000 A 
ATOM      5  C   UNL     1      45.119   6.824  12.338  0.00  0.00    +0.000 A 
ATOM      6  C   UNL     1      44.348   5.777  12.822  0.00  0.00    +0.000 A 
ATOM      7  N   UNL     1      44.843   4.688  13.475  0.00  0.00    +0.000 NA
ATOM      8  H   UNL     1      45.925   2.889  14.661  0.00  0.00    +0.000 HD
ENDROOT
BRANCH   5   9
ATOM      9  C   UNL     1      44.575   8.016  11.643  0.00  0.00    +0.000 C 
ATOM     10  N   UNL     1      43.370   7.917  11.003  0.00  0.00    +0.000 N 
ATOM     11  O   UNL     1      45.183   9.077  11.636  0.00  0.00    +0.000 OA
ATOM     12  H   UNL     1      42.782   7.101  10.959  0.00  0.00    +0.000 HD
ATOM     13  H   UNL     1      43.035   8.758  10.546  0.00  0.00    +0.000 HD
ENDBRANCH   5   9
BRANCH   1  15
ATOM     14  C   UNL     1      47.894   3.723  16.536  0.00  0.00    +0.000 C 
ATOM     15  C   UNL     1      47.780   3.548  15.210  0.00  0.00    +0.000 C 
BRANCH  14  20
ATOM     16  C   UNL     1      51.277   2.443  17.679  0.00  0.00    +0.000 A 
ATOM     17  C   UNL     1      51.768   3.562  18.368  0.00  0.00    +0.000 A 
ATOM     18  C   UNL     1      50.970   4.691  18.539  0.00  0.00    +0.000 A 
ATOM     19  C   UNL     1      49.687   4.732  17.988  0.00  0.00    +0.000 A 
ATOM     20  C   UNL     1      49.193   3.658  17.232  0.00  0.00    +0.000 A 
ATOM     21  C   UNL     1      49.984   2.503  17.123  0.00  0.00    +0.000 A 
BRANCH  16  22
ATOM     22  C   UNL     1      52.154   1.233  17.460  0.00  0.00    +0.000 C 
BRANCH  22  23
ATOM     23  N   UNL     1      51.695   0.060  18.198  0.00  0.00    +0.000 NA
ATOM     24  H   UNL     1      51.482  -0.682  17.535  0.00  0.00    +0.000 HD
ATOM     25  H   UNL     1      50.819   0.287  18.665  0.00  0.00    +0.000 HD
ENDBRANCH  22  23
ENDBRANCH  16  22
ENDBRANCH  14  20
ENDBRANCH   1  15
TORSDOF 5
ENDMDL
MODEL 3
REMARK VINA RESULT:    -6.120      1.588      2.027
REMARK INTER + INTRA:          -8.045
REMARK INTER:                  -7.704
REMARK INTRA:                  -0.342
REMARK UNBOUND:                -0.315
REMARK  Name = 
REMARK  5 active torsions:
REMARK  status: ('A' for Active; 'I' for Inactive)
REMARK    1  A    between atoms: N_1  and  C_2
REMARK    2  A    between atoms: C_2  and  C_3
REMARK    3  A    between atoms: C_7  and  C_8
REMARK    4  A    between atoms: C_9  and  N_10
REMARK    5  A    between atoms: C_14  and  C_15
REMARK                            x       y       z     vdW  Elec       q    Type
REMARK                         _______ _______ _______ _____ _____    ______ ____
ROOT
ATOM      1  N   UNL     1      47.309   3.298  14.664  0.00  0.00    +0.000 N 
ATOM      2  C   UNL     1      46.482   3.763  13.634  0.00  0.00    +0.000 A 
ATOM      3  C   UNL     1      46.298   5.126  13.396  0.00  0.00    +0.000 A 
ATOM      4  C   UNL     1      45.411   5.546  12.407  0.00  0.00    +0.000 A 
ATOM      5  C   UNL     1      44.724   4.601  11.653  0.00  0.00    +0.000 A 
ATOM      6  C   UNL     1      44.990   3.268  11.927  0.00  0.00    +0.000 A 
ATOM      7  N   UNL     1      45.856   2.832  12.885  0.00  0.00    +0.000 NA
ATOM      8  H   UNL     1      47.378   2.286  14.673  0.00  0.00    +0.000 HD
ENDROOT
BRANCH   5   9
ATOM      9  C   UNL     1      43.767   5.072  10.621  0.00  0.00    +0.000 C 
ATOM     10  N   UNL     1      43.981   4.729   9.314  0.00  0.00    +0.000 N 
ATOM     11  O   UNL     1      42.798   5.754  10.920  0.00  0.00    +0.000 OA
ATOM     12  H   UNL     1      44.735   4.161   8.961  0.00  0.00    +0.000 HD
ATOM     13  H   UNL     1      43.300   5.067   8.645  0.00  0.00    +0.000 HD
ENDBRANCH   5   9
BRANCH   1  15
ATOM     14  C   UNL     1      47.694   3.468  17.082  0.00  0.00    +0.000 C 
ATOM     15  C   UNL     1      47.579   3.955  15.835  0.00  0.00    +0.000 C 
BRANCH  14  20
ATOM     16  C   UNL     1      47.945   6.533  19.303  0.00  0.00    +0.000 A 
ATOM     17  C   UNL     1      48.446   5.967  20.485  0.00  0.00    +0.000 A 
ATOM     18  C   UNL     1      48.785   4.616  20.531  0.00  0.00    +0.000 A 
ATOM     19  C   UNL     1      48.590   3.806  19.410  0.00  0.00    +0.000 A 
ATOM     20  C   UNL     1      48.024   4.325  18.236  0.00  0.00    +0.000 A 
ATOM     21  C   UNL     1      47.747   5.701  18.184  0.00  0.00    +0.000 A 
BRANCH  16  22
ATOM     22  C   UNL     1      47.541   7.988  19.262  0.00  0.00    +0.000 C 
BRANCH  22  23
ATOM     23  N   UNL     1      47.560   8.543  17.912  0.00  0.00    +0.000 NA
ATOM     24  H   UNL     1      46.954   9.360  17.885  0.00  0.00    +0.000 HD
ATOM     25  H   UNL     1      47.154   7.864  17.271  0.00  0.00    +0.000 HD
ENDBRANCH  22  23
ENDBRANCH  16  22
ENDBRANCH  14  20
ENDBRANCH   1  15
TORSDOF 5
ENDMDL
MODEL 4
REMARK VINA RESULT:    -6.117      2.375      2.853
REMARK INTER + INTRA:          -8.041
REMARK INTER:                  -7.675
REMARK INTRA:                  -0.366
REMARK UNBOUND:                -0.315
REMARK  Name = 
REMARK  5 active torsions:
REMARK  status: ('A' for Active; 'I' for Inactive)
REMARK    1  A    between atoms: N_1  and  C_2
REMARK    2  A    between atoms: C_2  and  C_3
REMARK    3  A    between atoms: C_7  and  C_8
REMARK    4  A    between atoms: C_9  and  N_10
REMARK    5  A    between atoms: C_14  and  C_15
REMARK                            x       y       z     vdW  Elec       q    Type
REMARK                         _______ _______ _______ _____ _____    ______ ____
ROOT
ATOM      1  N   UNL     1      47.331   6.606  14.034  0.00  0.00    +0.000 N 
ATOM      2  C   UNL     1      46.508   5.927  13.127  0.00  0.00    +0.000 A 
ATOM      3  C   UNL     1      45.988   4.663  13.408  0.00  0.00    +0.000 A 
ATOM      4  C   UNL     1      45.232   3.992  12.448  0.00  0.00    +0.000 A 
ATOM      5  C   UNL     1      44.990   4.595  11.219  0.00  0.00    +0.000 A 
ATOM      6  C   UNL     1      45.511   5.867  11.032  0.00  0.00    +0.000 A 
ATOM      7  N   UNL     1      46.249   6.545  11.956  0.00  0.00    +0.000 NA
ATOM      8  H   UNL     1      47.584   7.531  13.705  0.00  0.00    +0.000 HD
ENDROOT
BRANCH   5   9
ATOM      9  C   UNL     1      44.202   3.853  10.204  0.00  0.00    +0.000 C 
ATOM     10  N   UNL     1      44.054   4.393   8.956  0.00  0.00    +0.000 N 
ATOM     11  O   UNL     1      43.689   2.774  10.465  0.00  0.00    +0.000 OA
ATOM     12  H   UNL     1      44.445   5.263   8.631  0.00  0.00    +0.000 HD
ATOM     13  H   UNL     1      43.513   3.849   8.294  0.00  0.00    +0.000 HD
ENDBRANCH   5   9
BRANCH   1  15
ATOM     14  C   UNL     1      48.603   6.507  16.131  0.00  0.00    +0.000 C 
ATOM     15  C   UNL     1      48.156   6.024  14.960  0.00  0.00    +0.000 C 
BRANCH  14  20
ATOM     16  C   UNL     1      50.486   3.566  17.610  0.00  0.00    +0.000 A 
ATOM     17  C   UNL     1      51.262   4.208  18.586  0.00  0.00    +0.000 A 
ATOM     18  C   UNL     1      51.109   5.572  18.824  0.00  0.00    +0.000 A 
ATOM     19  C   UNL     1      50.208   6.319  18.062  0.00  0.00    +0.000 A 
ATOM     20  C   UNL     1      49.468   5.721  17.030  0.00  0.00    +0.000 A 
ATOM     21  C   UNL     1      49.587   4.334  16.845  0.00  0.00    +0.000 A 
BRANCH  16  22
ATOM     22  C   UNL     1      50.677   2.095  17.325  0.00  0.00    +0.000 C 
BRANCH  22  23
ATOM     23  N   UNL     1      49.877   1.628  16.197  0.00  0.00    +0.000 NA
ATOM     24  H   UNL     1      50.400   0.910  15.699  0.00  0.00    +0.000 HD
ATOM     25  H   UNL     1      49.752   2.397  15.541  0.00  0.00    +0.000 HD
ENDBRANCH  22  23
ENDBRANCH  16  22
ENDBRANCH  14  20
ENDBRANCH   1  15
TORSDOF 5
ENDMDL
MODEL 5
REMARK VINA RESULT:    -5.772      3.176      8.362
REMARK INTER + INTRA:          -7.606
REMARK INTER:                  -7.234
REMARK INTRA:                  -0.372
REMARK UNBOUND:                -0.315
REMARK  Name = 
REMARK  5 active torsions:
REMARK  status: ('A' for Active; 'I' for Inactive)
REMARK    1  A    between atoms: N_1  and  C_2
REMARK    2  A    between atoms: C_2  and  C_3
REMARK    3  A    between atoms: C_7  and  C_8
REMARK    4  A    between atoms: C_9  and  N_10
REMARK    5  A    between atoms: C_14  and  C_15
REMARK                            x       y       z     vdW  Elec       q    Type
REMARK                         _______ _______ _______ _____ _____    ______ ____
ROOT
ATOM      1  N   UNL     1      47.504   3.342  15.267  0.00  0.00    +0.000 N 
ATOM      2  C   UNL     1      47.942   3.610  16.570  0.00  0.00    +0.000 A 
ATOM      3  C   UNL     1      47.277   4.515  17.399  0.00  0.00    +0.000 A 
ATOM      4  C   UNL     1      47.786   4.806  18.663  0.00  0.00    +0.000 A 
ATOM      5  C   UNL     1      48.950   4.180  19.096  0.00  0.00    +0.000 A 
ATOM      6  C   UNL     1      49.530   3.266  18.227  0.00  0.00    +0.000 A 
ATOM      7  N   UNL     1      49.048   2.962  16.990  0.00  0.00    +0.000 NA
ATOM      8  H   UNL     1      48.062   2.626  14.815  0.00  0.00    +0.000 HD
ENDROOT
BRANCH   5   9
ATOM      9  C   UNL     1      49.487   4.522  20.436  0.00  0.00    +0.000 C 
ATOM     10  N   UNL     1      50.841   4.510  20.630  0.00  0.00    +0.000 N 
ATOM     11  O   UNL     1      48.742   4.814  21.361  0.00  0.00    +0.000 OA
ATOM     12  H   UNL     1      51.542   4.301  19.937  0.00  0.00    +0.000 HD
ATOM     13  H   UNL     1      51.163   4.755  21.559  0.00  0.00    +0.000 HD
ENDBRANCH   5   9
BRANCH   1  15
ATOM     14  C   UNL     1      47.272   5.266  13.761  0.00  0.00    +0.000 C 
ATOM     15  C   UNL     1      46.820   4.209  14.457  0.00  0.00    +0.000 C 
BRANCH  14  20
ATOM     16  C   UNL     1      44.290   6.296  11.655  0.00  0.00    +0.000 A 
ATOM     17  C   UNL     1      44.576   7.650  11.430  0.00  0.00    +0.000 A 
ATOM     18  C   UNL     1      45.773   8.203  11.881  0.00  0.00    +0.000 A 
ATOM     19  C   UNL     1      46.679   7.419  12.598  0.00  0.00    +0.000 A 
ATOM     20  C   UNL     1      46.392   6.080  12.902  0.00  0.00    +0.000 A 
ATOM     21  C   UNL     1      45.211   5.520  12.386  0.00  0.00    +0.000 A 
BRANCH  16  22
ATOM     22  C   UNL     1      42.976   5.704  11.201  0.00  0.00    +0.000 C 
BRANCH  22  23
ATOM     23  N   UNL     1      41.821   6.359  11.807  0.00  0.00    +0.000 NA
ATOM     24  H   UNL     1      40.981   5.840  11.555  0.00  0.00    +0.000 HD
ATOM     25  H   UNL     1      41.717   7.286  11.399  0.00  0.00    +0.000 HD
ENDBRANCH  22  23
ENDBRANCH  16  22
ENDBRANCH  14  20
ENDBRANCH   1  15
TORSDOF 5
ENDMDL
MODEL 6
REMARK VINA RESULT:    -5.723      1.939      2.400
REMARK INTER + INTRA:          -7.543
REMARK INTER:                  -7.210
REMARK INTRA:                  -0.333
REMARK UNBOUND:                -0.315
REMARK  Name = 
REMARK  5 active torsions:
REMARK  status: ('A' for Active; 'I' for Inactive)
REMARK    1  A    between atoms: N_1  and  C_2
REMARK    2  A    between atoms: C_2  and  C_3
REMARK    3  A    between atoms: C_7  and  C_8
REMARK    4  A    between atoms: C_9  and  N_10
REMARK    5  A    between atoms: C_14  and  C_15
REMARK                            x       y       z     vdW  Elec       q    Type
REMARK                         _______ _______ _______ _____ _____    ______ ____
ROOT
ATOM      1  N   UNL     1      46.967   3.555  14.817  0.00  0.00    +0.000 N 
ATOM      2  C   UNL     1      46.380   4.506  13.973  0.00  0.00    +0.000 A 
ATOM      3  C   UNL     1      46.995   5.730  13.703  0.00  0.00    +0.000 A 
ATOM      4  C   UNL     1      46.343   6.677  12.915  0.00  0.00    +0.000 A 
ATOM      5  C   UNL     1      45.088   6.390  12.392  0.00  0.00    +0.000 A 
ATOM      6  C   UNL     1      44.562   5.138  12.676  0.00  0.00    +0.000 A 
ATOM      7  N   UNL     1      45.181   4.194  13.439  0.00  0.00    +0.000 NA
ATOM      8  H   UNL     1      46.423   2.701  14.870  0.00  0.00    +0.000 HD
ENDROOT
BRANCH   5   9
ATOM      9  C   UNL     1      44.403   7.422  11.575  0.00  0.00    +0.000 C 
ATOM     10  N   UNL     1      43.169   7.144  11.054  0.00  0.00    +0.000 N 
ATOM     11  O   UNL     1      44.921   8.509  11.364  0.00  0.00    +0.000 OA
ATOM     12  H   UNL     1      42.647   6.291  11.178  0.00  0.00    +0.000 HD
ATOM     13  H   UNL     1      42.737   7.879  10.508  0.00  0.00    +0.000 HD
ENDBRANCH   5   9
BRANCH   1  15
ATOM     14  C   UNL     1      47.594   4.505  16.990  0.00  0.00    +0.000 C 
ATOM     15  C   UNL     1      47.818   3.821  15.857  0.00  0.00    +0.000 C 
BRANCH  14  20
ATOM     16  C   UNL     1      49.196   4.933  20.402  0.00  0.00    +0.000 A 
ATOM     17  C   UNL     1      50.553   4.781  20.082  0.00  0.00    +0.000 A 
ATOM     18  C   UNL     1      50.952   4.630  18.755  0.00  0.00    +0.000 A 
ATOM     19  C   UNL     1      49.997   4.590  17.737  0.00  0.00    +0.000 A 
ATOM     20  C   UNL     1      48.627   4.669  18.030  0.00  0.00    +0.000 A 
ATOM     21  C   UNL     1      48.245   4.883  19.365  0.00  0.00    +0.000 A 
BRANCH  16  22
ATOM     22  C   UNL     1      48.758   5.057  21.842  0.00  0.00    +0.000 C 
BRANCH  22  23
ATOM     23  N   UNL     1      47.314   4.929  22.008  0.00  0.00    +0.000 NA
ATOM     24  H   UNL     1      47.062   3.945  21.942  0.00  0.00    +0.000 HD
ATOM     25  H   UNL     1      46.851   5.395  21.231  0.00  0.00    +0.000 HD
ENDBRANCH  22  23
ENDBRANCH  16  22
ENDBRANCH  14  20
ENDBRANCH   1  15
TORSDOF 5
ENDMDL
MODEL 7
REMARK VINA RESULT:    -5.255      2.835      3.274
REMARK INTER + INTRA:          -6.953
REMARK INTER:                  -6.659
REMARK INTRA:                  -0.294
REMARK UNBOUND:                -0.315
REMARK  Name = 
REMARK  5 active torsions:
REMARK  status: ('A' for Active; 'I' for Inactive)
REMARK    1  A    between atoms: N_1  and  C_2
REMARK    2  A    between atoms: C_2  and  C_3
REMARK    3  A    between atoms: C_7  and  C_8
REMARK    4  A    between atoms: C_9  and  N_10
REMARK    5  A    between atoms: C_14  and  C_15
REMARK                            x       y       z     vdW  Elec       q    Type
REMARK                         _______ _______ _______ _____ _____    ______ ____
ROOT
ATOM      1  N   UNL     1      46.551   5.046  13.203  0.00  0.00    +0.000 N 
ATOM      2  C   UNL     1      45.999   6.225  12.688  0.00  0.00    +0.000 A 
ATOM      3  C   UNL     1      46.506   7.483  13.021  0.00  0.00    +0.000 A 
ATOM      4  C   UNL     1      45.882   8.633  12.543  0.00  0.00    +0.000 A 
ATOM      5  C   UNL     1      44.764   8.520  11.724  0.00  0.00    +0.000 A 
ATOM      6  C   UNL     1      44.345   7.235  11.411  0.00  0.00    +0.000 A 
ATOM      7  N   UNL     1      44.940   6.095  11.861  0.00  0.00    +0.000 NA
ATOM      8  H   UNL     1      46.105   4.218  12.827  0.00  0.00    +0.000 HD
ENDROOT
BRANCH   5   9
ATOM      9  C   UNL     1      44.102   9.759  11.246  0.00  0.00    +0.000 C 
ATOM     10  N   UNL     1      43.501  10.583  12.157  0.00  0.00    +0.000 N 
ATOM     11  O   UNL     1      44.089  10.052  10.059  0.00  0.00    +0.000 OA
ATOM     12  H   UNL     1      43.466  10.447  13.155  0.00  0.00    +0.000 HD
ATOM     13  H   UNL     1      43.067  11.421  11.786  0.00  0.00    +0.000 HD
ENDBRANCH   5   9
BRANCH   1  15
ATOM     14  C   UNL     1      46.915   4.114  15.444  0.00  0.00    +0.000 C 
ATOM     15  C   UNL     1      47.194   4.920  14.406  0.00  0.00    +0.000 C 
BRANCH  14  20
ATOM     16  C   UNL     1      49.809   3.379  17.784  0.00  0.00    +0.000 A 
ATOM     17  C   UNL     1      49.461   4.162  18.894  0.00  0.00    +0.000 A 
ATOM     18  C   UNL     1      48.251   4.853  18.919  0.00  0.00    +0.000 A 
ATOM     19  C   UNL     1      47.393   4.802  17.819  0.00  0.00    +0.000 A 
ATOM     20  C   UNL     1      47.743   4.085  16.664  0.00  0.00    +0.000 A 
ATOM     21  C   UNL     1      48.936   3.343  16.679  0.00  0.00    +0.000 A 
BRANCH  16  22
ATOM     22  C   UNL     1      51.136   2.661  17.739  0.00  0.00    +0.000 C 
BRANCH  22  23
ATOM     23  N   UNL     1      50.995   1.221  17.544  0.00  0.00    +0.000 NA
ATOM     24  H   UNL     1      50.076   0.934  17.876  0.00  0.00    +0.000 HD
ATOM     25  H   UNL     1      51.674   0.741  18.131  0.00  0.00    +0.000 HD
ENDBRANCH  22  23
ENDBRANCH  16  22
ENDBRANCH  14  20
ENDBRANCH   1  15
TORSDOF 5
ENDMDL
MODEL 8
REMARK VINA RESULT:    -5.095      3.396      3.844
REMARK INTER + INTRA:          -6.751
REMARK INTER:                  -6.404
REMARK INTRA:                  -0.347
REMARK UNBOUND:                -0.315
REMARK  Name = 
REMARK  5 active torsions:
REMARK  status: ('A' for Active; 'I' for Inactive)
REMARK    1  A    between atoms: N_1  and  C_2
REMARK    2  A    between atoms: C_2  and  C_3
REMARK    3  A    between atoms: C_7  and  C_8
REMARK    4  A    between atoms: C_9  and  N_10
REMARK    5  A    between atoms: C_14  and  C_15
REMARK                            x       y       z     vdW  Elec       q    Type
REMARK                         _______ _______ _______ _____ _____    ______ ____
ROOT
ATOM      1  N   UNL     1      47.223   7.153  13.878  0.00  0.00    +0.000 N 
ATOM      2  C   UNL     1      46.372   6.239  13.245  0.00  0.00    +0.000 A 
ATOM      3  C   UNL     1      46.347   4.889  13.599  0.00  0.00    +0.000 A 
ATOM      4  C   UNL     1      45.537   4.000  12.896  0.00  0.00    +0.000 A 
ATOM      5  C   UNL     1      44.746   4.468  11.852  0.00  0.00    +0.000 A 
ATOM      6  C   UNL     1      44.800   5.829  11.588  0.00  0.00    +0.000 A 
ATOM      7  N   UNL     1      45.580   6.719  12.264  0.00  0.00    +0.000 NA
ATOM      8  H   UNL     1      47.085   8.100  13.544  0.00  0.00    +0.000 HD
ENDROOT
BRANCH   5   9
ATOM      9  C   UNL     1      43.908   3.500  11.103  0.00  0.00    +0.000 C 
ATOM     10  N   UNL     1      43.465   2.374  11.741  0.00  0.00    +0.000 N 
ATOM     11  O   UNL     1      43.609   3.694   9.933  0.00  0.00    +0.000 OA
ATOM     12  H   UNL     1      43.637   2.125  12.702  0.00  0.00    +0.000 HD
ATOM     13  H   UNL     1      42.891   1.744  11.193  0.00  0.00    +0.000 HD
ENDBRANCH   5   9
BRANCH   1  15
ATOM     14  C   UNL     1      48.797   6.877  15.741  0.00  0.00    +0.000 C 
ATOM     15  C   UNL     1      48.434   6.860  14.448  0.00  0.00    +0.000 C 
BRANCH  14  20
ATOM     16  C   UNL     1      52.578   6.820  16.041  0.00  0.00    +0.000 A 
ATOM     17  C   UNL     1      52.747   5.957  17.133  0.00  0.00    +0.000 A 
ATOM     18  C   UNL     1      51.647   5.326  17.710  0.00  0.00    +0.000 A 
ATOM     19  C   UNL     1      50.361   5.582  17.229  0.00  0.00    +0.000 A 
ATOM     20  C   UNL     1      50.151   6.495  16.185  0.00  0.00    +0.000 A 
ATOM     21  C   UNL     1      51.274   7.074  15.572  0.00  0.00    +0.000 A 
BRANCH  16  22
ATOM     22  C   UNL     1      53.765   7.535  15.439  0.00  0.00    +0.000 C 
BRANCH  22  23
ATOM     23  N   UNL     1      53.795   7.453  13.982  0.00  0.00    +0.000 NA
ATOM     24  H   UNL     1      54.200   8.312  13.613  0.00  0.00    +0.000 HD
ATOM     25  H   UNL     1      52.839   7.416  13.634  0.00  0.00    +0.000 HD
ENDBRANCH  22  23
ENDBRANCH  16  22
ENDBRANCH  14  20
ENDBRANCH   1  15
TORSDOF 5
ENDMDL
MODEL 9
REMARK VINA RESULT:    -5.058      3.119      3.682
REMARK INTER + INTRA:          -6.704
REMARK INTER:                  -6.363
REMARK INTRA:                  -0.341
REMARK UNBOUND:                -0.315
REMARK  Name = 
REMARK  5 active torsions:
REMARK  status: ('A' for Active; 'I' for Inactive)
REMARK    1  A    between atoms: N_1  and  C_2
REMARK    2  A    between atoms: C_2  and  C_3
REMARK    3  A    between atoms: C_7  and  C_8
REMARK    4  A    between atoms: C_9  and  N_10
REMARK    5  A    between atoms: C_14  and  C_15
REMARK                            x       y       z     vdW  Elec       q    Type
REMARK                         _______ _______ _______ _____ _____    ______ ____
ROOT
ATOM      1  N   UNL     1      46.975   7.234  12.628  0.00  0.00    +0.000 N 
ATOM      2  C   UNL     1      46.178   6.149  12.243  0.00  0.00    +0.000 A 
ATOM      3  C   UNL     1      45.800   5.155  13.147  0.00  0.00    +0.000 A 
ATOM      4  C   UNL     1      45.067   4.055  12.706  0.00  0.00    +0.000 A 
ATOM      5  C   UNL     1      44.704   3.962  11.367  0.00  0.00    +0.000 A 
ATOM      6  C   UNL     1      45.087   5.009  10.541  0.00  0.00    +0.000 A 
ATOM      7  N   UNL     1      45.799   6.097  10.949  0.00  0.00    +0.000 NA
ATOM      8  H   UNL     1      47.118   7.893  11.871  0.00  0.00    +0.000 HD
ENDROOT
BRANCH   5   9
ATOM      9  C   UNL     1      43.943   2.771  10.916  0.00  0.00    +0.000 C 
ATOM     10  N   UNL     1      44.394   2.069   9.832  0.00  0.00    +0.000 N 
ATOM     11  O   UNL     1      42.928   2.412  11.495  0.00  0.00    +0.000 OA
ATOM     12  H   UNL     1      45.222   2.267   9.294  0.00  0.00    +0.000 HD
ATOM     13  H   UNL     1      43.846   1.260   9.563  0.00  0.00    +0.000 HD
ENDBRANCH   5   9
BRANCH   1  15
ATOM     14  C   UNL     1      49.229   7.410  13.583  0.00  0.00    +0.000 C 
ATOM     15  C   UNL     1      47.899   7.232  13.640  0.00  0.00    +0.000 C 
BRANCH  14  20
ATOM     16  C   UNL     1      50.628   6.426  16.969  0.00  0.00    +0.000 A 
ATOM     17  C   UNL     1      51.781   7.223  17.024  0.00  0.00    +0.000 A 
ATOM     18  C   UNL     1      52.054   8.140  16.011  0.00  0.00    +0.000 A 
ATOM     19  C   UNL     1      51.200   8.242  14.911  0.00  0.00    +0.000 A 
ATOM     20  C   UNL     1      50.077   7.409  14.790  0.00  0.00    +0.000 A 
ATOM     21  C   UNL     1      49.781   6.536  15.849  0.00  0.00    +0.000 A 
BRANCH  16  22
ATOM     22  C   UNL     1      50.350   5.405  18.046  0.00  0.00    +0.000 C 
BRANCH  22  23
ATOM     23  N   UNL     1      50.970   4.111  17.774  0.00  0.00    +0.000 NA
ATOM     24  H   UNL     1      51.781   4.002  18.379  0.00  0.00    +0.000 HD
ATOM     25  H   UNL     1      51.323   4.110  16.819  0.00  0.00    +0.000 HD
ENDBRANCH  22  23
ENDBRANCH  16  22
ENDBRANCH  14  20
ENDBRANCH   1  15
TORSDOF 5
ENDMDL
