MODEL 1
REMARK VINA RESULT:    -8.363      0.000      0.000
REMARK INTER + INTRA:         -12.494
REMARK INTER:                 -11.297
REMARK INTRA:                  -1.197
REMARK UNBOUND:                -1.197
REMARK  Name = 
REMARK  7 active torsions:
REMARK  status: ('A' for Active; 'I' for Inactive)
REMARK    1  A    between atoms: C_1  and  C_2
REMARK    2  A    between atoms: C_2  and  N_3
REMARK    3  A    between atoms: C_2  and  C_16
REMARK    4  A    between atoms: C_4  and  C_6
REMARK    5  A    between atoms: C_19  and  C_20
REMARK    6  A    between atoms: C_20  and  N_21
REMARK    7  A    between atoms: C_22  and  C_24
REMARK                            x       y       z     vdW  Elec       q    Type
REMARK                         _______ _______ _______ _____ _____    ______ ____
ROOT
ATOM      1  C   UNL     1      47.982   8.390  13.983  0.00  0.00    +0.000 C 
ATOM      2  C   UNL     1      48.185   6.881  14.175  0.00  0.00    +0.000 C 
ENDROOT
BRANCH   2   3
ATOM      3  C   UNL     1      47.188   6.082  13.341  0.00  0.00    +0.000 A 
ATOM      4  C   UNL     1      46.848   4.772  13.708  0.00  0.00    +0.000 A 
ATOM      5  C   UNL     1      45.936   4.026  12.951  0.00  0.00    +0.000 A 
ATOM      6  C   UNL     1      45.344   4.567  11.803  0.00  0.00    +0.000 A 
ATOM      7  C   UNL     1      45.661   5.884  11.447  0.00  0.00    +0.000 A 
ATOM      8  C   UNL     1      46.574   6.630  12.203  0.00  0.00    +0.000 A 
BRANCH   6   9
ATOM      9  C   UNL     1      44.388   3.749  10.970  0.00  0.00    +0.000 C 
BRANCH   9  10
ATOM     10  N   UNL     1      45.071   2.956   9.973  0.00  0.00    +0.000 N 
ATOM     11  C   UNL     1      45.326   3.487   8.722  0.00  0.00    +0.000 C 
ATOM     12  O   UNL     1      44.992   4.618   8.392  0.00  0.00    +0.000 OA
ATOM     13  H   UNL     1      45.567   2.131  10.280  0.00  0.00    +0.000 HD
BRANCH  11  14
ATOM     14  C   UNL     1      46.069   2.614   7.766  0.00  0.00    +0.000 A 
ATOM     15  C   UNL     1      46.386   1.285   8.075  0.00  0.00    +0.000 A 
ATOM     16  C   UNL     1      47.052   0.487   7.140  0.00  0.00    +0.000 A 
ATOM     17  C   UNL     1      47.400   1.010   5.894  0.00  0.00    +0.000 A 
ATOM     18  C   UNL     1      47.079   2.328   5.576  0.00  0.00    +0.000 A 
ATOM     19  C   UNL     1      46.408   3.127   6.506  0.00  0.00    +0.000 A 
ENDBRANCH  11  14
ENDBRANCH   9  10
ENDBRANCH   6   9
ENDBRANCH   2   3
BRANCH   2  20
ATOM     20  N   UNL     1      48.079   6.495  15.573  0.00  0.00    +0.000 N 
ATOM     21  C   UNL     1      49.172   6.181  16.344  0.00  0.00    +0.000 C 
ATOM     22  O   UNL     1      50.323   6.247  15.925  0.00  0.00    +0.000 OA
ATOM     23  H   UNL     1      47.172   6.150  15.871  0.00  0.00    +0.000 HD
BRANCH  21  24
ATOM     24  C   UNL     1      48.896   5.826  17.739  0.00  0.00    +0.000 A 
ATOM     25  C   UNL     1      49.151   4.538  18.189  0.00  0.00    +0.000 A 
ATOM     26  S   UNL     1      48.797   4.309  19.841  0.00  0.00    +0.000 S 
ATOM     27  C   UNL     1      48.242   5.910  19.999  0.00  0.00    +0.000 A 
ATOM     28  N   UNL     1      47.752   6.371  21.181  0.00  0.00    +0.000 NA
ATOM     29  C   UNL     1      47.325   7.590  21.143  0.00  0.00    +0.000 A 
ATOM     30  N   UNL     1      47.357   8.394  20.033  0.00  0.00    +0.000 N 
ATOM     31  C   UNL     1      47.890   7.989  18.833  0.00  0.00    +0.000 A 
ATOM     32  O   UNL     1      47.978   8.757  17.881  0.00  0.00    +0.000 OA
ATOM     33  C   UNL     1      48.352   6.616  18.814  0.00  0.00    +0.000 A 
ATOM     34  H   UNL     1      47.021   9.345  20.073  0.00  0.00    +0.000 HD
ENDBRANCH  21  24
ENDBRANCH   2  20
TORSDOF 6
ENDMDL
MODEL 2
REMARK VINA RESULT:    -8.323      1.403      2.193
REMARK INTER + INTRA:         -12.440
REMARK INTER:                 -11.435
REMARK INTRA:                  -1.005
REMARK UNBOUND:                -1.197
REMARK  Name = 
REMARK  7 active torsions:
REMARK  status: ('A' for Active; 'I' for Inactive)
REMARK    1  A    between atoms: C_1  and  C_2
REMARK    2  A    between atoms: C_2  and  N_3
REMARK    3  A    between atoms: C_2  and  C_16
REMARK    4  A    between atoms: C_4  and  C_6
REMARK    5  A    between atoms: C_19  and  C_20
REMARK    6  A    between atoms: C_20  and  N_21
REMARK    7  A    between atoms: C_22  and  C_24
REMARK                            x       y       z     vdW  Elec       q    Type
REMARK                         _______ _______ _______ _____ _____    ______ ____
ROOT
ATOM      1  C   UNL     1      47.265   9.106  13.204  0.00  0.00    +0.000 C 
ATOM      2  C   UNL     1      47.772   7.709  13.584  0.00  0.00    +0.000 C 
ENDROOT
BRANCH   2   3
ATOM      3  C   UNL     1      46.908   6.621  12.954  0.00  0.00    +0.000 A 
ATOM      4  C   UNL     1      46.918   5.319  13.475  0.00  0.00    +0.000 A 
ATOM      5  C   UNL     1      46.131   4.309  12.906  0.00  0.00    +0.000 A 
ATOM      6  C   UNL     1      45.316   4.573  11.798  0.00  0.00    +0.000 A 
ATOM      7  C   UNL     1      45.284   5.878  11.290  0.00  0.00    +0.000 A 
ATOM      8  C   UNL     1      46.072   6.888  11.857  0.00  0.00    +0.000 A 
BRANCH   6   9
ATOM      9  C   UNL     1      44.496   3.476  11.165  0.00  0.00    +0.000 C 
BRANCH   9  10
ATOM     10  N   UNL     1      45.208   2.802  10.103  0.00  0.00    +0.000 N 
ATOM     11  C   UNL     1      45.119   3.268   8.805  0.00  0.00    +0.000 C 
ATOM     12  O   UNL     1      44.446   4.241   8.486  0.00  0.00    +0.000 OA
ATOM     13  H   UNL     1      45.949   2.164  10.359  0.00  0.00    +0.000 HD
BRANCH  11  14
ATOM     14  C   UNL     1      45.916   2.537   7.777  0.00  0.00    +0.000 A 
ATOM     15  C   UNL     1      46.305   3.145   6.576  0.00  0.00    +0.000 A 
ATOM     16  C   UNL     1      47.081   2.439   5.652  0.00  0.00    +0.000 A 
ATOM     17  C   UNL     1      47.473   1.128   5.923  0.00  0.00    +0.000 A 
ATOM     18  C   UNL     1      47.096   0.519   7.119  0.00  0.00    +0.000 A 
ATOM     19  C   UNL     1      46.326   1.224   8.048  0.00  0.00    +0.000 A 
ENDBRANCH  11  14
ENDBRANCH   9  10
ENDBRANCH   6   9
ENDBRANCH   2   3
BRANCH   2  20
ATOM     20  N   UNL     1      47.822   7.525  15.026  0.00  0.00    +0.000 N 
ATOM     21  C   UNL     1      48.945   7.083  15.682  0.00  0.00    +0.000 C 
ATOM     22  O   UNL     1      50.004   6.852  15.107  0.00  0.00    +0.000 OA
ATOM     23  H   UNL     1      46.926   7.420  15.492  0.00  0.00    +0.000 HD
BRANCH  21  24
ATOM     24  C   UNL     1      48.836   6.966  17.139  0.00  0.00    +0.000 A 
ATOM     25  C   UNL     1      48.782   8.110  17.923  0.00  0.00    +0.000 A 
ATOM     26  S   UNL     1      48.629   7.788  19.590  0.00  0.00    +0.000 S 
ATOM     27  C   UNL     1      48.684   6.108  19.325  0.00  0.00    +0.000 A 
ATOM     28  N   UNL     1      48.635   5.231  20.364  0.00  0.00    +0.000 NA
ATOM     29  C   UNL     1      48.731   3.990  20.019  0.00  0.00    +0.000 A 
ATOM     30  N   UNL     1      48.858   3.546  18.728  0.00  0.00    +0.000 N 
ATOM     31  C   UNL     1      48.860   4.391  17.645  0.00  0.00    +0.000 A 
ATOM     32  O   UNL     1      48.893   3.960  16.497  0.00  0.00    +0.000 OA
ATOM     33  C   UNL     1      48.789   5.799  17.981  0.00  0.00    +0.000 A 
ATOM     34  H   UNL     1      48.913   2.559  18.523  0.00  0.00    +0.000 HD
ENDBRANCH  21  24
ENDBRANCH   2  20
TORSDOF 6
ENDMDL
MODEL 3
REMARK VINA RESULT:    -8.019      2.947      4.627
REMARK INTER + INTRA:         -12.029
REMARK INTER:                 -10.713
REMARK INTRA:                  -1.316
REMARK UNBOUND:                -1.197
REMARK  Name = 
REMARK  7 active torsions:
REMARK  status: ('A' for Active; 'I' for Inactive)
REMARK    1  A    between atoms: C_1  and  C_2
REMARK    2  A    between atoms: C_2  and  N_3
REMARK    3  A    between atoms: C_2  and  C_16
REMARK    4  A    between atoms: C_4  and  C_6
REMARK    5  A    between atoms: C_19  and  C_20
REMARK    6  A    between atoms: C_20  and  N_21
REMARK    7  A    between atoms: C_22  and  C_24
REMARK                            x       y       z     vdW  Elec       q    Type
REMARK                         _______ _______ _______ _____ _____    ______ ____
ROOT
ATOM      1  C   UNL     1      47.393   4.137  15.732  0.00  0.00    +0.000 C 
ATOM      2  C   UNL     1      47.167   5.417  14.917  0.00  0.00    +0.000 C 
ENDROOT
BRANCH   2   3
ATOM      3  C   UNL     1      46.339   5.132  13.667  0.00  0.00    +0.000 A 
ATOM      4  C   UNL     1      45.817   6.191  12.908  0.00  0.00    +0.000 A 
ATOM      5  C   UNL     1      45.054   5.944  11.759  0.00  0.00    +0.000 A 
ATOM      6  C   UNL     1      44.787   4.635  11.342  0.00  0.00    +0.000 A 
ATOM      7  C   UNL     1      45.327   3.575  12.083  0.00  0.00    +0.000 A 
ATOM      8  C   UNL     1      46.089   3.821  13.232  0.00  0.00    +0.000 A 
BRANCH   6   9
ATOM      9  C   UNL     1      43.936   4.372  10.124  0.00  0.00    +0.000 C 
BRANCH   9  10
ATOM     10  N   UNL     1      44.579   3.475   9.190  0.00  0.00    +0.000 N 
ATOM     11  C   UNL     1      45.565   3.946   8.344  0.00  0.00    +0.000 C 
ATOM     12  O   UNL     1      45.934   5.114   8.328  0.00  0.00    +0.000 OA
ATOM     13  H   UNL     1      44.478   2.480   9.341  0.00  0.00    +0.000 HD
BRANCH  11  14
ATOM     14  C   UNL     1      46.202   2.945   7.439  0.00  0.00    +0.000 A 
ATOM     15  C   UNL     1      46.578   3.270   6.129  0.00  0.00    +0.000 A 
ATOM     16  C   UNL     1      47.205   2.316   5.322  0.00  0.00    +0.000 A 
ATOM     17  C   UNL     1      47.460   1.037   5.818  0.00  0.00    +0.000 A 
ATOM     18  C   UNL     1      47.096   0.709   7.123  0.00  0.00    +0.000 A 
ATOM     19  C   UNL     1      46.476   1.662   7.935  0.00  0.00    +0.000 A 
ENDBRANCH  11  14
ENDBRANCH   9  10
ENDBRANCH   6   9
ENDBRANCH   2   3
BRANCH   2  20
ATOM     20  N   UNL     1      48.421   6.049  14.543  0.00  0.00    +0.000 N 
ATOM     21  C   UNL     1      49.008   7.041  15.292  0.00  0.00    +0.000 C 
ATOM     22  O   UNL     1      48.541   7.436  16.356  0.00  0.00    +0.000 OA
ATOM     23  H   UNL     1      48.683   5.974  13.565  0.00  0.00    +0.000 HD
BRANCH  21  24
ATOM     24  C   UNL     1      50.280   7.564  14.786  0.00  0.00    +0.000 A 
ATOM     25  C   UNL     1      51.421   7.491  15.574  0.00  0.00    +0.000 A 
ATOM     26  S   UNL     1      52.813   8.121  14.818  0.00  0.00    +0.000 S 
ATOM     27  C   UNL     1      51.928   8.560  13.432  0.00  0.00    +0.000 A 
ATOM     28  N   UNL     1      52.526   9.192  12.388  0.00  0.00    +0.000 NA
ATOM     29  C   UNL     1      51.725   9.505  11.423  0.00  0.00    +0.000 A 
ATOM     30  N   UNL     1      50.382   9.230  11.404  0.00  0.00    +0.000 N 
ATOM     31  C   UNL     1      49.746   8.549  12.413  0.00  0.00    +0.000 A 
ATOM     32  O   UNL     1      48.559   8.246  12.331  0.00  0.00    +0.000 OA
ATOM     33  C   UNL     1      50.595   8.205  13.535  0.00  0.00    +0.000 A 
ATOM     34  H   UNL     1      49.813   9.488  10.612  0.00  0.00    +0.000 HD
ENDBRANCH  21  24
ENDBRANCH   2  20
TORSDOF 6
ENDMDL
MODEL 4
REMARK VINA RESULT:    -7.823      2.784      3.908
REMARK INTER + INTRA:         -11.765
REMARK INTER:                 -10.778
REMARK INTRA:                  -0.987
REMARK UNBOUND:                -1.197
REMARK  Name = 
REMARK  7 active torsions:
REMARK  status: ('A' for Active; 'I' for Inactive)
REMARK    1  A    between atoms: C_1  and  C_2
REMARK    2  A    between atoms: C_2  and  N_3
REMARK    3  A    between atoms: C_2  and  C_16
REMARK    4  A    between atoms: C_4  and  C_6
REMARK    5  A    between atoms: C_19  and  C_20
REMARK    6  A    between atoms: C_20  and  N_21
REMARK    7  A    between atoms: C_22  and  C_24
REMARK                            x       y       z     vdW  Elec       q    Type
REMARK                         _______ _______ _______ _____ _____    ______ ____
ROOT
ATOM      1  C   UNL     1      47.568   3.503  15.482  0.00  0.00    +0.000 C 
ATOM      2  C   UNL     1      47.010   4.868  15.059  0.00  0.00    +0.000 C 
ENDROOT
BRANCH   2   3
ATOM      3  C   UNL     1      46.201   4.754  13.770  0.00  0.00    +0.000 A 
ATOM      4  C   UNL     1      45.975   3.500  13.185  0.00  0.00    +0.000 A 
ATOM      5  C   UNL     1      45.235   3.380  12.001  0.00  0.00    +0.000 A 
ATOM      6  C   UNL     1      44.708   4.512  11.366  0.00  0.00    +0.000 A 
ATOM      7  C   UNL     1      44.911   5.765  11.961  0.00  0.00    +0.000 A 
ATOM      8  C   UNL     1      45.651   5.885  13.144  0.00  0.00    +0.000 A 
BRANCH   6   9
ATOM      9  C   UNL     1      43.942   4.385  10.073  0.00  0.00    +0.000 C 
BRANCH   9  10
ATOM     10  N   UNL     1      44.585   3.485   9.142  0.00  0.00    +0.000 N 
ATOM     11  C   UNL     1      45.586   3.950   8.309  0.00  0.00    +0.000 C 
ATOM     12  O   UNL     1      45.967   5.114   8.303  0.00  0.00    +0.000 OA
ATOM     13  H   UNL     1      44.473   2.491   9.287  0.00  0.00    +0.000 HD
BRANCH  11  14
ATOM     14  C   UNL     1      46.222   2.947   7.406  0.00  0.00    +0.000 A 
ATOM     15  C   UNL     1      46.606   3.272   6.098  0.00  0.00    +0.000 A 
ATOM     16  C   UNL     1      47.232   2.316   5.293  0.00  0.00    +0.000 A 
ATOM     17  C   UNL     1      47.479   1.036   5.789  0.00  0.00    +0.000 A 
ATOM     18  C   UNL     1      47.107   0.708   7.091  0.00  0.00    +0.000 A 
ATOM     19  C   UNL     1      46.487   1.663   7.901  0.00  0.00    +0.000 A 
ENDBRANCH  11  14
ENDBRANCH   9  10
ENDBRANCH   6   9
ENDBRANCH   2   3
BRANCH   2  20
ATOM     20  N   UNL     1      48.063   5.856  14.894  0.00  0.00    +0.000 N 
ATOM     21  C   UNL     1      48.634   6.521  15.952  0.00  0.00    +0.000 C 
ATOM     22  O   UNL     1      48.330   6.298  17.120  0.00  0.00    +0.000 OA
ATOM     23  H   UNL     1      48.139   6.276  13.972  0.00  0.00    +0.000 HD
BRANCH  21  24
ATOM     24  C   UNL     1      49.695   7.475  15.618  0.00  0.00    +0.000 A 
ATOM     25  C   UNL     1      49.374   8.681  15.010  0.00  0.00    +0.000 A 
ATOM     26  S   UNL     1      50.726   9.679  14.718  0.00  0.00    +0.000 S 
ATOM     27  C   UNL     1      51.792   8.510  15.346  0.00  0.00    +0.000 A 
ATOM     28  N   UNL     1      53.135   8.720  15.361  0.00  0.00    +0.000 NA
ATOM     29  C   UNL     1      53.825   7.731  15.824  0.00  0.00    +0.000 A 
ATOM     30  N   UNL     1      53.291   6.555  16.286  0.00  0.00    +0.000 N 
ATOM     31  C   UNL     1      51.939   6.320  16.338  0.00  0.00    +0.000 A 
ATOM     32  O   UNL     1      51.487   5.291  16.831  0.00  0.00    +0.000 OA
ATOM     33  C   UNL     1      51.122   7.387  15.797  0.00  0.00    +0.000 A 
ATOM     34  H   UNL     1      53.885   5.825  16.651  0.00  0.00    +0.000 HD
ENDBRANCH  21  24
ENDBRANCH   2  20
TORSDOF 6
ENDMDL
MODEL 5
REMARK VINA RESULT:    -7.298      1.884      2.789
REMARK INTER + INTRA:         -11.056
REMARK INTER:                 -10.174
REMARK INTRA:                  -0.881
REMARK UNBOUND:                -1.197
REMARK  Name = 
REMARK  7 active torsions:
REMARK  status: ('A' for Active; 'I' for Inactive)
REMARK    1  A    between atoms: C_1  and  C_2
REMARK    2  A    between atoms: C_2  and  N_3
REMARK    3  A    between atoms: C_2  and  C_16
REMARK    4  A    between atoms: C_4  and  C_6
REMARK    5  A    between atoms: C_19  and  C_20
REMARK    6  A    between atoms: C_20  and  N_21
REMARK    7  A    between atoms: C_22  and  C_24
REMARK                            x       y       z     vdW  Elec       q    Type
REMARK                         _______ _______ _______ _____ _____    ______ ____
ROOT
ATOM      1  C   UNL     1      48.012  10.601  13.337  0.00  0.00    +0.000 C 
ATOM      2  C   UNL     1      48.104   9.150  13.827  0.00  0.00    +0.000 C 
ENDROOT
BRANCH   2   3
ATOM      3  C   UNL     1      47.200   8.236  13.006  0.00  0.00    +0.000 A 
ATOM      4  C   UNL     1      45.918   8.662  12.627  0.00  0.00    +0.000 A 
ATOM      5  C   UNL     1      45.077   7.832  11.874  0.00  0.00    +0.000 A 
ATOM      6  C   UNL     1      45.491   6.552  11.486  0.00  0.00    +0.000 A 
ATOM      7  C   UNL     1      46.779   6.132  11.842  0.00  0.00    +0.000 A 
ATOM      8  C   UNL     1      47.621   6.960  12.595  0.00  0.00    +0.000 A 
BRANCH   6   9
ATOM      9  C   UNL     1      44.569   5.647  10.706  0.00  0.00    +0.000 C 
BRANCH   9  10
ATOM     10  N   UNL     1      45.269   4.907   9.680  0.00  0.00    +0.000 N 
ATOM     11  C   UNL     1      44.900   3.607   9.391  0.00  0.00    +0.000 C 
ATOM     12  O   UNL     1      43.996   3.020   9.974  0.00  0.00    +0.000 OA
ATOM     13  H   UNL     1      45.840   5.425   9.026  0.00  0.00    +0.000 HD
BRANCH  11  14
ATOM     14  C   UNL     1      45.650   2.929   8.293  0.00  0.00    +0.000 A 
ATOM     15  C   UNL     1      46.051   3.617   7.141  0.00  0.00    +0.000 A 
ATOM     16  C   UNL     1      46.783   2.957   6.149  0.00  0.00    +0.000 A 
ATOM     17  C   UNL     1      47.118   1.612   6.303  0.00  0.00    +0.000 A 
ATOM     18  C   UNL     1      46.729   0.923   7.451  0.00  0.00    +0.000 A 
ATOM     19  C   UNL     1      46.004   1.581   8.448  0.00  0.00    +0.000 A 
ENDBRANCH  11  14
ENDBRANCH   9  10
ENDBRANCH   6   9
ENDBRANCH   2   3
BRANCH   2  20
ATOM     20  N   UNL     1      47.772   9.033  15.238  0.00  0.00    +0.000 N 
ATOM     21  C   UNL     1      48.639   9.398  16.240  0.00  0.00    +0.000 C 
ATOM     22  O   UNL     1      49.740   9.892  16.020  0.00  0.00    +0.000 OA
ATOM     23  H   UNL     1      47.027   8.383  15.467  0.00  0.00    +0.000 HD
BRANCH  21  24
ATOM     24  C   UNL     1      48.146   9.232  17.610  0.00  0.00    +0.000 A 
ATOM     25  C   UNL     1      47.732  10.341  18.335  0.00  0.00    +0.000 A 
ATOM     26  S   UNL     1      47.165   9.961  19.898  0.00  0.00    +0.000 S 
ATOM     27  C   UNL     1      47.504   8.308  19.678  0.00  0.00    +0.000 A 
ATOM     28  N   UNL     1      47.281   7.406  20.671  0.00  0.00    +0.000 NA
ATOM     29  C   UNL     1      47.626   6.196  20.380  0.00  0.00    +0.000 A 
ATOM     30  N   UNL     1      48.162   5.803  19.180  0.00  0.00    +0.000 N 
ATOM     31  C   UNL     1      48.356   6.669  18.132  0.00  0.00    +0.000 A 
ATOM     32  O   UNL     1      48.761   6.273  17.043  0.00  0.00    +0.000 OA
ATOM     33  C   UNL     1      48.016   8.047  18.419  0.00  0.00    +0.000 A 
ATOM     34  H   UNL     1      48.396   4.836  19.010  0.00  0.00    +0.000 HD
ENDBRANCH  21  24
ENDBRANCH   2  20
TORSDOF 6
ENDMDL
MODEL 6
REMARK VINA RESULT:    -7.117      4.623      6.855
REMARK INTER + INTRA:         -10.811
REMARK INTER:                  -9.815
REMARK INTRA:                  -0.996
REMARK UNBOUND:                -1.197
REMARK  Name = 
REMARK  7 active torsions:
REMARK  status: ('A' for Active; 'I' for Inactive)
REMARK    1  A    between atoms: C_1  and  C_2
REMARK    2  A    between atoms: C_2  and  N_3
REMARK    3  A    between atoms: C_2  and  C_16
REMARK    4  A    between atoms: C_4  and  C_6
REMARK    5  A    between atoms: C_19  and  C_20
REMARK    6  A    between atoms: C_20  and  N_21
REMARK    7  A    between atoms: C_22  and  C_24
REMARK                            x       y       z     vdW  Elec       q    Type
REMARK                         _______ _______ _______ _____ _____    ______ ____
ROOT
ATOM      1  C   UNL     1      46.508   3.544  13.058  0.00  0.00    +0.000 C 
ATOM      2  C   UNL     1      46.219   4.653  14.077  0.00  0.00    +0.000 C 
ENDROOT
BRANCH   2   3
ATOM      3  C   UNL     1      45.885   5.968  13.379  0.00  0.00    +0.000 A 
ATOM      4  C   UNL     1      44.725   6.078  12.596  0.00  0.00    +0.000 A 
ATOM      5  C   UNL     1      44.407   7.279  11.948  0.00  0.00    +0.000 A 
ATOM      6  C   UNL     1      45.241   8.398  12.058  0.00  0.00    +0.000 A 
ATOM      7  C   UNL     1      46.387   8.299  12.859  0.00  0.00    +0.000 A 
ATOM      8  C   UNL     1      46.706   7.099  13.507  0.00  0.00    +0.000 A 
BRANCH   6   9
ATOM      9  C   UNL     1      44.914   9.679  11.331  0.00  0.00    +0.000 C 
BRANCH   9  10
ATOM     10  N   UNL     1      43.505   9.999  11.393  0.00  0.00    +0.000 N 
ATOM     11  C   UNL     1      42.830  10.378  10.247  0.00  0.00    +0.000 C 
ATOM     12  O   UNL     1      43.369  10.473   9.151  0.00  0.00    +0.000 OA
ATOM     13  H   UNL     1      42.986   9.702  12.207  0.00  0.00    +0.000 HD
BRANCH  11  14
ATOM     14  C   UNL     1      41.371  10.654  10.393  0.00  0.00    +0.000 A 
ATOM     15  C   UNL     1      40.569   9.927  11.281  0.00  0.00    +0.000 A 
ATOM     16  C   UNL     1      39.212  10.238  11.416  0.00  0.00    +0.000 A 
ATOM     17  C   UNL     1      38.653  11.275  10.669  0.00  0.00    +0.000 A 
ATOM     18  C   UNL     1      39.447  12.008   9.790  0.00  0.00    +0.000 A 
ATOM     19  C   UNL     1      40.805  11.705   9.657  0.00  0.00    +0.000 A 
ENDBRANCH  11  14
ENDBRANCH   9  10
ENDBRANCH   6   9
ENDBRANCH   2   3
BRANCH   2  20
ATOM     20  N   UNL     1      47.331   4.851  14.993  0.00  0.00    +0.000 N 
ATOM     21  C   UNL     1      47.389   4.262  16.233  0.00  0.00    +0.000 C 
ATOM     22  O   UNL     1      46.528   3.490  16.644  0.00  0.00    +0.000 OA
ATOM     23  H   UNL     1      47.898   5.678  14.832  0.00  0.00    +0.000 HD
BRANCH  21  24
ATOM     24  C   UNL     1      48.586   4.551  17.029  0.00  0.00    +0.000 A 
ATOM     25  C   UNL     1      48.727   5.788  17.642  0.00  0.00    +0.000 A 
ATOM     26  S   UNL     1      50.164   5.941  18.547  0.00  0.00    +0.000 S 
ATOM     27  C   UNL     1      50.671   4.377  18.106  0.00  0.00    +0.000 A 
ATOM     28  N   UNL     1      51.867   3.883  18.523  0.00  0.00    +0.000 NA
ATOM     29  C   UNL     1      52.142   2.702  18.076  0.00  0.00    +0.000 A 
ATOM     30  N   UNL     1      51.323   1.967  17.259  0.00  0.00    +0.000 N 
ATOM     31  C   UNL     1      50.085   2.404  16.854  0.00  0.00    +0.000 A 
ATOM     32  O   UNL     1      49.340   1.691  16.190  0.00  0.00    +0.000 OA
ATOM     33  C   UNL     1      49.743   3.739  17.303  0.00  0.00    +0.000 A 
ATOM     34  H   UNL     1      51.589   1.042  16.956  0.00  0.00    +0.000 HD
ENDBRANCH  21  24
ENDBRANCH   2  20
TORSDOF 6
ENDMDL
MODEL 7
REMARK VINA RESULT:    -6.993      3.854      5.677
REMARK INTER + INTRA:         -10.644
REMARK INTER:                  -9.577
REMARK INTRA:                  -1.067
REMARK UNBOUND:                -1.197
REMARK  Name = 
REMARK  7 active torsions:
REMARK  status: ('A' for Active; 'I' for Inactive)
REMARK    1  A    between atoms: C_1  and  C_2
REMARK    2  A    between atoms: C_2  and  N_3
REMARK    3  A    between atoms: C_2  and  C_16
REMARK    4  A    between atoms: C_4  and  C_6
REMARK    5  A    between atoms: C_19  and  C_20
REMARK    6  A    between atoms: C_20  and  N_21
REMARK    7  A    between atoms: C_22  and  C_24
REMARK                            x       y       z     vdW  Elec       q    Type
REMARK                         _______ _______ _______ _____ _____    ______ ____
ROOT
ATOM      1  C   UNL     1      48.612   6.187  15.955  0.00  0.00    +0.000 C 
ATOM      2  C   UNL     1      48.544   7.128  14.746  0.00  0.00    +0.000 C 
ENDROOT
BRANCH   2   3
ATOM      3  C   UNL     1      47.548   6.618  13.709  0.00  0.00    +0.000 A 
ATOM      4  C   UNL     1      47.008   5.327  13.821  0.00  0.00    +0.000 A 
ATOM      5  C   UNL     1      46.094   4.845  12.875  0.00  0.00    +0.000 A 
ATOM      6  C   UNL     1      45.698   5.637  11.790  0.00  0.00    +0.000 A 
ATOM      7  C   UNL     1      46.215   6.935  11.688  0.00  0.00    +0.000 A 
ATOM      8  C   UNL     1      47.131   7.417  12.632  0.00  0.00    +0.000 A 
BRANCH   6   9
ATOM      9  C   UNL     1      44.740   5.102  10.755  0.00  0.00    +0.000 C 
BRANCH   9  10
ATOM     10  N   UNL     1      45.425   4.522   9.622  0.00  0.00    +0.000 N 
ATOM     11  C   UNL     1      45.195   3.204   9.275  0.00  0.00    +0.000 C 
ATOM     12  O   UNL     1      44.430   2.471   9.890  0.00  0.00    +0.000 OA
ATOM     13  H   UNL     1      45.863   5.147   8.960  0.00  0.00    +0.000 HD
BRANCH  11  14
ATOM     14  C   UNL     1      45.914   2.695   8.071  0.00  0.00    +0.000 A 
ATOM     15  C   UNL     1      46.124   3.500   6.943  0.00  0.00    +0.000 A 
ATOM     16  C   UNL     1      46.834   3.000   5.847  0.00  0.00    +0.000 A 
ATOM     17  C   UNL     1      47.339   1.700   5.873  0.00  0.00    +0.000 A 
ATOM     18  C   UNL     1      47.142   0.897   6.995  0.00  0.00    +0.000 A 
ATOM     19  C   UNL     1      46.438   1.395   8.094  0.00  0.00    +0.000 A 
ENDBRANCH  11  14
ENDBRANCH   9  10
ENDBRANCH   6   9
ENDBRANCH   2   3
BRANCH   2  20
ATOM     20  N   UNL     1      49.847   7.311  14.128  0.00  0.00    +0.000 N 
ATOM     21  C   UNL     1      50.495   8.522  14.099  0.00  0.00    +0.000 C 
ATOM     22  O   UNL     1      50.043   9.531  14.632  0.00  0.00    +0.000 OA
ATOM     23  H   UNL     1      50.117   6.611  13.443  0.00  0.00    +0.000 HD
BRANCH  21  24
ATOM     24  C   UNL     1      51.810   8.535  13.451  0.00  0.00    +0.000 A 
ATOM     25  C   UNL     1      52.929   8.101  14.148  0.00  0.00    +0.000 A 
ATOM     26  S   UNL     1      54.367   8.159  13.234  0.00  0.00    +0.000 S 
ATOM     27  C   UNL     1      53.551   8.816  11.893  0.00  0.00    +0.000 A 
ATOM     28  N   UNL     1      54.220   9.144  10.755  0.00  0.00    +0.000 NA
ATOM     29  C   UNL     1      53.483   9.674   9.836  0.00  0.00    +0.000 A 
ATOM     30  N   UNL     1      52.134   9.893   9.948  0.00  0.00    +0.000 N 
ATOM     31  C   UNL     1      51.408   9.531  11.057  0.00  0.00    +0.000 A 
ATOM     32  O   UNL     1      50.189   9.665  11.095  0.00  0.00    +0.000 OA
ATOM     33  C   UNL     1      52.196   8.962  12.131  0.00  0.00    +0.000 A 
ATOM     34  H   UNL     1      51.611  10.298   9.186  0.00  0.00    +0.000 HD
ENDBRANCH  21  24
ENDBRANCH   2  20
TORSDOF 6
ENDMDL
MODEL 8
REMARK VINA RESULT:    -6.775      3.646     10.800
REMARK INTER + INTRA:         -10.349
REMARK INTER:                  -9.131
REMARK INTRA:                  -1.218
REMARK UNBOUND:                -1.197
REMARK  Name = 
REMARK  7 active torsions:
REMARK  status: ('A' for Active; 'I' for Inactive)
REMARK    1  A    between atoms: C_1  and  C_2
REMARK    2  A    between atoms: C_2  and  N_3
REMARK    3  A    between atoms: C_2  and  C_16
REMARK    4  A    between atoms: C_4  and  C_6
REMARK    5  A    between atoms: C_19  and  C_20
REMARK    6  A    between atoms: C_20  and  N_21
REMARK    7  A    between atoms: C_22  and  C_24
REMARK                            x       y       z     vdW  Elec       q    Type
REMARK                         _______ _______ _______ _____ _____    ______ ____
ROOT
ATOM      1  C   UNL     1      47.658   3.186  16.910  0.00  0.00    +0.000 C 
ATOM      2  C   UNL     1      48.080   4.539  16.322  0.00  0.00    +0.000 C 
ENDROOT
BRANCH   2   3
ATOM      3  C   UNL     1      48.230   5.590  17.417  0.00  0.00    +0.000 A 
ATOM      4  C   UNL     1      47.285   5.676  18.450  0.00  0.00    +0.000 A 
ATOM      5  C   UNL     1      47.409   6.637  19.462  0.00  0.00    +0.000 A 
ATOM      6  C   UNL     1      48.478   7.542  19.465  0.00  0.00    +0.000 A 
ATOM      7  C   UNL     1      49.438   7.444  18.449  0.00  0.00    +0.000 A 
ATOM      8  C   UNL     1      49.314   6.484  17.437  0.00  0.00    +0.000 A 
BRANCH   6   9
ATOM      9  C   UNL     1      48.590   8.598  20.536  0.00  0.00    +0.000 C 
BRANCH   9  10
ATOM     10  N   UNL     1      47.315   9.204  20.844  0.00  0.00    +0.000 N 
ATOM     11  C   UNL     1      47.075  10.523  20.506  0.00  0.00    +0.000 C 
ATOM     12  O   UNL     1      47.904  11.236  19.954  0.00  0.00    +0.000 OA
ATOM     13  H   UNL     1      46.541   8.594  21.070  0.00  0.00    +0.000 HD
BRANCH  11  14
ATOM     14  C   UNL     1      45.719  11.058  20.826  0.00  0.00    +0.000 A 
ATOM     15  C   UNL     1      45.014  10.646  21.965  0.00  0.00    +0.000 A 
ATOM     16  C   UNL     1      43.761  11.196  22.251  0.00  0.00    +0.000 A 
ATOM     17  C   UNL     1      43.209  12.159  21.406  0.00  0.00    +0.000 A 
ATOM     18  C   UNL     1      43.908  12.580  20.276  0.00  0.00    +0.000 A 
ATOM     19  C   UNL     1      45.163  12.037  19.990  0.00  0.00    +0.000 A 
ENDBRANCH  11  14
ENDBRANCH   9  10
ENDBRANCH   6   9
ENDBRANCH   2   3
BRANCH   2  20
ATOM     20  N   UNL     1      47.143   5.008  15.314  0.00  0.00    +0.000 N 
ATOM     21  C   UNL     1      47.529   5.752  14.226  0.00  0.00    +0.000 C 
ATOM     22  O   UNL     1      48.700   6.039  13.998  0.00  0.00    +0.000 OA
ATOM     23  H   UNL     1      46.169   5.051  15.599  0.00  0.00    +0.000 HD
BRANCH  21  24
ATOM     24  C   UNL     1      46.464   6.133  13.295  0.00  0.00    +0.000 A 
ATOM     25  C   UNL     1      46.265   7.471  12.980  0.00  0.00    +0.000 A 
ATOM     26  S   UNL     1      45.003   7.729  11.863  0.00  0.00    +0.000 S 
ATOM     27  C   UNL     1      44.645   6.066  11.802  0.00  0.00    +0.000 A 
ATOM     28  N   UNL     1      43.621   5.596  11.040  0.00  0.00    +0.000 NA
ATOM     29  C   UNL     1      43.436   4.320  11.125  0.00  0.00    +0.000 A 
ATOM     30  N   UNL     1      44.191   3.471  11.892  0.00  0.00    +0.000 N 
ATOM     31  C   UNL     1      45.266   3.893  12.636  0.00  0.00    +0.000 A 
ATOM     32  O   UNL     1      45.973   3.098  13.247  0.00  0.00    +0.000 OA
ATOM     33  C   UNL     1      45.495   5.323  12.601  0.00  0.00    +0.000 A 
ATOM     34  H   UNL     1      44.004   2.479  11.902  0.00  0.00    +0.000 HD
ENDBRANCH  21  24
ENDBRANCH   2  20
TORSDOF 6
ENDMDL
MODEL 9
REMARK VINA RESULT:    -6.635      2.172      3.026
REMARK INTER + INTRA:         -10.159
REMARK INTER:                  -9.127
REMARK INTRA:                  -1.032
REMARK UNBOUND:                -1.197
REMARK  Name = 
REMARK  7 active torsions:
REMARK  status: ('A' for Active; 'I' for Inactive)
REMARK    1  A    between atoms: C_1  and  C_2
REMARK    2  A    between atoms: C_2  and  N_3
REMARK    3  A    between atoms: C_2  and  C_16
REMARK    4  A    between atoms: C_4  and  C_6
REMARK    5  A    between atoms: C_19  and  C_20
REMARK    6  A    between atoms: C_20  and  N_21
REMARK    7  A    between atoms: C_22  and  C_24
REMARK                            x       y       z     vdW  Elec       q    Type
REMARK                         _______ _______ _______ _____ _____    ______ ____
ROOT
ATOM      1  C   UNL     1      48.965  10.864  14.633  0.00  0.00    +0.000 C 
ATOM      2  C   UNL     1      49.110   9.345  14.473  0.00  0.00    +0.000 C 
ENDROOT
BRANCH   2   3
ATOM      3  C   UNL     1      47.961   8.768  13.653  0.00  0.00    +0.000 A 
ATOM      4  C   UNL     1      47.695   7.390  13.678  0.00  0.00    +0.000 A 
ATOM      5  C   UNL     1      46.644   6.846  12.928  0.00  0.00    +0.000 A 
ATOM      6  C   UNL     1      45.834   7.662  12.129  0.00  0.00    +0.000 A 
ATOM      7  C   UNL     1      46.080   9.041  12.120  0.00  0.00    +0.000 A 
ATOM      8  C   UNL     1      47.131   9.586  12.869  0.00  0.00    +0.000 A 
BRANCH   6   9
ATOM      9  C   UNL     1      44.725   7.068  11.296  0.00  0.00    +0.000 C 
BRANCH   9  10
ATOM     10  N   UNL     1      45.210   6.069  10.371  0.00  0.00    +0.000 N 
ATOM     11  C   UNL     1      44.610   4.824  10.319  0.00  0.00    +0.000 C 
ATOM     12  O   UNL     1      43.671   4.502  11.036  0.00  0.00    +0.000 OA
ATOM     13  H   UNL     1      45.806   6.372   9.613  0.00  0.00    +0.000 HD
BRANCH  11  14
ATOM     14  C   UNL     1      45.149   3.865   9.311  0.00  0.00    +0.000 A 
ATOM     15  C   UNL     1      45.837   4.303   8.172  0.00  0.00    +0.000 A 
ATOM     16  C   UNL     1      46.358   3.373   7.267  0.00  0.00    +0.000 A 
ATOM     17  C   UNL     1      46.197   2.007   7.495  0.00  0.00    +0.000 A 
ATOM     18  C   UNL     1      45.522   1.564   8.631  0.00  0.00    +0.000 A 
ATOM     19  C   UNL     1      45.005   2.489   9.541  0.00  0.00    +0.000 A 
ENDBRANCH  11  14
ENDBRANCH   9  10
ENDBRANCH   6   9
ENDBRANCH   2   3
BRANCH   2  20
ATOM     20  N   UNL     1      49.184   8.671  15.760  0.00  0.00    +0.000 N 
ATOM     21  C   UNL     1      50.105   7.688  16.033  0.00  0.00    +0.000 C 
ATOM     22  O   UNL     1      50.962   7.336  15.228  0.00  0.00    +0.000 OA
ATOM     23  H   UNL     1      48.346   8.710  16.332  0.00  0.00    +0.000 HD
BRANCH  21  24
ATOM     24  C   UNL     1      50.058   7.119  17.383  0.00  0.00    +0.000 A 
ATOM     25  C   UNL     1      50.667   7.786  18.437  0.00  0.00    +0.000 A 
ATOM     26  S   UNL     1      50.492   6.995  19.937  0.00  0.00    +0.000 S 
ATOM     27  C   UNL     1      49.640   5.708  19.220  0.00  0.00    +0.000 A 
ATOM     28  N   UNL     1      49.215   4.648  19.959  0.00  0.00    +0.000 NA
ATOM     29  C   UNL     1      48.622   3.725  19.277  0.00  0.00    +0.000 A 
ATOM     30  N   UNL     1      48.404   3.773  17.924  0.00  0.00    +0.000 N 
ATOM     31  C   UNL     1      48.768   4.845  17.147  0.00  0.00    +0.000 A 
ATOM     32  O   UNL     1      48.487   4.895  15.954  0.00  0.00    +0.000 OA
ATOM     33  C   UNL     1      49.468   5.894  17.860  0.00  0.00    +0.000 A 
ATOM     34  H   UNL     1      47.919   3.024  17.452  0.00  0.00    +0.000 HD
ENDBRANCH  21  24
ENDBRANCH   2  20
TORSDOF 6
ENDMDL
