MODEL 1
REMARK VINA RESULT:    -7.788      0.000      0.000
REMARK INTER + INTRA:         -11.446
REMARK INTER:                 -10.291
REMARK INTRA:                  -1.154
REMARK UNBOUND:                -1.154
REMARK  Name = 
REMARK  6 active torsions:
REMARK  status: ('A' for Active; 'I' for Inactive)
REMARK    1  A    between atoms: N_1  and  S_2
REMARK    2  A    between atoms: S_2  and  C_5
REMARK    3  A    between atoms: C_8  and  O_9
REMARK    4  A    between atoms: O_9  and  C_10
REMARK    5  A    between atoms: C_10  and  C_11
REMARK    6  A    between atoms: C_15  and  C_16
REMARK                            x       y       z     vdW  Elec       q    Type
REMARK                         _______ _______ _______ _____ _____    ______ ____
ROOT
ATOM      1  O   UNL     1      43.579   3.849  10.270  0.00  0.00    +0.000 OA
ENDROOT
BRANCH   1   5
ATOM      2  C   UNL     1      46.286   2.489   7.417  0.00  0.00    +0.000 A 
ATOM      3  C   UNL     1      45.733   1.550   8.291  0.00  0.00    +0.000 A 
ATOM      4  C   UNL     1      44.825   1.972   9.268  0.00  0.00    +0.000 A 
ATOM      5  C   UNL     1      44.473   3.320   9.371  0.00  0.00    +0.000 A 
ATOM      6  C   UNL     1      45.051   4.251   8.506  0.00  0.00    +0.000 A 
ATOM      7  C   UNL     1      45.958   3.842   7.527  0.00  0.00    +0.000 A 
BRANCH   2   8
ATOM      8  S   UNL     1      47.372   1.952   6.132  0.00  0.00    +0.000 S 
ATOM      9  O   UNL     1      46.856   2.419   4.861  0.00  0.00    +0.000 OA
ATOM     10  O   UNL     1      47.753   0.584   6.362  0.00  0.00    +0.000 OA
BRANCH   8  11
ATOM     11  N   UNL     1      48.753   2.857   6.446  0.00  0.00    +0.000 NA
ATOM     12  H   UNL     1      49.463   2.263   6.876  0.00  0.00    +0.000 HD
ATOM     13  H   UNL     1      48.510   3.678   7.003  0.00  0.00    +0.000 HD
ENDBRANCH   8  11
ENDBRANCH   2   8
ENDBRANCH   1   5
BRANCH   1  14
ATOM     14  C   UNL     1      43.753   3.464  11.634  0.00  0.00    +0.000 C 
BRANCH  14  15
ATOM     15  C   UNL     1      44.919   4.164  12.299  0.00  0.00    +0.000 A 
ATOM     16  C   UNL     1      45.831   3.384  13.023  0.00  0.00    +0.000 A 
ATOM     17  C   UNL     1      46.929   3.974  13.640  0.00  0.00    +0.000 A 
ATOM     18  C   UNL     1      47.139   5.349  13.523  0.00  0.00    +0.000 A 
ATOM     19  C   UNL     1      46.275   6.163  12.768  0.00  0.00    +0.000 A 
ATOM     20  C   UNL     1      45.149   5.546  12.184  0.00  0.00    +0.000 A 
BRANCH  19  21
ATOM     21  C   UNL     1      46.582   7.595  12.527  0.00  0.00    +0.000 A 
ATOM     22  C   UNL     1      47.897   8.007  12.228  0.00  0.00    +0.000 A 
ATOM     23  C   UNL     1      48.200   9.334  11.917  0.00  0.00    +0.000 A 
ATOM     24  C   UNL     1      47.189  10.287  11.890  0.00  0.00    +0.000 A 
ATOM     25  C   UNL     1      45.883   9.916  12.194  0.00  0.00    +0.000 A 
ATOM     26  C   UNL     1      45.586   8.586  12.518  0.00  0.00    +0.000 A 
ENDBRANCH  19  21
ENDBRANCH  14  15
ENDBRANCH   1  14
TORSDOF 6
ENDMDL
MODEL 2
REMARK VINA RESULT:    -7.308      4.382      7.669
REMARK INTER + INTRA:         -10.812
REMARK INTER:                 -10.452
REMARK INTRA:                  -0.360
REMARK UNBOUND:                -1.154
REMARK  Name = 
REMARK  6 active torsions:
REMARK  status: ('A' for Active; 'I' for Inactive)
REMARK    1  A    between atoms: N_1  and  S_2
REMARK    2  A    between atoms: S_2  and  C_5
REMARK    3  A    between atoms: C_8  and  O_9
REMARK    4  A    between atoms: O_9  and  C_10
REMARK    5  A    between atoms: C_10  and  C_11
REMARK    6  A    between atoms: C_15  and  C_16
REMARK                            x       y       z     vdW  Elec       q    Type
REMARK                         _______ _______ _______ _____ _____    ______ ____
ROOT
ATOM      1  O   UNL     1      46.742   6.586  11.667  0.00  0.00    +0.000 OA
ENDROOT
BRANCH   1   5
ATOM      2  C   UNL     1      47.653   4.803  15.315  0.00  0.00    +0.000 A 
ATOM      3  C   UNL     1      46.852   4.088  14.421  0.00  0.00    +0.000 A 
ATOM      4  C   UNL     1      46.519   4.659  13.188  0.00  0.00    +0.000 A 
ATOM      5  C   UNL     1      46.981   5.934  12.852  0.00  0.00    +0.000 A 
ATOM      6  C   UNL     1      47.762   6.647  13.764  0.00  0.00    +0.000 A 
ATOM      7  C   UNL     1      48.100   6.087  14.997  0.00  0.00    +0.000 A 
BRANCH   2   8
ATOM      8  S   UNL     1      48.141   4.057  16.839  0.00  0.00    +0.000 S 
ATOM      9  O   UNL     1      48.496   5.102  17.777  0.00  0.00    +0.000 OA
ATOM     10  O   UNL     1      48.993   2.928  16.572  0.00  0.00    +0.000 OA
BRANCH   8  11
ATOM     11  N   UNL     1      46.692   3.401  17.383  0.00  0.00    +0.000 NA
ATOM     12  H   UNL     1      46.023   3.362  16.614  0.00  0.00    +0.000 HD
ATOM     13  H   UNL     1      46.358   3.925  18.193  0.00  0.00    +0.000 HD
ENDBRANCH   8  11
ENDBRANCH   2   8
ENDBRANCH   1   5
BRANCH   1  14
ATOM     14  C   UNL     1      45.409   6.508  11.162  0.00  0.00    +0.000 C 
BRANCH  14  15
ATOM     15  C   UNL     1      45.062   5.136  10.623  0.00  0.00    +0.000 A 
ATOM     16  C   UNL     1      43.953   4.475  11.168  0.00  0.00    +0.000 A 
ATOM     17  C   UNL     1      43.581   3.220  10.699  0.00  0.00    +0.000 A 
ATOM     18  C   UNL     1      44.302   2.620   9.665  0.00  0.00    +0.000 A 
ATOM     19  C   UNL     1      45.394   3.267   9.058  0.00  0.00    +0.000 A 
ATOM     20  C   UNL     1      45.772   4.522   9.578  0.00  0.00    +0.000 A 
BRANCH  19  21
ATOM     21  C   UNL     1      46.063   2.690   7.866  0.00  0.00    +0.000 A 
ATOM     22  C   UNL     1      46.280   3.473   6.715  0.00  0.00    +0.000 A 
ATOM     23  C   UNL     1      46.979   2.981   5.610  0.00  0.00    +0.000 A 
ATOM     24  C   UNL     1      47.489   1.688   5.633  0.00  0.00    +0.000 A 
ATOM     25  C   UNL     1      47.280   0.885   6.749  0.00  0.00    +0.000 A 
ATOM     26  C   UNL     1      46.567   1.378   7.849  0.00  0.00    +0.000 A 
ENDBRANCH  19  21
ENDBRANCH  14  15
ENDBRANCH   1  14
TORSDOF 6
ENDMDL
MODEL 3
REMARK VINA RESULT:    -7.278      4.385      7.675
REMARK INTER + INTRA:         -10.772
REMARK INTER:                 -10.715
REMARK INTRA:                  -0.058
REMARK UNBOUND:                -1.154
REMARK  Name = 
REMARK  6 active torsions:
REMARK  status: ('A' for Active; 'I' for Inactive)
REMARK    1  A    between atoms: N_1  and  S_2
REMARK    2  A    between atoms: S_2  and  C_5
REMARK    3  A    between atoms: C_8  and  O_9
REMARK    4  A    between atoms: O_9  and  C_10
REMARK    5  A    between atoms: C_10  and  C_11
REMARK    6  A    between atoms: C_15  and  C_16
REMARK                            x       y       z     vdW  Elec       q    Type
REMARK                         _______ _______ _______ _____ _____    ______ ____
ROOT
ATOM      1  O   UNL     1      46.372   6.663  11.422  0.00  0.00    +0.000 OA
ENDROOT
BRANCH   1   5
ATOM      2  C   UNL     1      47.431   5.008  15.090  0.00  0.00    +0.000 A 
ATOM      3  C   UNL     1      48.029   6.216  14.723  0.00  0.00    +0.000 A 
ATOM      4  C   UNL     1      47.702   6.799  13.493  0.00  0.00    +0.000 A 
ATOM      5  C   UNL     1      46.788   6.179  12.638  0.00  0.00    +0.000 A 
ATOM      6  C   UNL     1      46.215   4.960  13.008  0.00  0.00    +0.000 A 
ATOM      7  C   UNL     1      46.533   4.369  14.232  0.00  0.00    +0.000 A 
BRANCH   2   8
ATOM      8  S   UNL     1      47.778   4.309  16.674  0.00  0.00    +0.000 S 
ATOM      9  O   UNL     1      49.146   3.833  16.683  0.00  0.00    +0.000 OA
ATOM     10  O   UNL     1      46.668   3.496  17.096  0.00  0.00    +0.000 OA
BRANCH   8  11
ATOM     11  N   UNL     1      47.739   5.665  17.667  0.00  0.00    +0.000 NA
ATOM     12  H   UNL     1      48.588   5.701  18.232  0.00  0.00    +0.000 HD
ATOM     13  H   UNL     1      46.879   5.667  18.216  0.00  0.00    +0.000 HD
ENDBRANCH   8  11
ENDBRANCH   2   8
ENDBRANCH   1   5
BRANCH   1  14
ATOM     14  C   UNL     1      45.028   6.355  11.047  0.00  0.00    +0.000 C 
BRANCH  14  15
ATOM     15  C   UNL     1      44.877   4.951  10.501  0.00  0.00    +0.000 A 
ATOM     16  C   UNL     1      43.875   4.137  11.046  0.00  0.00    +0.000 A 
ATOM     17  C   UNL     1      43.681   2.844  10.570  0.00  0.00    +0.000 A 
ATOM     18  C   UNL     1      44.474   2.358   9.530  0.00  0.00    +0.000 A 
ATOM     19  C   UNL     1      45.461   3.157   8.922  0.00  0.00    +0.000 A 
ATOM     20  C   UNL     1      45.661   4.450   9.449  0.00  0.00    +0.000 A 
BRANCH  19  21
ATOM     21  C   UNL     1      46.199   2.687   7.724  0.00  0.00    +0.000 A 
ATOM     22  C   UNL     1      46.724   1.380   7.670  0.00  0.00    +0.000 A 
ATOM     23  C   UNL     1      47.351   0.886   6.524  0.00  0.00    +0.000 A 
ATOM     24  C   UNL     1      47.464   1.689   5.395  0.00  0.00    +0.000 A 
ATOM     25  C   UNL     1      46.969   2.988   5.421  0.00  0.00    +0.000 A 
ATOM     26  C   UNL     1      46.353   3.484   6.577  0.00  0.00    +0.000 A 
ENDBRANCH  19  21
ENDBRANCH  14  15
ENDBRANCH   1  14
TORSDOF 6
ENDMDL
MODEL 4
REMARK VINA RESULT:    -7.180      3.904      6.988
REMARK INTER + INTRA:         -10.643
REMARK INTER:                  -9.603
REMARK INTRA:                  -1.040
REMARK UNBOUND:                -1.154
REMARK  Name = 
REMARK  6 active torsions:
REMARK  status: ('A' for Active; 'I' for Inactive)
REMARK    1  A    between atoms: N_1  and  S_2
REMARK    2  A    between atoms: S_2  and  C_5
REMARK    3  A    between atoms: C_8  and  O_9
REMARK    4  A    between atoms: O_9  and  C_10
REMARK    5  A    between atoms: C_10  and  C_11
REMARK    6  A    between atoms: C_15  and  C_16
REMARK                            x       y       z     vdW  Elec       q    Type
REMARK                         _______ _______ _______ _____ _____    ______ ____
ROOT
ATOM      1  O   UNL     1      45.108   6.878  12.912  0.00  0.00    +0.000 OA
ENDROOT
BRANCH   1   5
ATOM      2  C   UNL     1      49.071   7.998  12.314  0.00  0.00    +0.000 A 
ATOM      3  C   UNL     1      48.825   6.738  12.865  0.00  0.00    +0.000 A 
ATOM      4  C   UNL     1      47.505   6.331  13.087  0.00  0.00    +0.000 A 
ATOM      5  C   UNL     1      46.441   7.175  12.763  0.00  0.00    +0.000 A 
ATOM      6  C   UNL     1      46.701   8.441  12.234  0.00  0.00    +0.000 A 
ATOM      7  C   UNL     1      48.014   8.858  12.008  0.00  0.00    +0.000 A 
BRANCH   2   8
ATOM      8  S   UNL     1      50.730   8.486  11.958  0.00  0.00    +0.000 S 
ATOM      9  O   UNL     1      51.507   8.420  13.178  0.00  0.00    +0.000 OA
ATOM     10  O   UNL     1      50.719   9.644  11.104  0.00  0.00    +0.000 OA
BRANCH   8  11
ATOM     11  N   UNL     1      51.261   7.222  10.985  0.00  0.00    +0.000 NA
ATOM     12  H   UNL     1      52.188   7.439  10.616  0.00  0.00    +0.000 HD
ATOM     13  H   UNL     1      50.566   7.025  10.263  0.00  0.00    +0.000 HD
ENDBRANCH   8  11
ENDBRANCH   2   8
ENDBRANCH   1   5
BRANCH   1  14
ATOM     14  C   UNL     1      44.362   6.705  11.706  0.00  0.00    +0.000 C 
BRANCH  14  15
ATOM     15  C   UNL     1      44.295   5.261  11.257  0.00  0.00    +0.000 A 
ATOM     16  C   UNL     1      43.394   4.408  11.909  0.00  0.00    +0.000 A 
ATOM     17  C   UNL     1      43.280   3.077  11.525  0.00  0.00    +0.000 A 
ATOM     18  C   UNL     1      44.052   2.587  10.471  0.00  0.00    +0.000 A 
ATOM     19  C   UNL     1      44.936   3.418   9.758  0.00  0.00    +0.000 A 
ATOM     20  C   UNL     1      45.059   4.754  10.192  0.00  0.00    +0.000 A 
BRANCH  19  21
ATOM     21  C   UNL     1      45.644   2.930   8.549  0.00  0.00    +0.000 A 
ATOM     22  C   UNL     1      45.960   3.813   7.496  0.00  0.00    +0.000 A 
ATOM     23  C   UNL     1      46.696   3.398   6.384  0.00  0.00    +0.000 A 
ATOM     24  C   UNL     1      47.144   2.085   6.299  0.00  0.00    +0.000 A 
ATOM     25  C   UNL     1      46.836   1.186   7.315  0.00  0.00    +0.000 A 
ATOM     26  C   UNL     1      46.087   1.602   8.422  0.00  0.00    +0.000 A 
ENDBRANCH  19  21
ENDBRANCH  14  15
ENDBRANCH   1  14
TORSDOF 6
ENDMDL
MODEL 5
REMARK VINA RESULT:    -6.880      4.218      7.578
REMARK INTER + INTRA:         -10.247
REMARK INTER:                  -9.411
REMARK INTRA:                  -0.836
REMARK UNBOUND:                -1.154
REMARK  Name = 
REMARK  6 active torsions:
REMARK  status: ('A' for Active; 'I' for Inactive)
REMARK    1  A    between atoms: N_1  and  S_2
REMARK    2  A    between atoms: S_2  and  C_5
REMARK    3  A    between atoms: C_8  and  O_9
REMARK    4  A    between atoms: O_9  and  C_10
REMARK    5  A    between atoms: C_10  and  C_11
REMARK    6  A    between atoms: C_15  and  C_16
REMARK                            x       y       z     vdW  Elec       q    Type
REMARK                         _______ _______ _______ _____ _____    ______ ____
ROOT
ATOM      1  O   UNL     1      45.130   7.396  11.087  0.00  0.00    +0.000 OA
ENDROOT
BRANCH   1   5
ATOM      2  C   UNL     1      48.018   7.762  14.061  0.00  0.00    +0.000 A 
ATOM      3  C   UNL     1      47.064   8.777  13.949  0.00  0.00    +0.000 A 
ATOM      4  C   UNL     1      46.082   8.691  12.956  0.00  0.00    +0.000 A 
ATOM      5  C   UNL     1      46.055   7.602  12.082  0.00  0.00    +0.000 A 
ATOM      6  C   UNL     1      47.028   6.607  12.190  0.00  0.00    +0.000 A 
ATOM      7  C   UNL     1      48.012   6.681  13.176  0.00  0.00    +0.000 A 
BRANCH   2   8
ATOM      8  S   UNL     1      49.211   7.824  15.362  0.00  0.00    +0.000 S 
ATOM      9  O   UNL     1      48.808   6.906  16.407  0.00  0.00    +0.000 OA
ATOM     10  O   UNL     1      49.570   9.193  15.622  0.00  0.00    +0.000 OA
BRANCH   8  11
ATOM     11  N   UNL     1      50.561   7.144  14.625  0.00  0.00    +0.000 NA
ATOM     12  H   UNL     1      50.442   7.158  13.611  0.00  0.00    +0.000 HD
ATOM     13  H   UNL     1      50.731   6.213  15.007  0.00  0.00    +0.000 HD
ENDBRANCH   8  11
ENDBRANCH   2   8
ENDBRANCH   1   5
BRANCH   1  14
ATOM     14  C   UNL     1      43.978   6.632  11.445  0.00  0.00    +0.000 C 
BRANCH  14  15
ATOM     15  C   UNL     1      44.088   5.177  11.042  0.00  0.00    +0.000 A 
ATOM     16  C   UNL     1      43.268   4.247  11.696  0.00  0.00    +0.000 A 
ATOM     17  C   UNL     1      43.317   2.900  11.353  0.00  0.00    +0.000 A 
ATOM     18  C   UNL     1      44.172   2.471  10.337  0.00  0.00    +0.000 A 
ATOM     19  C   UNL     1      44.979   3.375   9.622  0.00  0.00    +0.000 A 
ATOM     20  C   UNL     1      44.937   4.729  10.016  0.00  0.00    +0.000 A 
BRANCH  19  21
ATOM     21  C   UNL     1      45.774   2.935   8.450  0.00  0.00    +0.000 A 
ATOM     22  C   UNL     1      46.169   1.589   8.314  0.00  0.00    +0.000 A 
ATOM     23  C   UNL     1      46.848   1.132   7.181  0.00  0.00    +0.000 A 
ATOM     24  C   UNL     1      47.142   2.012   6.148  0.00  0.00    +0.000 A 
ATOM     25  C   UNL     1      46.778   3.350   6.258  0.00  0.00    +0.000 A 
ATOM     26  C   UNL     1      46.110   3.808   7.400  0.00  0.00    +0.000 A 
ENDBRANCH  19  21
ENDBRANCH  14  15
ENDBRANCH   1  14
TORSDOF 6
ENDMDL
MODEL 6
REMARK VINA RESULT:    -6.844      1.213      2.118
REMARK INTER + INTRA:         -10.199
REMARK INTER:                  -9.132
REMARK INTRA:                  -1.067
REMARK UNBOUND:                -1.154
REMARK  Name = 
REMARK  6 active torsions:
REMARK  status: ('A' for Active; 'I' for Inactive)
REMARK    1  A    between atoms: N_1  and  S_2
REMARK    2  A    between atoms: S_2  and  C_5
REMARK    3  A    between atoms: C_8  and  O_9
REMARK    4  A    between atoms: O_9  and  C_10
REMARK    5  A    between atoms: C_10  and  C_11
REMARK    6  A    between atoms: C_15  and  C_16
REMARK                            x       y       z     vdW  Elec       q    Type
REMARK                         _______ _______ _______ _____ _____    ______ ____
ROOT
ATOM      1  O   UNL     1      43.587   4.327  11.071  0.00  0.00    +0.000 OA
ENDROOT
BRANCH   1   5
ATOM      2  C   UNL     1      45.951   2.851   7.981  0.00  0.00    +0.000 A 
ATOM      3  C   UNL     1      45.901   4.236   8.160  0.00  0.00    +0.000 A 
ATOM      4  C   UNL     1      45.111   4.769   9.184  0.00  0.00    +0.000 A 
ATOM      5  C   UNL     1      44.376   3.925  10.021  0.00  0.00    +0.000 A 
ATOM      6  C   UNL     1      44.417   2.545   9.817  0.00  0.00    +0.000 A 
ATOM      7  C   UNL     1      45.202   2.002   8.798  0.00  0.00    +0.000 A 
BRANCH   2   8
ATOM      8  S   UNL     1      47.008   2.169   6.742  0.00  0.00    +0.000 S 
ATOM      9  O   UNL     1      48.352   2.668   6.949  0.00  0.00    +0.000 OA
ATOM     10  O   UNL     1      46.347   2.217   5.465  0.00  0.00    +0.000 OA
BRANCH   8  11
ATOM     11  N   UNL     1      47.034   0.542   7.168  0.00  0.00    +0.000 NA
ATOM     12  H   UNL     1      46.291   0.352   7.841  0.00  0.00    +0.000 HD
ATOM     13  H   UNL     1      47.966   0.286   7.498  0.00  0.00    +0.000 HD
ENDBRANCH   8  11
ENDBRANCH   2   8
ENDBRANCH   1   5
BRANCH   1  14
ATOM     14  C   UNL     1      44.156   4.193  12.375  0.00  0.00    +0.000 C 
BRANCH  14  15
ATOM     15  C   UNL     1      45.199   5.248  12.674  0.00  0.00    +0.000 A 
ATOM     16  C   UNL     1      46.412   4.835  13.242  0.00  0.00    +0.000 A 
ATOM     17  C   UNL     1      47.411   5.760  13.522  0.00  0.00    +0.000 A 
ATOM     18  C   UNL     1      47.217   7.108  13.218  0.00  0.00    +0.000 A 
ATOM     19  C   UNL     1      46.034   7.562  12.605  0.00  0.00    +0.000 A 
ATOM     20  C   UNL     1      45.023   6.608  12.367  0.00  0.00    +0.000 A 
BRANCH  19  21
ATOM     21  C   UNL     1      45.893   8.968  12.152  0.00  0.00    +0.000 A 
ATOM     22  C   UNL     1      44.640   9.470  11.748  0.00  0.00    +0.000 A 
ATOM     23  C   UNL     1      44.462  10.810  11.395  0.00  0.00    +0.000 A 
ATOM     24  C   UNL     1      45.538  11.688  11.445  0.00  0.00    +0.000 A 
ATOM     25  C   UNL     1      46.792  11.220  11.826  0.00  0.00    +0.000 A 
ATOM     26  C   UNL     1      46.968   9.873  12.166  0.00  0.00    +0.000 A 
ENDBRANCH  19  21
ENDBRANCH  14  15
ENDBRANCH   1  14
TORSDOF 6
ENDMDL
MODEL 7
REMARK VINA RESULT:    -6.701      4.905      7.446
REMARK INTER + INTRA:         -10.010
REMARK INTER:                  -9.181
REMARK INTRA:                  -0.829
REMARK UNBOUND:                -1.154
REMARK  Name = 
REMARK  6 active torsions:
REMARK  status: ('A' for Active; 'I' for Inactive)
REMARK    1  A    between atoms: N_1  and  S_2
REMARK    2  A    between atoms: S_2  and  C_5
REMARK    3  A    between atoms: C_8  and  O_9
REMARK    4  A    between atoms: O_9  and  C_10
REMARK    5  A    between atoms: C_10  and  C_11
REMARK    6  A    between atoms: C_15  and  C_16
REMARK                            x       y       z     vdW  Elec       q    Type
REMARK                         _______ _______ _______ _____ _____    ______ ____
ROOT
ATOM      1  O   UNL     1      48.303   5.905  14.152  0.00  0.00    +0.000 OA
ENDROOT
BRANCH   1   5
ATOM      2  C   UNL     1      44.814   4.879  12.129  0.00  0.00    +0.000 A 
ATOM      3  C   UNL     1      45.497   3.866  12.808  0.00  0.00    +0.000 A 
ATOM      4  C   UNL     1      46.677   4.172  13.493  0.00  0.00    +0.000 A 
ATOM      5  C   UNL     1      47.172   5.479  13.499  0.00  0.00    +0.000 A 
ATOM      6  C   UNL     1      46.493   6.477  12.797  0.00  0.00    +0.000 A 
ATOM      7  C   UNL     1      45.314   6.183  12.110  0.00  0.00    +0.000 A 
BRANCH   2   8
ATOM      8  S   UNL     1      43.282   4.515  11.329  0.00  0.00    +0.000 S 
ATOM      9  O   UNL     1      42.267   5.417  11.835  0.00  0.00    +0.000 OA
ATOM     10  O   UNL     1      43.097   3.090  11.267  0.00  0.00    +0.000 OA
BRANCH   8  11
ATOM     11  N   UNL     1      43.597   4.991   9.748  0.00  0.00    +0.000 NA
ATOM     12  H   UNL     1      43.654   4.169   9.146  0.00  0.00    +0.000 HD
ATOM     13  H   UNL     1      44.432   5.578   9.723  0.00  0.00    +0.000 HD
ENDBRANCH   8  11
ENDBRANCH   2   8
ENDBRANCH   1   5
BRANCH   1  14
ATOM     14  C   UNL     1      48.147   6.230  15.534  0.00  0.00    +0.000 C 
BRANCH  14  15
ATOM     15  C   UNL     1      48.366   5.043  16.448  0.00  0.00    +0.000 A 
ATOM     16  C   UNL     1      47.238   4.390  16.963  0.00  0.00    +0.000 A 
ATOM     17  C   UNL     1      47.381   3.284  17.794  0.00  0.00    +0.000 A 
ATOM     18  C   UNL     1      48.655   2.805  18.102  0.00  0.00    +0.000 A 
ATOM     19  C   UNL     1      49.814   3.400  17.571  0.00  0.00    +0.000 A 
ATOM     20  C   UNL     1      49.641   4.542  16.762  0.00  0.00    +0.000 A 
BRANCH  19  21
ATOM     21  C   UNL     1      51.153   2.799  17.783  0.00  0.00    +0.000 A 
ATOM     22  C   UNL     1      51.399   1.453  17.445  0.00  0.00    +0.000 A 
ATOM     23  C   UNL     1      52.671   0.886  17.559  0.00  0.00    +0.000 A 
ATOM     24  C   UNL     1      53.736   1.657  18.009  0.00  0.00    +0.000 A 
ATOM     25  C   UNL     1      53.523   2.985  18.364  0.00  0.00    +0.000 A 
ATOM     26  C   UNL     1      52.244   3.546  18.261  0.00  0.00    +0.000 A 
ENDBRANCH  19  21
ENDBRANCH  14  15
ENDBRANCH   1  14
TORSDOF 6
ENDMDL
MODEL 8
REMARK VINA RESULT:    -6.450      5.938      8.885
REMARK INTER + INTRA:          -9.677
REMARK INTER:                  -8.865
REMARK INTRA:                  -0.812
REMARK UNBOUND:                -1.154
REMARK  Name = 
REMARK  6 active torsions:
REMARK  status: ('A' for Active; 'I' for Inactive)
REMARK    1  A    between atoms: N_1  and  S_2
REMARK    2  A    between atoms: S_2  and  C_5
REMARK    3  A    between atoms: C_8  and  O_9
REMARK    4  A    between atoms: O_9  and  C_10
REMARK    5  A    between atoms: C_10  and  C_11
REMARK    6  A    between atoms: C_15  and  C_16
REMARK                            x       y       z     vdW  Elec       q    Type
REMARK                         _______ _______ _______ _____ _____    ______ ____
ROOT
ATOM      1  O   UNL     1      48.472   5.783  14.340  0.00  0.00    +0.000 OA
ENDROOT
BRANCH   1   5
ATOM      2  C   UNL     1      48.427   5.385  18.482  0.00  0.00    +0.000 A 
ATOM      3  C   UNL     1      47.612   4.530  17.736  0.00  0.00    +0.000 A 
ATOM      4  C   UNL     1      47.595   4.640  16.341  0.00  0.00    +0.000 A 
ATOM      5  C   UNL     1      48.385   5.596  15.698  0.00  0.00    +0.000 A 
ATOM      6  C   UNL     1      49.178   6.459  16.458  0.00  0.00    +0.000 A 
ATOM      7  C   UNL     1      49.203   6.359  17.850  0.00  0.00    +0.000 A 
BRANCH   2   8
ATOM      8  S   UNL     1      48.512   5.199  20.236  0.00  0.00    +0.000 S 
ATOM      9  O   UNL     1      47.336   5.804  20.827  0.00  0.00    +0.000 OA
ATOM     10  O   UNL     1      49.848   5.488  20.688  0.00  0.00    +0.000 OA
BRANCH   8  11
ATOM     11  N   UNL     1      48.333   3.537  20.417  0.00  0.00    +0.000 NA
ATOM     12  H   UNL     1      47.367   3.273  20.223  0.00  0.00    +0.000 HD
ATOM     13  H   UNL     1      48.661   3.252  21.341  0.00  0.00    +0.000 HD
ENDBRANCH   8  11
ENDBRANCH   2   8
ENDBRANCH   1   5
BRANCH   1  14
ATOM     14  C   UNL     1      48.106   7.076  13.857  0.00  0.00    +0.000 C 
BRANCH  14  15
ATOM     15  C   UNL     1      46.890   7.047  12.955  0.00  0.00    +0.000 A 
ATOM     16  C   UNL     1      46.089   8.195  12.891  0.00  0.00    +0.000 A 
ATOM     17  C   UNL     1      44.969   8.228  12.067  0.00  0.00    +0.000 A 
ATOM     18  C   UNL     1      44.650   7.119  11.282  0.00  0.00    +0.000 A 
ATOM     19  C   UNL     1      45.452   5.963  11.279  0.00  0.00    +0.000 A 
ATOM     20  C   UNL     1      46.559   5.943  12.152  0.00  0.00    +0.000 A 
BRANCH  19  21
ATOM     21  C   UNL     1      45.191   4.848  10.336  0.00  0.00    +0.000 A 
ATOM     22  C   UNL     1      45.626   4.922   8.998  0.00  0.00    +0.000 A 
ATOM     23  C   UNL     1      45.465   3.854   8.111  0.00  0.00    +0.000 A 
ATOM     24  C   UNL     1      44.869   2.677   8.545  0.00  0.00    +0.000 A 
ATOM     25  C   UNL     1      44.415   2.577   9.856  0.00  0.00    +0.000 A 
ATOM     26  C   UNL     1      44.566   3.654  10.739  0.00  0.00    +0.000 A 
ENDBRANCH  19  21
ENDBRANCH  14  15
ENDBRANCH   1  14
TORSDOF 6
ENDMDL
MODEL 9
REMARK VINA RESULT:    -6.255      5.270      6.693
REMARK INTER + INTRA:          -9.420
REMARK INTER:                  -8.734
REMARK INTRA:                  -0.686
REMARK UNBOUND:                -1.154
REMARK  Name = 
REMARK  6 active torsions:
REMARK  status: ('A' for Active; 'I' for Inactive)
REMARK    1  A    between atoms: N_1  and  S_2
REMARK    2  A    between atoms: S_2  and  C_5
REMARK    3  A    between atoms: C_8  and  O_9
REMARK    4  A    between atoms: O_9  and  C_10
REMARK    5  A    between atoms: C_10  and  C_11
REMARK    6  A    between atoms: C_15  and  C_16
REMARK                            x       y       z     vdW  Elec       q    Type
REMARK                         _______ _______ _______ _____ _____    ______ ____
ROOT
ATOM      1  O   UNL     1      47.788   5.009  14.929  0.00  0.00    +0.000 OA
ENDROOT
BRANCH   1   5
ATOM      2  C   UNL     1      45.290   4.619  11.625  0.00  0.00    +0.000 A 
ATOM      3  C   UNL     1      45.790   5.890  11.918  0.00  0.00    +0.000 A 
ATOM      4  C   UNL     1      46.627   6.061  13.025  0.00  0.00    +0.000 A 
ATOM      5  C   UNL     1      46.960   4.971  13.834  0.00  0.00    +0.000 A 
ATOM      6  C   UNL     1      46.434   3.711  13.543  0.00  0.00    +0.000 A 
ATOM      7  C   UNL     1      45.598   3.528  12.441  0.00  0.00    +0.000 A 
BRANCH   2   8
ATOM      8  S   UNL     1      44.297   4.382  10.183  0.00  0.00    +0.000 S 
ATOM      9  O   UNL     1      43.099   5.187  10.305  0.00  0.00    +0.000 OA
ATOM     10  O   UNL     1      44.265   2.984   9.844  0.00  0.00    +0.000 OA
BRANCH   8  11
ATOM     11  N   UNL     1      45.238   5.106   8.993  0.00  0.00    +0.000 NA
ATOM     12  H   UNL     1      45.479   4.418   8.279  0.00  0.00    +0.000 HD
ATOM     13  H   UNL     1      46.049   5.558   9.420  0.00  0.00    +0.000 HD
ENDBRANCH   8  11
ENDBRANCH   2   8
ENDBRANCH   1   5
BRANCH   1  14
ATOM     14  C   UNL     1      47.364   4.257  16.067  0.00  0.00    +0.000 C 
BRANCH  14  15
ATOM     15  C   UNL     1      48.030   4.704  17.351  0.00  0.00    +0.000 A 
ATOM     16  C   UNL     1      49.216   4.064  17.736  0.00  0.00    +0.000 A 
ATOM     17  C   UNL     1      49.878   4.447  18.898  0.00  0.00    +0.000 A 
ATOM     18  C   UNL     1      49.373   5.488  19.677  0.00  0.00    +0.000 A 
ATOM     19  C   UNL     1      48.211   6.189  19.305  0.00  0.00    +0.000 A 
ATOM     20  C   UNL     1      47.539   5.756  18.143  0.00  0.00    +0.000 A 
BRANCH  19  21
ATOM     21  C   UNL     1      47.761   7.386  20.057  0.00  0.00    +0.000 A 
ATOM     22  C   UNL     1      47.418   8.573  19.379  0.00  0.00    +0.000 A 
ATOM     23  C   UNL     1      46.915   9.688  20.054  0.00  0.00    +0.000 A 
ATOM     24  C   UNL     1      46.733   9.640  21.431  0.00  0.00    +0.000 A 
ATOM     25  C   UNL     1      47.075   8.488  22.131  0.00  0.00    +0.000 A 
ATOM     26  C   UNL     1      47.592   7.377  21.452  0.00  0.00    +0.000 A 
ENDBRANCH  19  21
ENDBRANCH  14  15
ENDBRANCH   1  14
TORSDOF 6
ENDMDL
