MODEL 1
REMARK VINA RESULT:    -6.552      0.000      0.000
REMARK INTER + INTRA:          -8.766
REMARK INTER:                  -8.275
REMARK INTRA:                  -0.491
REMARK UNBOUND:                -0.491
REMARK  Name = 
REMARK  5 active torsions:
REMARK  status: ('A' for Active; 'I' for Inactive)
REMARK    1  A    between atoms: N_1  and  C_2
REMARK    2  A    between atoms: C_2  and  C_3
REMARK    3  A    between atoms: N_8  and  C_9
REMARK    4  A    between atoms: C_9  and  C_10
REMARK    5  A    between atoms: C_10  and  C_11
REMARK                            x       y       z     vdW  Elec       q    Type
REMARK                         _______ _______ _______ _____ _____    ______ ____
ROOT
ATOM      1  C   UNL     1      46.118   6.150  12.485  0.00  0.00    +0.000 A 
ATOM      2  C   UNL     1      46.825   5.826  13.638  0.00  0.00    +0.000 A 
ATOM      3  C   UNL     1      46.832   4.501  14.044  0.00  0.00    +0.000 A 
ATOM      4  N   UNL     1      46.195   3.500  13.393  0.00  0.00    +0.000 NA
ATOM      5  C   UNL     1      45.525   3.808  12.268  0.00  0.00    +0.000 A 
ATOM      6  N   UNL     1      44.914   2.757  11.619  0.00  0.00    +0.000 N 
ATOM      7  C   UNL     1      45.484   5.113  11.791  0.00  0.00    +0.000 A 
ATOM      8  H   UNL     1      44.925   1.892  12.142  0.00  0.00    +0.000 HD
ENDROOT
BRANCH   1   9
ATOM      9  C   UNL     1      46.013   7.559  11.973  0.00  0.00    +0.000 C 
BRANCH   9  10
ATOM     10  N   UNL     1      45.096   8.342  12.794  0.00  0.00    +0.000 NA
ATOM     11  H   UNL     1      45.522   8.523  13.700  0.00  0.00    +0.000 HD
ATOM     12  H   UNL     1      44.257   7.790  12.970  0.00  0.00    +0.000 HD
ENDBRANCH   9  10
ENDBRANCH   1   9
BRANCH   6  13
ATOM     13  C   UNL     1      44.078   2.955  10.454  0.00  0.00    +0.000 C 
BRANCH  13  14
ATOM     14  C   UNL     1      44.350   1.917   9.366  0.00  0.00    +0.000 C 
BRANCH  14  15
ATOM     15  C   UNL     1      45.500   2.354   8.507  0.00  0.00    +0.000 A 
ATOM     16  C   UNL     1      45.656   3.663   8.091  0.00  0.00    +0.000 A 
ATOM     17  N   UNL     1      46.640   4.077   7.272  0.00  0.00    +0.000 NA
ATOM     18  C   UNL     1      47.491   3.127   6.857  0.00  0.00    +0.000 A 
ATOM     19  N   UNL     1      47.438   1.826   7.181  0.00  0.00    +0.000 NA
ATOM     20  C   UNL     1      46.432   1.469   8.003  0.00  0.00    +0.000 A 
ENDBRANCH  14  15
ENDBRANCH  13  14
ENDBRANCH   6  13
TORSDOF 5
ENDMDL
MODEL 2
REMARK VINA RESULT:    -6.412      1.490      2.674
REMARK INTER + INTRA:          -8.590
REMARK INTER:                  -8.218
REMARK INTRA:                  -0.372
REMARK UNBOUND:                -0.491
REMARK  Name = 
REMARK  5 active torsions:
REMARK  status: ('A' for Active; 'I' for Inactive)
REMARK    1  A    between atoms: N_1  and  C_2
REMARK    2  A    between atoms: C_2  and  C_3
REMARK    3  A    between atoms: N_8  and  C_9
REMARK    4  A    between atoms: C_9  and  C_10
REMARK    5  A    between atoms: C_10  and  C_11
REMARK                            x       y       z     vdW  Elec       q    Type
REMARK                         _______ _______ _______ _____ _____    ______ ____
ROOT
ATOM      1  C   UNL     1      46.932   5.460  13.645  0.00  0.00    +0.000 A 
ATOM      2  C   UNL     1      47.591   6.685  13.627  0.00  0.00    +0.000 A 
ATOM      3  C   UNL     1      47.469   7.470  12.492  0.00  0.00    +0.000 A 
ATOM      4  N   UNL     1      46.752   7.125  11.397  0.00  0.00    +0.000 NA
ATOM      5  C   UNL     1      46.100   5.949  11.419  0.00  0.00    +0.000 A 
ATOM      6  N   UNL     1      45.358   5.646  10.298  0.00  0.00    +0.000 N 
ATOM      7  C   UNL     1      46.163   5.113  12.527  0.00  0.00    +0.000 A 
ATOM      8  H   UNL     1      45.501   6.285   9.528  0.00  0.00    +0.000 HD
ENDROOT
BRANCH   1   9
ATOM      9  C   UNL     1      47.024   4.512  14.807  0.00  0.00    +0.000 C 
BRANCH   9  10
ATOM     10  N   UNL     1      47.341   3.163  14.351  0.00  0.00    +0.000 NA
ATOM     11  H   UNL     1      47.708   2.619  15.128  0.00  0.00    +0.000 HD
ATOM     12  H   UNL     1      48.083   3.215  13.654  0.00  0.00    +0.000 HD
ENDBRANCH   9  10
ENDBRANCH   1   9
BRANCH   6  13
ATOM     13  C   UNL     1      44.687   4.374  10.142  0.00  0.00    +0.000 C 
BRANCH  13  14
ATOM     14  C   UNL     1      44.483   4.006   8.673  0.00  0.00    +0.000 C 
BRANCH  14  15
ATOM     15  C   UNL     1      45.570   3.079   8.214  0.00  0.00    +0.000 A 
ATOM     16  C   UNL     1      46.592   3.495   7.380  0.00  0.00    +0.000 A 
ATOM     17  N   UNL     1      47.549   2.677   6.902  0.00  0.00    +0.000 NA
ATOM     18  C   UNL     1      47.459   1.392   7.279  0.00  0.00    +0.000 A 
ATOM     19  N   UNL     1      46.511   0.869   8.072  0.00  0.00    +0.000 NA
ATOM     20  C   UNL     1      45.580   1.733   8.520  0.00  0.00    +0.000 A 
ENDBRANCH  14  15
ENDBRANCH  13  14
ENDBRANCH   6  13
TORSDOF 5
ENDMDL
MODEL 3
REMARK VINA RESULT:    -6.329      1.901      2.387
REMARK INTER + INTRA:          -8.485
REMARK INTER:                  -8.167
REMARK INTRA:                  -0.318
REMARK UNBOUND:                -0.491
REMARK  Name = 
REMARK  5 active torsions:
REMARK  status: ('A' for Active; 'I' for Inactive)
REMARK    1  A    between atoms: N_1  and  C_2
REMARK    2  A    between atoms: C_2  and  C_3
REMARK    3  A    between atoms: N_8  and  C_9
REMARK    4  A    between atoms: C_9  and  C_10
REMARK    5  A    between atoms: C_10  and  C_11
REMARK                            x       y       z     vdW  Elec       q    Type
REMARK                         _______ _______ _______ _____ _____    ______ ____
ROOT
ATOM      1  C   UNL     1      44.452   5.788  11.709  0.00  0.00    +0.000 A 
ATOM      2  C   UNL     1      43.810   5.552  12.920  0.00  0.00    +0.000 A 
ATOM      3  C   UNL     1      43.289   4.287  13.142  0.00  0.00    +0.000 A 
ATOM      4  N   UNL     1      43.363   3.265  12.258  0.00  0.00    +0.000 NA
ATOM      5  C   UNL     1      43.999   3.485  11.094  0.00  0.00    +0.000 A 
ATOM      6  N   UNL     1      44.078   2.413  10.233  0.00  0.00    +0.000 N 
ATOM      7  C   UNL     1      44.559   4.724  10.805  0.00  0.00    +0.000 A 
ATOM      8  H   UNL     1      43.525   1.616  10.520  0.00  0.00    +0.000 HD
ENDROOT
BRANCH   1   9
ATOM      9  C   UNL     1      45.022   7.130  11.347  0.00  0.00    +0.000 C 
BRANCH   9  10
ATOM     10  N   UNL     1      43.956   8.103  11.129  0.00  0.00    +0.000 NA
ATOM     11  H   UNL     1      43.059   7.683  11.357  0.00  0.00    +0.000 HD
ATOM     12  H   UNL     1      43.924   8.342  10.138  0.00  0.00    +0.000 HD
ENDBRANCH   9  10
ENDBRANCH   1   9
BRANCH   6  13
ATOM     13  C   UNL     1      44.645   2.532   8.907  0.00  0.00    +0.000 C 
BRANCH  13  14
ATOM     14  C   UNL     1      45.921   1.707   8.748  0.00  0.00    +0.000 C 
BRANCH  14  15
ATOM     15  C   UNL     1      46.513   1.922   7.386  0.00  0.00    +0.000 A 
ATOM     16  C   UNL     1      47.395   1.024   6.814  0.00  0.00    +0.000 A 
ATOM     17  N   UNL     1      47.990   1.215   5.621  0.00  0.00    +0.000 NA
ATOM     18  C   UNL     1      47.683   2.361   4.993  0.00  0.00    +0.000 A 
ATOM     19  N   UNL     1      46.853   3.311   5.450  0.00  0.00    +0.000 NA
ATOM     20  C   UNL     1      46.286   3.066   6.648  0.00  0.00    +0.000 A 
ENDBRANCH  14  15
ENDBRANCH  13  14
ENDBRANCH   6  13
TORSDOF 5
ENDMDL
MODEL 4
REMARK VINA RESULT:    -6.221      1.919      3.096
REMARK INTER + INTRA:          -8.349
REMARK INTER:                  -8.164
REMARK INTRA:                  -0.185
REMARK UNBOUND:                -0.491
REMARK  Name = 
REMARK  5 active torsions:
REMARK  status: ('A' for Active; 'I' for Inactive)
REMARK    1  A    between atoms: N_1  and  C_2
REMARK    2  A    between atoms: C_2  and  C_3
REMARK    3  A    between atoms: N_8  and  C_9
REMARK    4  A    between atoms: C_9  and  C_10
REMARK    5  A    between atoms: C_10  and  C_11
REMARK                            x       y       z     vdW  Elec       q    Type
REMARK                         _______ _______ _______ _____ _____    ______ ____
ROOT
ATOM      1  C   UNL     1      44.948   4.868  12.782  0.00  0.00    +0.000 A 
ATOM      2  C   UNL     1      43.682   5.214  13.241  0.00  0.00    +0.000 A 
ATOM      3  C   UNL     1      42.668   5.349  12.306  0.00  0.00    +0.000 A 
ATOM      4  N   UNL     1      42.828   5.168  10.974  0.00  0.00    +0.000 NA
ATOM      5  C   UNL     1      44.048   4.815  10.530  0.00  0.00    +0.000 A 
ATOM      6  N   UNL     1      44.163   4.611   9.172  0.00  0.00    +0.000 N 
ATOM      7  C   UNL     1      45.111   4.648  11.409  0.00  0.00    +0.000 A 
ATOM      8  H   UNL     1      43.344   4.886   8.647  0.00  0.00    +0.000 HD
ENDROOT
BRANCH   1   9
ATOM      9  C   UNL     1      46.128   4.730  13.701  0.00  0.00    +0.000 C 
BRANCH   9  10
ATOM     10  N   UNL     1      46.638   3.363  13.689  0.00  0.00    +0.000 NA
ATOM     11  H   UNL     1      46.056   2.777  14.283  0.00  0.00    +0.000 HD
ATOM     12  H   UNL     1      47.573   3.355  14.095  0.00  0.00    +0.000 HD
ENDBRANCH   9  10
ENDBRANCH   1   9
BRANCH   6  13
ATOM     13  C   UNL     1      45.435   4.327   8.544  0.00  0.00    +0.000 C 
BRANCH  13  14
ATOM     14  C   UNL     1      45.804   2.846   8.632  0.00  0.00    +0.000 C 
BRANCH  14  15
ATOM     15  C   UNL     1      46.430   2.390   7.347  0.00  0.00    +0.000 A 
ATOM     16  C   UNL     1      47.078   1.174   7.232  0.00  0.00    +0.000 A 
ATOM     17  N   UNL     1      47.702   0.760   6.114  0.00  0.00    +0.000 NA
ATOM     18  C   UNL     1      47.671   1.614   5.079  0.00  0.00    +0.000 A 
ATOM     19  N   UNL     1      47.085   2.821   5.072  0.00  0.00    +0.000 NA
ATOM     20  C   UNL     1      46.477   3.183   6.219  0.00  0.00    +0.000 A 
ENDBRANCH  14  15
ENDBRANCH  13  14
ENDBRANCH   6  13
TORSDOF 5
ENDMDL
MODEL 5
REMARK VINA RESULT:    -6.095      1.271      1.820
REMARK INTER + INTRA:          -8.189
REMARK INTER:                  -8.121
REMARK INTRA:                  -0.069
REMARK UNBOUND:                -0.491
REMARK  Name = 
REMARK  5 active torsions:
REMARK  status: ('A' for Active; 'I' for Inactive)
REMARK    1  A    between atoms: N_1  and  C_2
REMARK    2  A    between atoms: C_2  and  C_3
REMARK    3  A    between atoms: N_8  and  C_9
REMARK    4  A    between atoms: C_9  and  C_10
REMARK    5  A    between atoms: C_10  and  C_11
REMARK                            x       y       z     vdW  Elec       q    Type
REMARK                         _______ _______ _______ _____ _____    ______ ____
ROOT
ATOM      1  C   UNL     1      45.067   7.212  11.836  0.00  0.00    +0.000 A 
ATOM      2  C   UNL     1      45.941   7.181  12.918  0.00  0.00    +0.000 A 
ATOM      3  C   UNL     1      46.443   5.951  13.310  0.00  0.00    +0.000 A 
ATOM      4  N   UNL     1      46.140   4.776  12.712  0.00  0.00    +0.000 NA
ATOM      5  C   UNL     1      45.309   4.805  11.654  0.00  0.00    +0.000 A 
ATOM      6  N   UNL     1      45.047   3.593  11.054  0.00  0.00    +0.000 N 
ATOM      7  C   UNL     1      44.775   6.003  11.194  0.00  0.00    +0.000 A 
ATOM      8  H   UNL     1      45.404   2.798  11.566  0.00  0.00    +0.000 HD
ENDROOT
BRANCH   1   9
ATOM      9  C   UNL     1      44.435   8.484  11.348  0.00  0.00    +0.000 C 
BRANCH   9  10
ATOM     10  N   UNL     1      43.054   8.252  10.936  0.00  0.00    +0.000 NA
ATOM     11  H   UNL     1      43.004   8.211   9.921  0.00  0.00    +0.000 HD
ATOM     12  H   UNL     1      42.484   9.046  11.226  0.00  0.00    +0.000 HD
ENDBRANCH   9  10
ENDBRANCH   1   9
BRANCH   6  13
ATOM     13  C   UNL     1      44.096   3.461   9.972  0.00  0.00    +0.000 C 
BRANCH  13  14
ATOM     14  C   UNL     1      44.657   3.972   8.645  0.00  0.00    +0.000 C 
BRANCH  14  15
ATOM     15  C   UNL     1      45.655   2.996   8.094  0.00  0.00    +0.000 A 
ATOM     16  C   UNL     1      45.629   1.652   8.417  0.00  0.00    +0.000 A 
ATOM     17  N   UNL     1      46.543   0.761   7.989  0.00  0.00    +0.000 NA
ATOM     18  C   UNL     1      47.519   1.255   7.212  0.00  0.00    +0.000 A 
ATOM     19  N   UNL     1      47.656   2.537   6.840  0.00  0.00    +0.000 NA
ATOM     20  C   UNL     1      46.714   3.383   7.297  0.00  0.00    +0.000 A 
ENDBRANCH  14  15
ENDBRANCH  13  14
ENDBRANCH   6  13
TORSDOF 5
ENDMDL
MODEL 6
REMARK VINA RESULT:    -5.986      1.939      2.807
REMARK INTER + INTRA:          -8.052
REMARK INTER:                  -7.698
REMARK INTRA:                  -0.354
REMARK UNBOUND:                -0.491
REMARK  Name = 
REMARK  5 active torsions:
REMARK  status: ('A' for Active; 'I' for Inactive)
REMARK    1  A    between atoms: N_1  and  C_2
REMARK    2  A    between atoms: C_2  and  C_3
REMARK    3  A    between atoms: N_8  and  C_9
REMARK    4  A    between atoms: C_9  and  C_10
REMARK    5  A    between atoms: C_10  and  C_11
REMARK                            x       y       z     vdW  Elec       q    Type
REMARK                         _______ _______ _______ _____ _____    ______ ____
ROOT
ATOM      1  C   UNL     1      47.168   7.164  12.048  0.00  0.00    +0.000 A 
ATOM      2  C   UNL     1      46.523   8.325  12.460  0.00  0.00    +0.000 A 
ATOM      3  C   UNL     1      45.170   8.447  12.186  0.00  0.00    +0.000 A 
ATOM      4  N   UNL     1      44.433   7.511  11.544  0.00  0.00    +0.000 NA
ATOM      5  C   UNL     1      45.051   6.379  11.161  0.00  0.00    +0.000 A 
ATOM      6  N   UNL     1      44.261   5.438  10.537  0.00  0.00    +0.000 N 
ATOM      7  C   UNL     1      46.403   6.179  11.412  0.00  0.00    +0.000 A 
ATOM      8  H   UNL     1      43.331   5.767  10.315  0.00  0.00    +0.000 HD
ENDROOT
BRANCH   1   9
ATOM      9  C   UNL     1      48.638   6.941  12.259  0.00  0.00    +0.000 C 
BRANCH   9  10
ATOM     10  N   UNL     1      48.907   6.513  13.628  0.00  0.00    +0.000 NA
ATOM     11  H   UNL     1      48.482   5.603  13.789  0.00  0.00    +0.000 HD
ATOM     12  H   UNL     1      48.458   7.164  14.272  0.00  0.00    +0.000 HD
ENDBRANCH   9  10
ENDBRANCH   1   9
BRANCH   6  13
ATOM     13  C   UNL     1      44.810   4.219   9.984  0.00  0.00    +0.000 C 
BRANCH  13  14
ATOM     14  C   UNL     1      45.096   4.342   8.487  0.00  0.00    +0.000 C 
BRANCH  14  15
ATOM     15  C   UNL     1      45.883   3.157   8.010  0.00  0.00    +0.000 A 
ATOM     16  C   UNL     1      45.668   1.882   8.499  0.00  0.00    +0.000 A 
ATOM     17  N   UNL     1      46.395   0.808   8.138  0.00  0.00    +0.000 NA
ATOM     18  C   UNL     1      47.379   1.041   7.256  0.00  0.00    +0.000 A 
ATOM     19  N   UNL     1      47.691   2.231   6.721  0.00  0.00    +0.000 NA
ATOM     20  C   UNL     1      46.931   3.269   7.118  0.00  0.00    +0.000 A 
ENDBRANCH  14  15
ENDBRANCH  13  14
ENDBRANCH   6  13
TORSDOF 5
ENDMDL
MODEL 7
REMARK VINA RESULT:    -5.963      1.801      3.309
REMARK INTER + INTRA:          -8.022
REMARK INTER:                  -7.609
REMARK INTRA:                  -0.413
REMARK UNBOUND:                -0.491
REMARK  Name = 
REMARK  5 active torsions:
REMARK  status: ('A' for Active; 'I' for Inactive)
REMARK    1  A    between atoms: N_1  and  C_2
REMARK    2  A    between atoms: C_2  and  C_3
REMARK    3  A    between atoms: N_8  and  C_9
REMARK    4  A    between atoms: C_9  and  C_10
REMARK    5  A    between atoms: C_10  and  C_11
REMARK                            x       y       z     vdW  Elec       q    Type
REMARK                         _______ _______ _______ _____ _____    ______ ____
ROOT
ATOM      1  C   UNL     1      44.267   4.241  12.338  0.00  0.00    +0.000 A 
ATOM      2  C   UNL     1      44.762   5.188  13.229  0.00  0.00    +0.000 A 
ATOM      3  C   UNL     1      45.610   6.164  12.731  0.00  0.00    +0.000 A 
ATOM      4  N   UNL     1      45.990   6.258  11.435  0.00  0.00    +0.000 NA
ATOM      5  C   UNL     1      45.498   5.354  10.569  0.00  0.00    +0.000 A 
ATOM      6  N   UNL     1      45.884   5.500   9.255  0.00  0.00    +0.000 N 
ATOM      7  C   UNL     1      44.631   4.353  10.991  0.00  0.00    +0.000 A 
ATOM      8  H   UNL     1      46.608   6.193   9.116  0.00  0.00    +0.000 HD
ENDROOT
BRANCH   1   9
ATOM      9  C   UNL     1      43.370   3.117  12.774  0.00  0.00    +0.000 C 
BRANCH   9  10
ATOM     10  N   UNL     1      43.244   2.117  11.719  0.00  0.00    +0.000 NA
ATOM     11  H   UNL     1      42.974   2.571  10.850  0.00  0.00    +0.000 HD
ATOM     12  H   UNL     1      42.488   1.475  11.961  0.00  0.00    +0.000 HD
ENDBRANCH   9  10
ENDBRANCH   1   9
BRANCH   6  13
ATOM     13  C   UNL     1      45.513   4.544   8.234  0.00  0.00    +0.000 C 
BRANCH  13  14
ATOM     14  C   UNL     1      46.685   4.196   7.317  0.00  0.00    +0.000 C 
BRANCH  14  15
ATOM     15  C   UNL     1      46.868   2.708   7.251  0.00  0.00    +0.000 A 
ATOM     16  C   UNL     1      47.590   2.096   6.243  0.00  0.00    +0.000 A 
ATOM     17  N   UNL     1      47.723   0.762   6.120  0.00  0.00    +0.000 NA
ATOM     18  C   UNL     1      47.094   0.026   7.048  0.00  0.00    +0.000 A 
ATOM     19  N   UNL     1      46.357   0.501   8.064  0.00  0.00    +0.000 NA
ATOM     20  C   UNL     1      46.259   1.843   8.138  0.00  0.00    +0.000 A 
ENDBRANCH  14  15
ENDBRANCH  13  14
ENDBRANCH   6  13
TORSDOF 5
ENDMDL
MODEL 8
REMARK VINA RESULT:    -5.948      1.661      6.045
REMARK INTER + INTRA:          -8.004
REMARK INTER:                  -7.602
REMARK INTRA:                  -0.402
REMARK UNBOUND:                -0.491
REMARK  Name = 
REMARK  5 active torsions:
REMARK  status: ('A' for Active; 'I' for Inactive)
REMARK    1  A    between atoms: N_1  and  C_2
REMARK    2  A    between atoms: C_2  and  C_3
REMARK    3  A    between atoms: N_8  and  C_9
REMARK    4  A    between atoms: C_9  and  C_10
REMARK    5  A    between atoms: C_10  and  C_11
REMARK                            x       y       z     vdW  Elec       q    Type
REMARK                         _______ _______ _______ _____ _____    ______ ____
ROOT
ATOM      1  C   UNL     1      46.719   2.553   6.665  0.00  0.00    +0.000 A 
ATOM      2  C   UNL     1      47.026   1.212   6.870  0.00  0.00    +0.000 A 
ATOM      3  C   UNL     1      46.442   0.571   7.951  0.00  0.00    +0.000 A 
ATOM      4  N   UNL     1      45.592   1.163   8.822  0.00  0.00    +0.000 NA
ATOM      5  C   UNL     1      45.279   2.455   8.615  0.00  0.00    +0.000 A 
ATOM      6  N   UNL     1      44.389   3.013   9.506  0.00  0.00    +0.000 N 
ATOM      7  C   UNL     1      45.815   3.161   7.545  0.00  0.00    +0.000 A 
ATOM      8  H   UNL     1      44.178   2.421  10.298  0.00  0.00    +0.000 HD
ENDROOT
BRANCH   1   9
ATOM      9  C   UNL     1      47.322   3.356   5.548  0.00  0.00    +0.000 C 
BRANCH   9  10
ATOM     10  N   UNL     1      48.244   2.542   4.764  0.00  0.00    +0.000 NA
ATOM     11  H   UNL     1      49.068   3.091   4.529  0.00  0.00    +0.000 HD
ATOM     12  H   UNL     1      47.797   2.293   3.882  0.00  0.00    +0.000 HD
ENDBRANCH   9  10
ENDBRANCH   1   9
BRANCH   6  13
ATOM     13  C   UNL     1      44.040   4.417   9.465  0.00  0.00    +0.000 C 
BRANCH  13  14
ATOM     14  C   UNL     1      43.518   4.921  10.810  0.00  0.00    +0.000 C 
BRANCH  14  15
ATOM     15  C   UNL     1      44.642   5.018  11.800  0.00  0.00    +0.000 A 
ATOM     16  C   UNL     1      45.733   5.844  11.600  0.00  0.00    +0.000 A 
ATOM     17  N   UNL     1      46.786   5.910  12.436  0.00  0.00    +0.000 NA
ATOM     18  C   UNL     1      46.731   5.104  13.507  0.00  0.00    +0.000 A 
ATOM     19  N   UNL     1      45.736   4.253  13.802  0.00  0.00    +0.000 NA
ATOM     20  C   UNL     1      44.709   4.229  12.931  0.00  0.00    +0.000 A 
ENDBRANCH  14  15
ENDBRANCH  13  14
ENDBRANCH   6  13
TORSDOF 5
ENDMDL
MODEL 9
REMARK VINA RESULT:    -5.575      1.740      2.443
REMARK INTER + INTRA:          -7.532
REMARK INTER:                  -7.201
REMARK INTRA:                  -0.331
REMARK UNBOUND:                -0.491
REMARK  Name = 
REMARK  5 active torsions:
REMARK  status: ('A' for Active; 'I' for Inactive)
REMARK    1  A    between atoms: N_1  and  C_2
REMARK    2  A    between atoms: C_2  and  C_3
REMARK    3  A    between atoms: N_8  and  C_9
REMARK    4  A    between atoms: C_9  and  C_10
REMARK    5  A    between atoms: C_10  and  C_11
REMARK                            x       y       z     vdW  Elec       q    Type
REMARK                         _______ _______ _______ _____ _____    ______ ____
ROOT
ATOM      1  C   UNL     1      47.974   6.120  14.216  0.00  0.00    +0.000 A 
ATOM      2  C   UNL     1      48.158   5.526  15.460  0.00  0.00    +0.000 A 
ATOM      3  C   UNL     1      47.358   4.442  15.785  0.00  0.00    +0.000 A 
ATOM      4  N   UNL     1      46.409   3.921  14.973  0.00  0.00    +0.000 NA
ATOM      5  C   UNL     1      46.243   4.482  13.762  0.00  0.00    +0.000 A 
ATOM      6  N   UNL     1      45.288   3.906  12.952  0.00  0.00    +0.000 N 
ATOM      7  C   UNL     1      47.016   5.565  13.359  0.00  0.00    +0.000 A 
ATOM      8  H   UNL     1      44.724   3.208  13.419  0.00  0.00    +0.000 HD
ENDROOT
BRANCH   1   9
ATOM      9  C   UNL     1      48.758   7.322  13.773  0.00  0.00    +0.000 C 
BRANCH   9  10
ATOM     10  N   UNL     1      49.721   6.960  12.738  0.00  0.00    +0.000 NA
ATOM     11  H   UNL     1      50.346   6.240  13.091  0.00  0.00    +0.000 HD
ATOM     12  H   UNL     1      50.300   7.773  12.526  0.00  0.00    +0.000 HD
ENDBRANCH   9  10
ENDBRANCH   1   9
BRANCH   6  13
ATOM     13  C   UNL     1      44.932   4.465  11.666  0.00  0.00    +0.000 C 
BRANCH  13  14
ATOM     14  C   UNL     1      44.269   3.434  10.753  0.00  0.00    +0.000 C 
BRANCH  14  15
ATOM     15  C   UNL     1      45.042   3.301   9.473  0.00  0.00    +0.000 A 
ATOM     16  C   UNL     1      45.467   2.077   8.991  0.00  0.00    +0.000 A 
ATOM     17  N   UNL     1      46.213   1.927   7.880  0.00  0.00    +0.000 NA
ATOM     18  C   UNL     1      46.542   3.061   7.243  0.00  0.00    +0.000 A 
ATOM     19  N   UNL     1      46.200   4.303   7.617  0.00  0.00    +0.000 NA
ATOM     20  C   UNL     1      45.454   4.392   8.736  0.00  0.00    +0.000 A 
ENDBRANCH  14  15
ENDBRANCH  13  14
ENDBRANCH   6  13
TORSDOF 5
ENDMDL
