MODEL 1
REMARK VINA RESULT:    -6.905      0.000      0.000
REMARK INTER + INTRA:          -9.955
REMARK INTER:                  -9.125
REMARK INTRA:                  -0.830
REMARK UNBOUND:                -0.830
REMARK  Name = 
REMARK  6 active torsions:
REMARK  status: ('A' for Active; 'I' for Inactive)
REMARK    1  A    between atoms: N_1  and  C_2
REMARK    2  A    between atoms: N_5  and  C_6
REMARK    3  A    between atoms: C_6  and  C_7
REMARK    4  A    between atoms: C_10  and  C_11
REMARK    5  A    between atoms: C_11  and  N_12
REMARK    6  A    between atoms: C_13  and  C_15
REMARK                            x       y       z     vdW  Elec       q    Type
REMARK                         _______ _______ _______ _____ _____    ______ ____
ROOT
ATOM      1  C   UNL     1      44.921   3.020   9.470  0.00  0.00    +0.000 A 
ATOM      2  C   UNL     1      45.199   4.395   9.507  0.00  0.00    +0.000 A 
ATOM      3  C   UNL     1      44.968   5.143  10.662  0.00  0.00    +0.000 A 
ATOM      4  C   UNL     1      44.428   4.536  11.800  0.00  0.00    +0.000 A 
ATOM      5  C   UNL     1      44.053   3.188  11.734  0.00  0.00    +0.000 A 
ATOM      6  C   UNL     1      44.315   2.431  10.587  0.00  0.00    +0.000 A 
ENDROOT
BRANCH   1   7
ATOM      7  C   UNL     1      45.317   2.191   8.262  0.00  0.00    +0.000 C 
BRANCH   7  11
ATOM      8  C   UNL     1      47.062   1.622   5.036  0.00  0.00    +0.000 C 
ATOM      9  C   UNL     1      46.654   2.994   5.575  0.00  0.00    +0.000 C 
ATOM     10  C   UNL     1      47.183   3.233   6.992  0.00  0.00    +0.000 C 
ATOM     11  N   UNL     1      46.762   2.205   7.959  0.00  0.00    +0.000 NA
ATOM     12  C   UNL     1      47.237   0.892   7.483  0.00  0.00    +0.000 C 
ATOM     13  C   UNL     1      46.761   0.527   6.069  0.00  0.00    +0.000 C 
BRANCH   8  14
ATOM     14  N   UNL     1      48.480   1.622   4.667  0.00  0.00    +0.000 NA
ATOM     15  H   UNL     1      48.748   0.697   4.334  0.00  0.00    +0.000 HD
ATOM     16  H   UNL     1      49.051   1.803   5.492  0.00  0.00    +0.000 HD
ENDBRANCH   8  14
ENDBRANCH   7  11
ENDBRANCH   1   7
BRANCH   4  17
ATOM     17  C   UNL     1      44.265   5.321  13.072  0.00  0.00    +0.000 C 
BRANCH  17  18
ATOM     18  N   UNL     1      45.492   5.960  13.470  0.00  0.00    +0.000 N 
ATOM     19  C   UNL     1      46.501   5.226  14.037  0.00  0.00    +0.000 C 
ATOM     20  O   UNL     1      46.421   4.008  14.176  0.00  0.00    +0.000 OA
ATOM     21  H   UNL     1      45.484   6.970  13.557  0.00  0.00    +0.000 HD
BRANCH  19  22
ATOM     22  C   UNL     1      47.717   5.955  14.418  0.00  0.00    +0.000 A 
ATOM     23  C   UNL     1      48.220   5.816  15.704  0.00  0.00    +0.000 A 
ATOM     24  S   UNL     1      49.653   6.698  15.976  0.00  0.00    +0.000 S 
ATOM     25  C   UNL     1      49.625   7.333  14.400  0.00  0.00    +0.000 A 
ATOM     26  N   UNL     1      50.580   8.207  13.983  0.00  0.00    +0.000 NA
ATOM     27  C   UNL     1      50.418   8.640  12.778  0.00  0.00    +0.000 A 
ATOM     28  N   UNL     1      49.395   8.267  11.946  0.00  0.00    +0.000 N 
ATOM     29  C   UNL     1      48.426   7.359  12.308  0.00  0.00    +0.000 A 
ATOM     30  O   UNL     1      47.557   7.008  11.520  0.00  0.00    +0.000 OA
ATOM     31  C   UNL     1      48.550   6.861  13.664  0.00  0.00    +0.000 A 
ATOM     32  H   UNL     1      49.334   8.631  11.005  0.00  0.00    +0.000 HD
ENDBRANCH  19  22
ENDBRANCH  17  18
ENDBRANCH   4  17
TORSDOF 6
ENDMDL
MODEL 2
REMARK VINA RESULT:    -6.902      3.855      6.270
REMARK INTER + INTRA:          -9.951
REMARK INTER:                  -9.021
REMARK INTRA:                  -0.930
REMARK UNBOUND:                -0.830
REMARK  Name = 
REMARK  6 active torsions:
REMARK  status: ('A' for Active; 'I' for Inactive)
REMARK    1  A    between atoms: N_1  and  C_2
REMARK    2  A    between atoms: N_5  and  C_6
REMARK    3  A    between atoms: C_6  and  C_7
REMARK    4  A    between atoms: C_10  and  C_11
REMARK    5  A    between atoms: C_11  and  N_12
REMARK    6  A    between atoms: C_13  and  C_15
REMARK                            x       y       z     vdW  Elec       q    Type
REMARK                         _______ _______ _______ _____ _____    ______ ____
ROOT
ATOM      1  C   UNL     1      46.613   6.963  12.492  0.00  0.00    +0.000 A 
ATOM      2  C   UNL     1      47.667   6.141  12.921  0.00  0.00    +0.000 A 
ATOM      3  C   UNL     1      48.505   6.535  13.964  0.00  0.00    +0.000 A 
ATOM      4  C   UNL     1      48.325   7.774  14.586  0.00  0.00    +0.000 A 
ATOM      5  C   UNL     1      47.340   8.640  14.093  0.00  0.00    +0.000 A 
ATOM      6  C   UNL     1      46.479   8.233  13.069  0.00  0.00    +0.000 A 
ENDROOT
BRANCH   1   7
ATOM      7  C   UNL     1      45.618   6.459  11.463  0.00  0.00    +0.000 C 
BRANCH   7  11
ATOM      8  C   UNL     1      44.114   3.097  10.999  0.00  0.00    +0.000 C 
ATOM      9  C   UNL     1      45.061   3.478  12.139  0.00  0.00    +0.000 C 
ATOM     10  C   UNL     1      44.574   4.717  12.897  0.00  0.00    +0.000 C 
ATOM     11  N   UNL     1      44.379   5.895  12.036  0.00  0.00    +0.000 NA
ATOM     12  C   UNL     1      43.396   5.554  10.990  0.00  0.00    +0.000 C 
ATOM     13  C   UNL     1      43.776   4.328  10.147  0.00  0.00    +0.000 C 
BRANCH   8  14
ATOM     14  N   UNL     1      42.899   2.478  11.533  0.00  0.00    +0.000 NA
ATOM     15  H   UNL     1      42.250   3.203  11.837  0.00  0.00    +0.000 HD
ATOM     16  H   UNL     1      43.126   1.933  12.363  0.00  0.00    +0.000 HD
ENDBRANCH   8  14
ENDBRANCH   7  11
ENDBRANCH   1   7
BRANCH   4  17
ATOM     17  C   UNL     1      49.169   8.159  15.769  0.00  0.00    +0.000 C 
BRANCH  17  18
ATOM     18  N   UNL     1      50.115   7.130  16.111  0.00  0.00    +0.000 N 
ATOM     19  C   UNL     1      49.966   6.410  17.268  0.00  0.00    +0.000 C 
ATOM     20  O   UNL     1      49.007   6.575  18.017  0.00  0.00    +0.000 OA
ATOM     21  H   UNL     1      51.005   7.133  15.623  0.00  0.00    +0.000 HD
BRANCH  19  22
ATOM     22  C   UNL     1      50.976   5.383  17.544  0.00  0.00    +0.000 A 
ATOM     23  C   UNL     1      52.242   5.766  17.963  0.00  0.00    +0.000 A 
ATOM     24  S   UNL     1      53.286   4.456  18.275  0.00  0.00    +0.000 S 
ATOM     25  C   UNL     1      52.098   3.331  17.816  0.00  0.00    +0.000 A 
ATOM     26  N   UNL     1      52.361   1.996  17.823  0.00  0.00    +0.000 NA
ATOM     27  C   UNL     1      51.384   1.258  17.416  0.00  0.00    +0.000 A 
ATOM     28  N   UNL     1      50.162   1.731  17.015  0.00  0.00    +0.000 N 
ATOM     29  C   UNL     1      49.836   3.068  17.025  0.00  0.00    +0.000 A 
ATOM     30  O   UNL     1      48.716   3.451  16.711  0.00  0.00    +0.000 OA
ATOM     31  C   UNL     1      50.910   3.943  17.451  0.00  0.00    +0.000 A 
ATOM     32  H   UNL     1      49.432   1.097  16.722  0.00  0.00    +0.000 HD
ENDBRANCH  19  22
ENDBRANCH  17  18
ENDBRANCH   4  17
TORSDOF 6
ENDMDL
MODEL 3
REMARK VINA RESULT:    -6.716      3.773      5.984
REMARK INTER + INTRA:          -9.705
REMARK INTER:                  -8.555
REMARK INTRA:                  -1.150
REMARK UNBOUND:                -0.830
REMARK  Name = 
REMARK  6 active torsions:
REMARK  status: ('A' for Active; 'I' for Inactive)
REMARK    1  A    between atoms: N_1  and  C_2
REMARK    2  A    between atoms: N_5  and  C_6
REMARK    3  A    between atoms: C_6  and  C_7
REMARK    4  A    between atoms: C_10  and  C_11
REMARK    5  A    between atoms: C_11  and  N_12
REMARK    6  A    between atoms: C_13  and  C_15
REMARK                            x       y       z     vdW  Elec       q    Type
REMARK                         _______ _______ _______ _____ _____    ______ ____
ROOT
ATOM      1  C   UNL     1      46.155   7.315  11.829  0.00  0.00    +0.000 A 
ATOM      2  C   UNL     1      47.488   6.898  11.686  0.00  0.00    +0.000 A 
ATOM      3  C   UNL     1      48.488   7.395  12.521  0.00  0.00    +0.000 A 
ATOM      4  C   UNL     1      48.183   8.343  13.502  0.00  0.00    +0.000 A 
ATOM      5  C   UNL     1      46.875   8.838  13.580  0.00  0.00    +0.000 A 
ATOM      6  C   UNL     1      45.865   8.316  12.765  0.00  0.00    +0.000 A 
ENDROOT
BRANCH   1   7
ATOM      7  C   UNL     1      45.055   6.655  11.018  0.00  0.00    +0.000 C 
BRANCH   7  11
ATOM      8  C   UNL     1      44.538   3.030  11.625  0.00  0.00    +0.000 C 
ATOM      9  C   UNL     1      45.349   3.958  12.532  0.00  0.00    +0.000 C 
ATOM     10  C   UNL     1      44.543   5.189  12.959  0.00  0.00    +0.000 C 
ATOM     11  N   UNL     1      44.024   5.974  11.827  0.00  0.00    +0.000 NA
ATOM     12  C   UNL     1      43.168   5.100  11.004  0.00  0.00    +0.000 C 
ATOM     13  C   UNL     1      43.868   3.829  10.500  0.00  0.00    +0.000 C 
BRANCH   8  14
ATOM     14  N   UNL     1      43.545   2.293  12.411  0.00  0.00    +0.000 NA
ATOM     15  H   UNL     1      44.019   1.639  13.033  0.00  0.00    +0.000 HD
ATOM     16  H   UNL     1      42.965   1.728  11.793  0.00  0.00    +0.000 HD
ENDBRANCH   8  14
ENDBRANCH   7  11
ENDBRANCH   1   7
BRANCH   4  17
ATOM     17  C   UNL     1      49.244   8.810  14.460  0.00  0.00    +0.000 C 
BRANCH  17  18
ATOM     18  N   UNL     1      49.334   7.959  15.617  0.00  0.00    +0.000 N 
ATOM     19  C   UNL     1      48.653   8.276  16.764  0.00  0.00    +0.000 C 
ATOM     20  O   UNL     1      47.910   9.252  16.829  0.00  0.00    +0.000 OA
ATOM     21  H   UNL     1      50.095   7.288  15.644  0.00  0.00    +0.000 HD
BRANCH  19  22
ATOM     22  C   UNL     1      48.803   7.359  17.899  0.00  0.00    +0.000 A 
ATOM     23  C   UNL     1      49.141   7.865  19.145  0.00  0.00    +0.000 A 
ATOM     24  S   UNL     1      49.242   6.677  20.363  0.00  0.00    +0.000 S 
ATOM     25  C   UNL     1      48.883   5.438  19.257  0.00  0.00    +0.000 A 
ATOM     26  N   UNL     1      48.841   4.137  19.656  0.00  0.00    +0.000 NA
ATOM     27  C   UNL     1      48.594   3.297  18.709  0.00  0.00    +0.000 A 
ATOM     28  N   UNL     1      48.372   3.639  17.399  0.00  0.00    +0.000 N 
ATOM     29  C   UNL     1      48.368   4.940  16.955  0.00  0.00    +0.000 A 
ATOM     30  O   UNL     1      48.113   5.213  15.789  0.00  0.00    +0.000 OA
ATOM     31  C   UNL     1      48.664   5.924  17.978  0.00  0.00    +0.000 A 
ATOM     32  H   UNL     1      48.168   2.931  16.708  0.00  0.00    +0.000 HD
ENDBRANCH  19  22
ENDBRANCH  17  18
ENDBRANCH   4  17
TORSDOF 6
ENDMDL
MODEL 4
REMARK VINA RESULT:    -6.694      3.354      9.206
REMARK INTER + INTRA:          -9.677
REMARK INTER:                  -8.591
REMARK INTRA:                  -1.086
REMARK UNBOUND:                -0.830
REMARK  Name = 
REMARK  6 active torsions:
REMARK  status: ('A' for Active; 'I' for Inactive)
REMARK    1  A    between atoms: N_1  and  C_2
REMARK    2  A    between atoms: N_5  and  C_6
REMARK    3  A    between atoms: C_6  and  C_7
REMARK    4  A    between atoms: C_10  and  C_11
REMARK    5  A    between atoms: C_11  and  N_12
REMARK    6  A    between atoms: C_13  and  C_15
REMARK                            x       y       z     vdW  Elec       q    Type
REMARK                         _______ _______ _______ _____ _____    ______ ____
ROOT
ATOM      1  C   UNL     1      49.172   7.840  16.344  0.00  0.00    +0.000 A 
ATOM      2  C   UNL     1      48.282   8.840  15.920  0.00  0.00    +0.000 A 
ATOM      3  C   UNL     1      47.823   8.881  14.604  0.00  0.00    +0.000 A 
ATOM      4  C   UNL     1      48.265   7.936  13.672  0.00  0.00    +0.000 A 
ATOM      5  C   UNL     1      49.230   7.000  14.065  0.00  0.00    +0.000 A 
ATOM      6  C   UNL     1      49.666   6.939  15.392  0.00  0.00    +0.000 A 
ENDROOT
BRANCH   1   7
ATOM      7  C   UNL     1      49.544   7.717  17.810  0.00  0.00    +0.000 C 
BRANCH   7  11
ATOM      8  C   UNL     1      49.510   4.682  19.946  0.00  0.00    +0.000 C 
ATOM      9  C   UNL     1      49.886   6.084  20.431  0.00  0.00    +0.000 C 
ATOM     10  C   UNL     1      48.799   7.113  20.104  0.00  0.00    +0.000 C 
ATOM     11  N   UNL     1      48.469   7.184  18.670  0.00  0.00    +0.000 NA
ATOM     12  C   UNL     1      48.019   5.851  18.226  0.00  0.00    +0.000 C 
ATOM     13  C   UNL     1      49.032   4.727  18.489  0.00  0.00    +0.000 C 
BRANCH   8  14
ATOM     14  N   UNL     1      48.487   4.100  20.819  0.00  0.00    +0.000 NA
ATOM     15  H   UNL     1      48.514   3.084  20.748  0.00  0.00    +0.000 HD
ATOM     16  H   UNL     1      47.561   4.383  20.501  0.00  0.00    +0.000 HD
ENDBRANCH   8  14
ENDBRANCH   7  11
ENDBRANCH   1   7
BRANCH   4  17
ATOM     17  C   UNL     1      47.700   7.925  12.279  0.00  0.00    +0.000 C 
BRANCH  17  18
ATOM     18  N   UNL     1      47.009   6.696  11.989  0.00  0.00    +0.000 N 
ATOM     19  C   UNL     1      45.653   6.605  12.171  0.00  0.00    +0.000 C 
ATOM     20  O   UNL     1      44.980   7.568  12.530  0.00  0.00    +0.000 OA
ATOM     21  H   UNL     1      47.570   5.855  11.903  0.00  0.00    +0.000 HD
BRANCH  19  22
ATOM     22  C   UNL     1      45.027   5.317  11.857  0.00  0.00    +0.000 A 
ATOM     23  C   UNL     1      44.336   4.634  12.848  0.00  0.00    +0.000 A 
ATOM     24  S   UNL     1      43.639   3.173  12.315  0.00  0.00    +0.000 S 
ATOM     25  C   UNL     1      44.276   3.378  10.753  0.00  0.00    +0.000 A 
ATOM     26  N   UNL     1      44.071   2.441   9.787  0.00  0.00    +0.000 NA
ATOM     27  C   UNL     1      44.641   2.703   8.660  0.00  0.00    +0.000 A 
ATOM     28  N   UNL     1      45.387   3.824   8.405  0.00  0.00    +0.000 N 
ATOM     29  C   UNL     1      45.593   4.816   9.336  0.00  0.00    +0.000 A 
ATOM     30  O   UNL     1      46.221   5.830   9.056  0.00  0.00    +0.000 OA
ATOM     31  C   UNL     1      44.992   4.557  10.629  0.00  0.00    +0.000 A 
ATOM     32  H   UNL     1      45.794   3.978   7.493  0.00  0.00    +0.000 HD
ENDBRANCH  19  22
ENDBRANCH  17  18
ENDBRANCH   4  17
TORSDOF 6
ENDMDL
MODEL 5
REMARK VINA RESULT:    -6.665      4.654      7.101
REMARK INTER + INTRA:          -9.638
REMARK INTER:                  -8.676
REMARK INTRA:                  -0.962
REMARK UNBOUND:                -0.830
REMARK  Name = 
REMARK  6 active torsions:
REMARK  status: ('A' for Active; 'I' for Inactive)
REMARK    1  A    between atoms: N_1  and  C_2
REMARK    2  A    between atoms: N_5  and  C_6
REMARK    3  A    between atoms: C_6  and  C_7
REMARK    4  A    between atoms: C_10  and  C_11
REMARK    5  A    between atoms: C_11  and  N_12
REMARK    6  A    between atoms: C_13  and  C_15
REMARK                            x       y       z     vdW  Elec       q    Type
REMARK                         _______ _______ _______ _____ _____    ______ ____
ROOT
ATOM      1  C   UNL     1      46.815   5.032  14.604  0.00  0.00    +0.000 A 
ATOM      2  C   UNL     1      47.067   4.368  15.815  0.00  0.00    +0.000 A 
ATOM      3  C   UNL     1      48.053   4.822  16.691  0.00  0.00    +0.000 A 
ATOM      4  C   UNL     1      48.830   5.937  16.363  0.00  0.00    +0.000 A 
ATOM      5  C   UNL     1      48.652   6.540  15.112  0.00  0.00    +0.000 A 
ATOM      6  C   UNL     1      47.642   6.105  14.247  0.00  0.00    +0.000 A 
ENDROOT
BRANCH   1   7
ATOM      7  C   UNL     1      45.642   4.620  13.734  0.00  0.00    +0.000 C 
BRANCH   7  11
ATOM      8  C   UNL     1      43.391   4.826  10.790  0.00  0.00    +0.000 C 
ATOM      9  C   UNL     1      44.171   6.006  11.374  0.00  0.00    +0.000 C 
ATOM     10  C   UNL     1      45.667   5.700  11.495  0.00  0.00    +0.000 C 
ATOM     11  N   UNL     1      45.959   4.500  12.297  0.00  0.00    +0.000 NA
ATOM     12  C   UNL     1      45.280   3.346  11.679  0.00  0.00    +0.000 C 
ATOM     13  C   UNL     1      43.764   3.524  11.512  0.00  0.00    +0.000 C 
BRANCH   8  14
ATOM     14  N   UNL     1      43.638   4.718   9.349  0.00  0.00    +0.000 NA
ATOM     15  H   UNL     1      43.185   3.881   8.986  0.00  0.00    +0.000 HD
ATOM     16  H   UNL     1      44.635   4.598   9.178  0.00  0.00    +0.000 HD
ENDBRANCH   8  14
ENDBRANCH   7  11
ENDBRANCH   1   7
BRANCH   4  17
ATOM     17  C   UNL     1      49.829   6.480  17.347  0.00  0.00    +0.000 C 
BRANCH  17  18
ATOM     18  N   UNL     1      50.702   5.453  17.848  0.00  0.00    +0.000 N 
ATOM     19  C   UNL     1      51.966   5.308  17.336  0.00  0.00    +0.000 C 
ATOM     20  O   UNL     1      52.412   6.071  16.482  0.00  0.00    +0.000 OA
ATOM     21  H   UNL     1      50.280   4.702  18.384  0.00  0.00    +0.000 HD
BRANCH  19  22
ATOM     22  C   UNL     1      52.791   4.234  17.899  0.00  0.00    +0.000 A 
ATOM     23  C   UNL     1      53.985   4.551  18.531  0.00  0.00    +0.000 A 
ATOM     24  S   UNL     1      54.807   3.197  19.160  0.00  0.00    +0.000 S 
ATOM     25  C   UNL     1      53.619   2.135  18.569  0.00  0.00    +0.000 A 
ATOM     26  N   UNL     1      53.736   0.791  18.745  0.00  0.00    +0.000 NA
ATOM     27  C   UNL     1      52.785   0.099  18.214  0.00  0.00    +0.000 A 
ATOM     28  N   UNL     1      51.719   0.629  17.534  0.00  0.00    +0.000 N 
ATOM     29  C   UNL     1      51.538   1.982  17.362  0.00  0.00    +0.000 A 
ATOM     30  O   UNL     1      50.546   2.424  16.795  0.00  0.00    +0.000 OA
ATOM     31  C   UNL     1      52.594   2.804  17.920  0.00  0.00    +0.000 A 
ATOM     32  H   UNL     1      50.998   0.032  17.156  0.00  0.00    +0.000 HD
ENDBRANCH  19  22
ENDBRANCH  17  18
ENDBRANCH   4  17
TORSDOF 6
ENDMDL
MODEL 6
REMARK VINA RESULT:    -6.586      3.584      9.426
REMARK INTER + INTRA:          -9.534
REMARK INTER:                  -8.606
REMARK INTRA:                  -0.928
REMARK UNBOUND:                -0.830
REMARK  Name = 
REMARK  6 active torsions:
REMARK  status: ('A' for Active; 'I' for Inactive)
REMARK    1  A    between atoms: N_1  and  C_2
REMARK    2  A    between atoms: N_5  and  C_6
REMARK    3  A    between atoms: C_6  and  C_7
REMARK    4  A    between atoms: C_10  and  C_11
REMARK    5  A    between atoms: C_11  and  N_12
REMARK    6  A    between atoms: C_13  and  C_15
REMARK                            x       y       z     vdW  Elec       q    Type
REMARK                         _______ _______ _______ _____ _____    ______ ____
ROOT
ATOM      1  C   UNL     1      48.828   7.576  16.245  0.00  0.00    +0.000 A 
ATOM      2  C   UNL     1      48.377   8.824  15.788  0.00  0.00    +0.000 A 
ATOM      3  C   UNL     1      48.155   9.053  14.430  0.00  0.00    +0.000 A 
ATOM      4  C   UNL     1      48.405   8.046  13.494  0.00  0.00    +0.000 A 
ATOM      5  C   UNL     1      48.952   6.834  13.935  0.00  0.00    +0.000 A 
ATOM      6  C   UNL     1      49.144   6.593  15.299  0.00  0.00    +0.000 A 
ENDROOT
BRANCH   1   7
ATOM      7  C   UNL     1      48.920   7.293  17.733  0.00  0.00    +0.000 C 
BRANCH   7  11
ATOM      8  C   UNL     1      48.705   5.761  21.107  0.00  0.00    +0.000 C 
ATOM      9  C   UNL     1      47.672   6.725  20.521  0.00  0.00    +0.000 C 
ATOM     10  C   UNL     1      47.163   6.258  19.155  0.00  0.00    +0.000 C 
ATOM     11  N   UNL     1      48.234   6.059  18.164  0.00  0.00    +0.000 NA
ATOM     12  C   UNL     1      49.181   5.059  18.693  0.00  0.00    +0.000 C 
ATOM     13  C   UNL     1      49.776   5.419  20.062  0.00  0.00    +0.000 C 
BRANCH   8  14
ATOM     14  N   UNL     1      48.045   4.549  21.601  0.00  0.00    +0.000 NA
ATOM     15  H   UNL     1      47.225   4.804  22.148  0.00  0.00    +0.000 HD
ATOM     16  H   UNL     1      48.667   4.051  22.235  0.00  0.00    +0.000 HD
ENDBRANCH   8  14
ENDBRANCH   7  11
ENDBRANCH   1   7
BRANCH   4  17
ATOM     17  C   UNL     1      48.078   8.263  12.042  0.00  0.00    +0.000 C 
BRANCH  17  18
ATOM     18  N   UNL     1      47.472   7.101  11.448  0.00  0.00    +0.000 N 
ATOM     19  C   UNL     1      46.107   6.975  11.413  0.00  0.00    +0.000 C 
ATOM     20  O   UNL     1      45.362   7.858  11.830  0.00  0.00    +0.000 OA
ATOM     21  H   UNL     1      48.063   6.290  11.301  0.00  0.00    +0.000 HD
BRANCH  19  22
ATOM     22  C   UNL     1      45.570   5.758  10.794  0.00  0.00    +0.000 A 
ATOM     23  C   UNL     1      45.779   5.532   9.441  0.00  0.00    +0.000 A 
ATOM     24  S   UNL     1      45.124   4.061   8.884  0.00  0.00    +0.000 S 
ATOM     25  C   UNL     1      44.497   3.697  10.421  0.00  0.00    +0.000 A 
ATOM     26  N   UNL     1      43.778   2.560  10.629  0.00  0.00    +0.000 NA
ATOM     27  C   UNL     1      43.329   2.426  11.832  0.00  0.00    +0.000 A 
ATOM     28  N   UNL     1      43.545   3.319  12.850  0.00  0.00    +0.000 N 
ATOM     29  C   UNL     1      44.295   4.462  12.697  0.00  0.00    +0.000 A 
ATOM     30  O   UNL     1      44.513   5.210  13.643  0.00  0.00    +0.000 OA
ATOM     31  C   UNL     1      44.802   4.672  11.356  0.00  0.00    +0.000 A 
ATOM     32  H   UNL     1      43.179   3.147  13.775  0.00  0.00    +0.000 HD
ENDBRANCH  19  22
ENDBRANCH  17  18
ENDBRANCH   4  17
TORSDOF 6
ENDMDL
MODEL 7
REMARK VINA RESULT:    -6.532      4.817     10.048
REMARK INTER + INTRA:          -9.462
REMARK INTER:                  -8.651
REMARK INTRA:                  -0.811
REMARK UNBOUND:                -0.830
REMARK  Name = 
REMARK  6 active torsions:
REMARK  status: ('A' for Active; 'I' for Inactive)
REMARK    1  A    between atoms: N_1  and  C_2
REMARK    2  A    between atoms: N_5  and  C_6
REMARK    3  A    between atoms: C_6  and  C_7
REMARK    4  A    between atoms: C_10  and  C_11
REMARK    5  A    between atoms: C_11  and  N_12
REMARK    6  A    between atoms: C_13  and  C_15
REMARK                            x       y       z     vdW  Elec       q    Type
REMARK                         _______ _______ _______ _____ _____    ______ ____
ROOT
ATOM      1  C   UNL     1      51.262   3.901  17.953  0.00  0.00    +0.000 A 
ATOM      2  C   UNL     1      50.833   2.676  17.418  0.00  0.00    +0.000 A 
ATOM      3  C   UNL     1      49.498   2.475  17.067  0.00  0.00    +0.000 A 
ATOM      4  C   UNL     1      48.554   3.486  17.268  0.00  0.00    +0.000 A 
ATOM      5  C   UNL     1      48.958   4.671  17.896  0.00  0.00    +0.000 A 
ATOM      6  C   UNL     1      50.302   4.886  18.218  0.00  0.00    +0.000 A 
ENDROOT
BRANCH   1   7
ATOM      7  C   UNL     1      52.739   4.159  18.188  0.00  0.00    +0.000 C 
BRANCH   7  11
ATOM      8  C   UNL     1      54.542   5.970  20.880  0.00  0.00    +0.000 C 
ATOM      9  C   UNL     1      53.026   5.767  20.831  0.00  0.00    +0.000 C 
ATOM     10  C   UNL     1      52.651   4.291  20.669  0.00  0.00    +0.000 C 
ATOM     11  N   UNL     1      53.248   3.659  19.480  0.00  0.00    +0.000 NA
ATOM     12  C   UNL     1      54.716   3.775  19.575  0.00  0.00    +0.000 C 
ATOM     13  C   UNL     1      55.223   5.216  19.729  0.00  0.00    +0.000 C 
BRANCH   8  14
ATOM     14  N   UNL     1      55.071   5.538  22.177  0.00  0.00    +0.000 NA
ATOM     15  H   UNL     1      55.980   5.098  22.046  0.00  0.00    +0.000 HD
ATOM     16  H   UNL     1      54.464   4.824  22.576  0.00  0.00    +0.000 HD
ENDBRANCH   8  14
ENDBRANCH   7  11
ENDBRANCH   1   7
BRANCH   4  17
ATOM     17  C   UNL     1      47.135   3.302  16.806  0.00  0.00    +0.000 C 
BRANCH  17  18
ATOM     18  N   UNL     1      46.732   4.333  15.887  0.00  0.00    +0.000 N 
ATOM     19  C   UNL     1      46.903   4.162  14.537  0.00  0.00    +0.000 C 
ATOM     20  O   UNL     1      47.349   3.119  14.066  0.00  0.00    +0.000 OA
ATOM     21  H   UNL     1      46.568   5.259  16.267  0.00  0.00    +0.000 HD
BRANCH  19  22
ATOM     22  C   UNL     1      46.469   5.262  13.669  0.00  0.00    +0.000 A 
ATOM     23  C   UNL     1      47.295   6.365  13.502  0.00  0.00    +0.000 A 
ATOM     24  S   UNL     1      46.664   7.537  12.438  0.00  0.00    +0.000 S 
ATOM     25  C   UNL     1      45.244   6.634  12.201  0.00  0.00    +0.000 A 
ATOM     26  N   UNL     1      44.246   7.101  11.402  0.00  0.00    +0.000 NA
ATOM     27  C   UNL     1      43.210   6.335  11.340  0.00  0.00    +0.000 A 
ATOM     28  N   UNL     1      43.086   5.136  11.993  0.00  0.00    +0.000 N 
ATOM     29  C   UNL     1      44.080   4.605  12.782  0.00  0.00    +0.000 A 
ATOM     30  O   UNL     1      43.956   3.506  13.308  0.00  0.00    +0.000 OA
ATOM     31  C   UNL     1      45.258   5.441  12.904  0.00  0.00    +0.000 A 
ATOM     32  H   UNL     1      42.252   4.574  11.889  0.00  0.00    +0.000 HD
ENDBRANCH  19  22
ENDBRANCH  17  18
ENDBRANCH   4  17
TORSDOF 6
ENDMDL
MODEL 8
REMARK VINA RESULT:    -6.244      4.811      9.486
REMARK INTER + INTRA:          -9.081
REMARK INTER:                  -8.118
REMARK INTRA:                  -0.964
REMARK UNBOUND:                -0.830
REMARK  Name = 
REMARK  6 active torsions:
REMARK  status: ('A' for Active; 'I' for Inactive)
REMARK    1  A    between atoms: N_1  and  C_2
REMARK    2  A    between atoms: N_5  and  C_6
REMARK    3  A    between atoms: C_6  and  C_7
REMARK    4  A    between atoms: C_10  and  C_11
REMARK    5  A    between atoms: C_11  and  N_12
REMARK    6  A    between atoms: C_13  and  C_15
REMARK                            x       y       z     vdW  Elec       q    Type
REMARK                         _______ _______ _______ _____ _____    ______ ____
ROOT
ATOM      1  C   UNL     1      50.604   4.915  18.935  0.00  0.00    +0.000 A 
ATOM      2  C   UNL     1      50.661   3.817  18.062  0.00  0.00    +0.000 A 
ATOM      3  C   UNL     1      49.510   3.337  17.437  0.00  0.00    +0.000 A 
ATOM      4  C   UNL     1      48.269   3.928  17.691  0.00  0.00    +0.000 A 
ATOM      5  C   UNL     1      48.192   4.957  18.639  0.00  0.00    +0.000 A 
ATOM      6  C   UNL     1      49.350   5.460  19.242  0.00  0.00    +0.000 A 
ENDROOT
BRANCH   1   7
ATOM      7  C   UNL     1      51.880   5.521  19.489  0.00  0.00    +0.000 C 
BRANCH   7  11
ATOM      8  C   UNL     1      54.831   6.602  17.514  0.00  0.00    +0.000 C 
ATOM      9  C   UNL     1      53.505   6.133  16.912  0.00  0.00    +0.000 C 
ATOM     10  C   UNL     1      52.313   6.914  17.475  0.00  0.00    +0.000 C 
ATOM     11  N   UNL     1      52.211   6.853  18.943  0.00  0.00    +0.000 NA
ATOM     12  C   UNL     1      53.456   7.390  19.523  0.00  0.00    +0.000 C 
ATOM     13  C   UNL     1      54.730   6.680  19.043  0.00  0.00    +0.000 C 
BRANCH   8  14
ATOM     14  N   UNL     1      55.218   7.896  16.945  0.00  0.00    +0.000 NA
ATOM     15  H   UNL     1      54.412   8.520  16.935  0.00  0.00    +0.000 HD
ATOM     16  H   UNL     1      55.497   7.776  15.973  0.00  0.00    +0.000 HD
ENDBRANCH   8  14
ENDBRANCH   7  11
ENDBRANCH   1   7
BRANCH   4  17
ATOM     17  C   UNL     1      47.045   3.470  16.948  0.00  0.00    +0.000 C 
BRANCH  17  18
ATOM     18  N   UNL     1      46.641   4.417  15.943  0.00  0.00    +0.000 N 
ATOM     19  C   UNL     1      46.878   4.161  14.617  0.00  0.00    +0.000 C 
ATOM     20  O   UNL     1      47.385   3.108  14.239  0.00  0.00    +0.000 OA
ATOM     21  H   UNL     1      46.425   5.359  16.249  0.00  0.00    +0.000 HD
BRANCH  19  22
ATOM     22  C   UNL     1      46.439   5.180  13.656  0.00  0.00    +0.000 A 
ATOM     23  C   UNL     1      47.285   6.235  13.348  0.00  0.00    +0.000 A 
ATOM     24  S   UNL     1      46.643   7.311  12.192  0.00  0.00    +0.000 S 
ATOM     25  C   UNL     1      45.193   6.430  12.099  0.00  0.00    +0.000 A 
ATOM     26  N   UNL     1      44.177   6.842  11.292  0.00  0.00    +0.000 NA
ATOM     27  C   UNL     1      43.121   6.103  11.346  0.00  0.00    +0.000 A 
ATOM     28  N   UNL     1      42.992   4.981  12.123  0.00  0.00    +0.000 N 
ATOM     29  C   UNL     1      44.002   4.505  12.926  0.00  0.00    +0.000 A 
ATOM     30  O   UNL     1      43.870   3.469  13.566  0.00  0.00    +0.000 OA
ATOM     31  C   UNL     1      45.204   5.315  12.920  0.00  0.00    +0.000 A 
ATOM     32  H   UNL     1      42.141   4.436  12.107  0.00  0.00    +0.000 HD
ENDBRANCH  19  22
ENDBRANCH  17  18
ENDBRANCH   4  17
TORSDOF 6
ENDMDL
MODEL 9
REMARK VINA RESULT:    -6.206      4.382     10.434
REMARK INTER + INTRA:          -9.031
REMARK INTER:                  -7.923
REMARK INTRA:                  -1.108
REMARK UNBOUND:                -0.830
REMARK  Name = 
REMARK  6 active torsions:
REMARK  status: ('A' for Active; 'I' for Inactive)
REMARK    1  A    between atoms: N_1  and  C_2
REMARK    2  A    between atoms: N_5  and  C_6
REMARK    3  A    between atoms: C_6  and  C_7
REMARK    4  A    between atoms: C_10  and  C_11
REMARK    5  A    between atoms: C_11  and  N_12
REMARK    6  A    between atoms: C_13  and  C_15
REMARK                            x       y       z     vdW  Elec       q    Type
REMARK                         _______ _______ _______ _____ _____    ______ ____
ROOT
ATOM      1  C   UNL     1      48.209   6.971  19.341  0.00  0.00    +0.000 A 
ATOM      2  C   UNL     1      49.248   6.844  18.406  0.00  0.00    +0.000 A 
ATOM      3  C   UNL     1      49.162   5.927  17.358  0.00  0.00    +0.000 A 
ATOM      4  C   UNL     1      48.044   5.096  17.236  0.00  0.00    +0.000 A 
ATOM      5  C   UNL     1      47.053   5.148  18.225  0.00  0.00    +0.000 A 
ATOM      6  C   UNL     1      47.124   6.089  19.257  0.00  0.00    +0.000 A 
ENDROOT
BRANCH   1   7
ATOM      7  C   UNL     1      48.247   8.073  20.383  0.00  0.00    +0.000 C 
BRANCH   7  11
ATOM      8  C   UNL     1      48.554  11.771  20.474  0.00  0.00    +0.000 C 
ATOM      9  C   UNL     1      48.619  10.922  19.202  0.00  0.00    +0.000 C 
ATOM     10  C   UNL     1      47.402  10.003  19.064  0.00  0.00    +0.000 C 
ATOM     11  N   UNL     1      47.207   9.108  20.217  0.00  0.00    +0.000 NA
ATOM     12  C   UNL     1      47.053   9.932  21.430  0.00  0.00    +0.000 C 
ATOM     13  C   UNL     1      48.222  10.894  21.689  0.00  0.00    +0.000 C 
BRANCH   8  14
ATOM     14  N   UNL     1      47.572  12.847  20.316  0.00  0.00    +0.000 NA
ATOM     15  H   UNL     1      47.944  13.710  20.710  0.00  0.00    +0.000 HD
ATOM     16  H   UNL     1      46.733  12.629  20.851  0.00  0.00    +0.000 HD
ENDBRANCH   8  14
ENDBRANCH   7  11
ENDBRANCH   1   7
BRANCH   4  17
ATOM     17  C   UNL     1      47.910   4.174  16.056  0.00  0.00    +0.000 C 
BRANCH  17  18
ATOM     18  N   UNL     1      46.945   4.658  15.104  0.00  0.00    +0.000 N 
ATOM     19  C   UNL     1      47.337   5.483  14.082  0.00  0.00    +0.000 C 
ATOM     20  O   UNL     1      48.513   5.793  13.911  0.00  0.00    +0.000 OA
ATOM     21  H   UNL     1      45.965   4.586  15.355  0.00  0.00    +0.000 HD
BRANCH  19  22
ATOM     22  C   UNL     1      46.291   5.935  13.157  0.00  0.00    +0.000 A 
ATOM     23  C   UNL     1      46.134   7.292  12.915  0.00  0.00    +0.000 A 
ATOM     24  S   UNL     1      44.902   7.650  11.793  0.00  0.00    +0.000 S 
ATOM     25  C   UNL     1      44.505   6.006  11.627  0.00  0.00    +0.000 A 
ATOM     26  N   UNL     1      43.485   5.614  10.814  0.00  0.00    +0.000 NA
ATOM     27  C   UNL     1      43.266   4.342  10.809  0.00  0.00    +0.000 A 
ATOM     28  N   UNL     1      43.982   3.424  11.533  0.00  0.00    +0.000 N 
ATOM     29  C   UNL     1      45.043   3.767  12.339  0.00  0.00    +0.000 A 
ATOM     30  O   UNL     1      45.694   2.914  12.929  0.00  0.00    +0.000 OA
ATOM     31  C   UNL     1      45.315   5.190  12.398  0.00  0.00    +0.000 A 
ATOM     32  H   UNL     1      43.769   2.438  11.472  0.00  0.00    +0.000 HD
ENDBRANCH  19  22
ENDBRANCH  17  18
ENDBRANCH   4  17
TORSDOF 6
ENDMDL
