MODEL 1
REMARK VINA RESULT:    -7.432      0.000      0.000
REMARK INTER + INTRA:         -10.285
REMARK INTER:                  -9.822
REMARK INTRA:                  -0.463
REMARK UNBOUND:                -0.463
REMARK  Name = 
REMARK  6 active torsions:
REMARK  status: ('A' for Active; 'I' for Inactive)
REMARK    1  A    between atoms: N_1  and  C_2
REMARK    2  A    between atoms: C_2  and  C_3
REMARK    3  A    between atoms: C_7  and  C_8
REMARK    4  A    between atoms: C_9  and  S_10
REMARK    5  A    between atoms: S_10  and  C_11
REMARK    6  A    between atoms: C_14  and  C_15
REMARK                            x       y       z     vdW  Elec       q    Type
REMARK                         _______ _______ _______ _____ _____    ______ ____
ROOT
ATOM      1  C   UNL     1      45.449   4.341  12.531  0.00  0.00    +0.000 C 
ATOM      2  C   UNL     1      44.815   5.154  11.672  0.00  0.00    +0.000 C 
ENDROOT
BRANCH   1   7
ATOM      3  C   UNL     1      47.533   4.564  15.658  0.00  0.00    +0.000 A 
ATOM      4  C   UNL     1      48.182   5.773  15.405  0.00  0.00    +0.000 A 
ATOM      5  C   UNL     1      47.896   6.442  14.228  0.00  0.00    +0.000 A 
ATOM      6  N   UNL     1      47.023   5.998  13.300  0.00  0.00    +0.000 NA
ATOM      7  C   UNL     1      46.396   4.824  13.547  0.00  0.00    +0.000 A 
ATOM      8  C   UNL     1      46.618   4.088  14.708  0.00  0.00    +0.000 A 
BRANCH   3   9
ATOM      9  C   UNL     1      47.807   3.785  16.916  0.00  0.00    +0.000 C 
BRANCH   9  10
ATOM     10  N   UNL     1      46.578   3.234  17.473  0.00  0.00    +0.000 NA
ATOM     11  H   UNL     1      46.199   2.542  16.831  0.00  0.00    +0.000 HD
ATOM     12  H   UNL     1      45.882   3.976  17.538  0.00  0.00    +0.000 HD
ENDBRANCH   9  10
ENDBRANCH   3   9
ENDBRANCH   1   7
BRANCH   2  13
ATOM     13  S   UNL     1      43.697   4.544  10.504  0.00  0.00    +0.000 S 
BRANCH  13  14
ATOM     14  C   UNL     1      44.744   3.654   9.357  0.00  0.00    +0.000 A 
ATOM     15  C   UNL     1      44.882   2.261   9.313  0.00  0.00    +0.000 A 
ATOM     16  C   UNL     1      45.773   1.660   8.413  0.00  0.00    +0.000 A 
ATOM     17  C   UNL     1      46.537   2.440   7.539  0.00  0.00    +0.000 A 
ATOM     18  C   UNL     1      46.405   3.831   7.573  0.00  0.00    +0.000 A 
ATOM     19  C   UNL     1      45.514   4.427   8.474  0.00  0.00    +0.000 A 
BRANCH  17  20
ATOM     20  C   UNL     1      47.495   1.749   6.635  0.00  0.00    +0.000 C 
ATOM     21  N   UNL     1      48.579   2.457   6.198  0.00  0.00    +0.000 N 
ATOM     22  O   UNL     1      47.314   0.596   6.269  0.00  0.00    +0.000 OA
ATOM     23  H   UNL     1      48.658   3.459   6.290  0.00  0.00    +0.000 HD
ATOM     24  H   UNL     1      49.162   1.999   5.509  0.00  0.00    +0.000 HD
ENDBRANCH  17  20
ENDBRANCH  13  14
ENDBRANCH   2  13
TORSDOF 6
ENDMDL
MODEL 2
REMARK VINA RESULT:    -7.270      1.080      2.075
REMARK INTER + INTRA:         -10.071
REMARK INTER:                  -9.585
REMARK INTRA:                  -0.486
REMARK UNBOUND:                -0.463
REMARK  Name = 
REMARK  6 active torsions:
REMARK  status: ('A' for Active; 'I' for Inactive)
REMARK    1  A    between atoms: N_1  and  C_2
REMARK    2  A    between atoms: C_2  and  C_3
REMARK    3  A    between atoms: C_7  and  C_8
REMARK    4  A    between atoms: C_9  and  S_10
REMARK    5  A    between atoms: S_10  and  C_11
REMARK    6  A    between atoms: C_14  and  C_15
REMARK                            x       y       z     vdW  Elec       q    Type
REMARK                         _______ _______ _______ _____ _____    ______ ____
ROOT
ATOM      1  C   UNL     1      45.455   4.323  12.487  0.00  0.00    +0.000 C 
ATOM      2  C   UNL     1      44.741   5.169  11.730  0.00  0.00    +0.000 C 
ENDROOT
BRANCH   1   7
ATOM      3  C   UNL     1      48.052   6.305  14.357  0.00  0.00    +0.000 A 
ATOM      4  C   UNL     1      48.097   5.555  15.533  0.00  0.00    +0.000 A 
ATOM      5  C   UNL     1      47.277   4.446  15.641  0.00  0.00    +0.000 A 
ATOM      6  N   UNL     1      46.428   4.038  14.675  0.00  0.00    +0.000 NA
ATOM      7  C   UNL     1      46.385   4.768  13.535  0.00  0.00    +0.000 A 
ATOM      8  C   UNL     1      47.180   5.893  13.339  0.00  0.00    +0.000 A 
BRANCH   3   9
ATOM      9  C   UNL     1      48.913   7.527  14.182  0.00  0.00    +0.000 C 
BRANCH   9  10
ATOM     10  N   UNL     1      50.328   7.180  14.196  0.00  0.00    +0.000 NA
ATOM     11  H   UNL     1      50.870   7.989  14.492  0.00  0.00    +0.000 HD
ATOM     12  H   UNL     1      50.628   6.967  13.245  0.00  0.00    +0.000 HD
ENDBRANCH   9  10
ENDBRANCH   3   9
ENDBRANCH   1   7
BRANCH   2  13
ATOM     13  S   UNL     1      43.646   4.602  10.519  0.00  0.00    +0.000 S 
BRANCH  13  14
ATOM     14  C   UNL     1      44.708   3.702   9.393  0.00  0.00    +0.000 A 
ATOM     15  C   UNL     1      44.839   2.308   9.358  0.00  0.00    +0.000 A 
ATOM     16  C   UNL     1      45.742   1.699   8.475  0.00  0.00    +0.000 A 
ATOM     17  C   UNL     1      46.524   2.472   7.611  0.00  0.00    +0.000 A 
ATOM     18  C   UNL     1      46.398   3.863   7.637  0.00  0.00    +0.000 A 
ATOM     19  C   UNL     1      45.495   4.467   8.520  0.00  0.00    +0.000 A 
BRANCH  17  20
ATOM     20  C   UNL     1      47.493   1.772   6.726  0.00  0.00    +0.000 C 
ATOM     21  N   UNL     1      48.523   2.506   6.207  0.00  0.00    +0.000 N 
ATOM     22  O   UNL     1      47.366   0.588   6.445  0.00  0.00    +0.000 OA
ATOM     23  H   UNL     1      48.548   3.515   6.228  0.00  0.00    +0.000 HD
ATOM     24  H   UNL     1      49.111   2.033   5.532  0.00  0.00    +0.000 HD
ENDBRANCH  17  20
ENDBRANCH  13  14
ENDBRANCH   2  13
TORSDOF 6
ENDMDL
MODEL 3
REMARK VINA RESULT:    -6.647      1.848      2.499
REMARK INTER + INTRA:          -9.247
REMARK INTER:                  -9.065
REMARK INTRA:                  -0.182
REMARK UNBOUND:                -0.463
REMARK  Name = 
REMARK  6 active torsions:
REMARK  status: ('A' for Active; 'I' for Inactive)
REMARK    1  A    between atoms: N_1  and  C_2
REMARK    2  A    between atoms: C_2  and  C_3
REMARK    3  A    between atoms: C_7  and  C_8
REMARK    4  A    between atoms: C_9  and  S_10
REMARK    5  A    between atoms: S_10  and  C_11
REMARK    6  A    between atoms: C_14  and  C_15
REMARK                            x       y       z     vdW  Elec       q    Type
REMARK                         _______ _______ _______ _____ _____    ______ ____
ROOT
ATOM      1  C   UNL     1      44.954   5.797  11.292  0.00  0.00    +0.000 C 
ATOM      2  C   UNL     1      44.630   4.572  11.734  0.00  0.00    +0.000 C 
ENDROOT
BRANCH   1   7
ATOM      3  C   UNL     1      47.468   7.319  13.645  0.00  0.00    +0.000 A 
ATOM      4  C   UNL     1      47.050   8.649  13.583  0.00  0.00    +0.000 A 
ATOM      5  C   UNL     1      45.970   8.966  12.777  0.00  0.00    +0.000 A 
ATOM      6  N   UNL     1      45.289   8.064  12.040  0.00  0.00    +0.000 NA
ATOM      7  C   UNL     1      45.696   6.775  12.101  0.00  0.00    +0.000 A 
ATOM      8  C   UNL     1      46.768   6.366  12.890  0.00  0.00    +0.000 A 
BRANCH   3   9
ATOM      9  C   UNL     1      48.640   6.912  14.496  0.00  0.00    +0.000 C 
BRANCH   9  10
ATOM     10  N   UNL     1      48.298   5.795  15.365  0.00  0.00    +0.000 NA
ATOM     11  H   UNL     1      47.745   5.119  14.842  0.00  0.00    +0.000 HD
ATOM     12  H   UNL     1      47.699   6.131  16.119  0.00  0.00    +0.000 HD
ENDBRANCH   9  10
ENDBRANCH   3   9
ENDBRANCH   1   7
BRANCH   2  13
ATOM     13  S   UNL     1      43.770   3.448  10.742  0.00  0.00    +0.000 S 
BRANCH  13  14
ATOM     14  C   UNL     1      44.876   3.191   9.358  0.00  0.00    +0.000 A 
ATOM     15  C   UNL     1      45.289   4.189   8.467  0.00  0.00    +0.000 A 
ATOM     16  C   UNL     1      46.114   3.876   7.378  0.00  0.00    +0.000 A 
ATOM     17  C   UNL     1      46.543   2.562   7.163  0.00  0.00    +0.000 A 
ATOM     18  C   UNL     1      46.138   1.560   8.048  0.00  0.00    +0.000 A 
ATOM     19  C   UNL     1      45.314   1.877   9.135  0.00  0.00    +0.000 A 
BRANCH  17  20
ATOM     20  C   UNL     1      47.383   2.284   5.968  0.00  0.00    +0.000 C 
ATOM     21  N   UNL     1      48.740   2.310   6.126  0.00  0.00    +0.000 N 
ATOM     22  O   UNL     1      46.886   2.064   4.872  0.00  0.00    +0.000 OA
ATOM     23  H   UNL     1      49.194   2.695   6.941  0.00  0.00    +0.000 HD
ATOM     24  H   UNL     1      49.289   2.214   5.281  0.00  0.00    +0.000 HD
ENDBRANCH  17  20
ENDBRANCH  13  14
ENDBRANCH   2  13
TORSDOF 6
ENDMDL
MODEL 4
REMARK VINA RESULT:    -6.311      1.891      3.377
REMARK INTER + INTRA:          -8.804
REMARK INTER:                  -8.360
REMARK INTRA:                  -0.444
REMARK UNBOUND:                -0.463
REMARK  Name = 
REMARK  6 active torsions:
REMARK  status: ('A' for Active; 'I' for Inactive)
REMARK    1  A    between atoms: N_1  and  C_2
REMARK    2  A    between atoms: C_2  and  C_3
REMARK    3  A    between atoms: C_7  and  C_8
REMARK    4  A    between atoms: C_9  and  S_10
REMARK    5  A    between atoms: S_10  and  C_11
REMARK    6  A    between atoms: C_14  and  C_15
REMARK                            x       y       z     vdW  Elec       q    Type
REMARK                         _______ _______ _______ _____ _____    ______ ____
ROOT
ATOM      1  C   UNL     1      45.829   5.349  11.940  0.00  0.00    +0.000 C 
ATOM      2  C   UNL     1      44.587   5.568  11.483  0.00  0.00    +0.000 C 
ENDROOT
BRANCH   1   7
ATOM      3  C   UNL     1      47.319   8.676  12.880  0.00  0.00    +0.000 A 
ATOM      4  C   UNL     1      48.149   8.259  13.922  0.00  0.00    +0.000 A 
ATOM      5  C   UNL     1      48.172   6.915  14.251  0.00  0.00    +0.000 A 
ATOM      6  N   UNL     1      47.437   5.972  13.625  0.00  0.00    +0.000 NA
ATOM      7  C   UNL     1      46.632   6.379  12.616  0.00  0.00    +0.000 A 
ATOM      8  C   UNL     1      46.552   7.710  12.214  0.00  0.00    +0.000 A 
BRANCH   3   9
ATOM      9  C   UNL     1      47.244  10.125  12.480  0.00  0.00    +0.000 C 
BRANCH   9  10
ATOM     10  N   UNL     1      45.865  10.539  12.257  0.00  0.00    +0.000 NA
ATOM     11  H   UNL     1      45.320  10.360  13.098  0.00  0.00    +0.000 HD
ATOM     12  H   UNL     1      45.459   9.959  11.524  0.00  0.00    +0.000 HD
ENDBRANCH   9  10
ENDBRANCH   3   9
ENDBRANCH   1   7
BRANCH   2  13
ATOM     13  S   UNL     1      43.673   4.323  10.709  0.00  0.00    +0.000 S 
BRANCH  13  14
ATOM     14  C   UNL     1      44.795   3.704   9.459  0.00  0.00    +0.000 A 
ATOM     15  C   UNL     1      45.396   4.485   8.465  0.00  0.00    +0.000 A 
ATOM     16  C   UNL     1      46.219   3.897   7.494  0.00  0.00    +0.000 A 
ATOM     17  C   UNL     1      46.458   2.519   7.504  0.00  0.00    +0.000 A 
ATOM     18  C   UNL     1      45.864   1.730   8.493  0.00  0.00    +0.000 A 
ATOM     19  C   UNL     1      45.044   2.323   9.461  0.00  0.00    +0.000 A 
BRANCH  17  20
ATOM     20  C   UNL     1      47.305   1.945   6.425  0.00  0.00    +0.000 C 
ATOM     21  N   UNL     1      46.948   2.205   5.132  0.00  0.00    +0.000 N 
ATOM     22  O   UNL     1      48.275   1.242   6.676  0.00  0.00    +0.000 OA
ATOM     23  H   UNL     1      46.051   2.586   4.872  0.00  0.00    +0.000 HD
ATOM     24  H   UNL     1      47.482   1.725   4.417  0.00  0.00    +0.000 HD
ENDBRANCH  17  20
ENDBRANCH  13  14
ENDBRANCH   2  13
TORSDOF 6
ENDMDL
MODEL 5
REMARK VINA RESULT:    -5.775      4.290      5.278
REMARK INTER + INTRA:          -8.095
REMARK INTER:                  -7.546
REMARK INTRA:                  -0.550
REMARK UNBOUND:                -0.463
REMARK  Name = 
REMARK  6 active torsions:
REMARK  status: ('A' for Active; 'I' for Inactive)
REMARK    1  A    between atoms: N_1  and  C_2
REMARK    2  A    between atoms: C_2  and  C_3
REMARK    3  A    between atoms: C_7  and  C_8
REMARK    4  A    between atoms: C_9  and  S_10
REMARK    5  A    between atoms: S_10  and  C_11
REMARK    6  A    between atoms: C_14  and  C_15
REMARK                            x       y       z     vdW  Elec       q    Type
REMARK                         _______ _______ _______ _____ _____    ______ ____
ROOT
ATOM      1  C   UNL     1      48.562   7.077  14.938  0.00  0.00    +0.000 C 
ATOM      2  C   UNL     1      49.168   7.348  13.772  0.00  0.00    +0.000 C 
ENDROOT
BRANCH   1   7
ATOM      3  C   UNL     1      48.793   4.219  17.377  0.00  0.00    +0.000 A 
ATOM      4  C   UNL     1      50.137   4.341  17.732  0.00  0.00    +0.000 A 
ATOM      5  C   UNL     1      50.884   5.352  17.154  0.00  0.00    +0.000 A 
ATOM      6  N   UNL     1      50.394   6.235  16.260  0.00  0.00    +0.000 NA
ATOM      7  C   UNL     1      49.090   6.115  15.916  0.00  0.00    +0.000 A 
ATOM      8  C   UNL     1      48.264   5.132  16.453  0.00  0.00    +0.000 A 
BRANCH   3   9
ATOM      9  C   UNL     1      47.929   3.135  17.965  0.00  0.00    +0.000 C 
BRANCH   9  10
ATOM     10  N   UNL     1      46.573   3.197  17.436  0.00  0.00    +0.000 NA
ATOM     11  H   UNL     1      46.325   4.168  17.260  0.00  0.00    +0.000 HD
ATOM     12  H   UNL     1      45.924   2.860  18.146  0.00  0.00    +0.000 HD
ENDBRANCH   9  10
ENDBRANCH   3   9
ENDBRANCH   1   7
BRANCH   2  13
ATOM     13  S   UNL     1      48.520   8.500  12.658  0.00  0.00    +0.000 S 
BRANCH  13  14
ATOM     14  C   UNL     1      46.955   7.774  12.180  0.00  0.00    +0.000 A 
ATOM     15  C   UNL     1      45.698   8.320  12.465  0.00  0.00    +0.000 A 
ATOM     16  C   UNL     1      44.526   7.646  12.095  0.00  0.00    +0.000 A 
ATOM     17  C   UNL     1      44.591   6.416  11.433  0.00  0.00    +0.000 A 
ATOM     18  C   UNL     1      45.841   5.863  11.142  0.00  0.00    +0.000 A 
ATOM     19  C   UNL     1      47.009   6.541  11.512  0.00  0.00    +0.000 A 
BRANCH  17  20
ATOM     20  C   UNL     1      43.315   5.728  11.103  0.00  0.00    +0.000 C 
ATOM     21  N   UNL     1      42.178   6.170  11.718  0.00  0.00    +0.000 N 
ATOM     22  O   UNL     1      43.278   4.781  10.329  0.00  0.00    +0.000 OA
ATOM     23  H   UNL     1      42.186   6.790  12.515  0.00  0.00    +0.000 HD
ATOM     24  H   UNL     1      41.341   5.625  11.553  0.00  0.00    +0.000 HD
ENDBRANCH  17  20
ENDBRANCH  13  14
ENDBRANCH   2  13
TORSDOF 6
ENDMDL
MODEL 6
REMARK VINA RESULT:    -5.761      5.350      7.369
REMARK INTER + INTRA:          -8.076
REMARK INTER:                  -7.617
REMARK INTRA:                  -0.459
REMARK UNBOUND:                -0.463
REMARK  Name = 
REMARK  6 active torsions:
REMARK  status: ('A' for Active; 'I' for Inactive)
REMARK    1  A    between atoms: N_1  and  C_2
REMARK    2  A    between atoms: C_2  and  C_3
REMARK    3  A    between atoms: C_7  and  C_8
REMARK    4  A    between atoms: C_9  and  S_10
REMARK    5  A    between atoms: S_10  and  C_11
REMARK    6  A    between atoms: C_14  and  C_15
REMARK                            x       y       z     vdW  Elec       q    Type
REMARK                         _______ _______ _______ _____ _____    ______ ____
ROOT
ATOM      1  C   UNL     1      44.232   9.162  11.118  0.00  0.00    +0.000 C 
ATOM      2  C   UNL     1      45.047   9.492  12.131  0.00  0.00    +0.000 C 
ENDROOT
BRANCH   1   7
ATOM      3  C   UNL     1      40.974  10.820  10.221  0.00  0.00    +0.000 A 
ATOM      4  C   UNL     1      41.466  11.863   9.435  0.00  0.00    +0.000 A 
ATOM      5  C   UNL     1      42.834  11.958   9.244  0.00  0.00    +0.000 A 
ATOM      6  N   UNL     1      43.731  11.101   9.775  0.00  0.00    +0.000 NA
ATOM      7  C   UNL     1      43.251  10.091  10.538  0.00  0.00    +0.000 A 
ATOM      8  C   UNL     1      41.890   9.916  10.777  0.00  0.00    +0.000 A 
BRANCH   3   9
ATOM      9  C   UNL     1      39.498  10.669  10.472  0.00  0.00    +0.000 C 
BRANCH   9  10
ATOM     10  N   UNL     1      39.230   9.567  11.388  0.00  0.00    +0.000 NA
ATOM     11  H   UNL     1      38.425   9.800  11.967  0.00  0.00    +0.000 HD
ATOM     12  H   UNL     1      40.020   9.465  12.025  0.00  0.00    +0.000 HD
ENDBRANCH   9  10
ENDBRANCH   3   9
ENDBRANCH   1   7
BRANCH   2  13
ATOM     13  S   UNL     1      46.198   8.373  12.771  0.00  0.00    +0.000 S 
BRANCH  13  14
ATOM     14  C   UNL     1      45.598   6.789  12.193  0.00  0.00    +0.000 A 
ATOM     15  C   UNL     1      45.985   6.175  10.996  0.00  0.00    +0.000 A 
ATOM     16  C   UNL     1      45.415   4.956  10.601  0.00  0.00    +0.000 A 
ATOM     17  C   UNL     1      44.451   4.331  11.399  0.00  0.00    +0.000 A 
ATOM     18  C   UNL     1      44.059   4.935  12.596  0.00  0.00    +0.000 A 
ATOM     19  C   UNL     1      44.632   6.151  12.986  0.00  0.00    +0.000 A 
BRANCH  17  20
ATOM     20  C   UNL     1      43.851   3.061  10.909  0.00  0.00    +0.000 C 
ATOM     21  N   UNL     1      44.259   2.595   9.691  0.00  0.00    +0.000 N 
ATOM     22  O   UNL     1      43.003   2.461  11.555  0.00  0.00    +0.000 OA
ATOM     23  H   UNL     1      44.781   3.154   9.032  0.00  0.00    +0.000 HD
ATOM     24  H   UNL     1      43.767   1.784   9.337  0.00  0.00    +0.000 HD
ENDBRANCH  17  20
ENDBRANCH  13  14
ENDBRANCH   2  13
TORSDOF 6
ENDMDL
MODEL 7
REMARK VINA RESULT:    -5.419      3.783      4.917
REMARK INTER + INTRA:          -7.625
REMARK INTER:                  -7.216
REMARK INTRA:                  -0.409
REMARK UNBOUND:                -0.463
REMARK  Name = 
REMARK  6 active torsions:
REMARK  status: ('A' for Active; 'I' for Inactive)
REMARK    1  A    between atoms: N_1  and  C_2
REMARK    2  A    between atoms: C_2  and  C_3
REMARK    3  A    between atoms: C_7  and  C_8
REMARK    4  A    between atoms: C_9  and  S_10
REMARK    5  A    between atoms: S_10  and  C_11
REMARK    6  A    between atoms: C_14  and  C_15
REMARK                            x       y       z     vdW  Elec       q    Type
REMARK                         _______ _______ _______ _____ _____    ______ ____
ROOT
ATOM      1  C   UNL     1      49.292   7.017  14.965  0.00  0.00    +0.000 C 
ATOM      2  C   UNL     1      48.295   7.619  14.299  0.00  0.00    +0.000 C 
ENDROOT
BRANCH   1   7
ATOM      3  C   UNL     1      48.671   6.468  18.637  0.00  0.00    +0.000 A 
ATOM      4  C   UNL     1      49.745   7.193  19.153  0.00  0.00    +0.000 A 
ATOM      5  C   UNL     1      50.606   7.819  18.268  0.00  0.00    +0.000 A 
ATOM      6  N   UNL     1      50.473   7.773  16.926  0.00  0.00    +0.000 NA
ATOM      7  C   UNL     1      49.430   7.068  16.428  0.00  0.00    +0.000 A 
ATOM      8  C   UNL     1      48.513   6.413  17.244  0.00  0.00    +0.000 A 
BRANCH   3   9
ATOM      9  C   UNL     1      47.705   5.758  19.547  0.00  0.00    +0.000 C 
BRANCH   9  10
ATOM     10  N   UNL     1      46.471   5.425  18.848  0.00  0.00    +0.000 NA
ATOM     11  H   UNL     1      46.587   5.610  17.854  0.00  0.00    +0.000 HD
ATOM     12  H   UNL     1      45.729   6.046  19.170  0.00  0.00    +0.000 HD
ENDBRANCH   9  10
ENDBRANCH   3   9
ENDBRANCH   1   7
BRANCH   2  13
ATOM     13  S   UNL     1      48.162   7.518  12.579  0.00  0.00    +0.000 S 
BRANCH  13  14
ATOM     14  C   UNL     1      46.943   6.229  12.335  0.00  0.00    +0.000 A 
ATOM     15  C   UNL     1      46.690   5.186  13.234  0.00  0.00    +0.000 A 
ATOM     16  C   UNL     1      45.752   4.191  12.926  0.00  0.00    +0.000 A 
ATOM     17  C   UNL     1      45.050   4.224  11.717  0.00  0.00    +0.000 A 
ATOM     18  C   UNL     1      45.293   5.262  10.815  0.00  0.00    +0.000 A 
ATOM     19  C   UNL     1      46.231   6.254  11.126  0.00  0.00    +0.000 A 
BRANCH  17  20
ATOM     20  C   UNL     1      44.097   3.118  11.428  0.00  0.00    +0.000 C 
ATOM     21  N   UNL     1      43.687   2.344  12.476  0.00  0.00    +0.000 N 
ATOM     22  O   UNL     1      43.710   2.886  10.291  0.00  0.00    +0.000 OA
ATOM     23  H   UNL     1      44.137   2.353  13.379  0.00  0.00    +0.000 HD
ATOM     24  H   UNL     1      43.117   1.540  12.240  0.00  0.00    +0.000 HD
ENDBRANCH  17  20
ENDBRANCH  13  14
ENDBRANCH   2  13
TORSDOF 6
ENDMDL
MODEL 8
REMARK VINA RESULT:    -4.985      6.039      8.214
REMARK INTER + INTRA:          -7.051
REMARK INTER:                  -6.650
REMARK INTRA:                  -0.401
REMARK UNBOUND:                -0.463
REMARK  Name = 
REMARK  6 active torsions:
REMARK  status: ('A' for Active; 'I' for Inactive)
REMARK    1  A    between atoms: N_1  and  C_2
REMARK    2  A    between atoms: C_2  and  C_3
REMARK    3  A    between atoms: C_7  and  C_8
REMARK    4  A    between atoms: C_9  and  S_10
REMARK    5  A    between atoms: S_10  and  C_11
REMARK    6  A    between atoms: C_14  and  C_15
REMARK                            x       y       z     vdW  Elec       q    Type
REMARK                         _______ _______ _______ _____ _____    ______ ____
ROOT
ATOM      1  C   UNL     1      42.796  10.619  11.175  0.00  0.00    +0.000 C 
ATOM      2  C   UNL     1      43.856  10.373  11.959  0.00  0.00    +0.000 C 
ENDROOT
BRANCH   1   7
ATOM      3  C   UNL     1      39.109  10.870  11.894  0.00  0.00    +0.000 A 
ATOM      4  C   UNL     1      39.119  12.012  12.697  0.00  0.00    +0.000 A 
ATOM      5  C   UNL     1      40.330  12.630  12.952  0.00  0.00    +0.000 A 
ATOM      6  N   UNL     1      41.514  12.197  12.471  0.00  0.00    +0.000 NA
ATOM      7  C   UNL     1      41.502  11.089  11.693  0.00  0.00    +0.000 A 
ATOM      8  C   UNL     1      40.330  10.408  11.380  0.00  0.00    +0.000 A 
BRANCH   3   9
ATOM      9  C   UNL     1      37.825  10.148  11.587  0.00  0.00    +0.000 C 
BRANCH   9  10
ATOM     10  N   UNL     1      38.011   8.703  11.626  0.00  0.00    +0.000 NA
ATOM     11  H   UNL     1      37.644   8.294  10.769  0.00  0.00    +0.000 HD
ATOM     12  H   UNL     1      37.454   8.317  12.388  0.00  0.00    +0.000 HD
ENDBRANCH   9  10
ENDBRANCH   3   9
ENDBRANCH   1   7
BRANCH   2  13
ATOM     13  S   UNL     1      45.363   9.836  11.305  0.00  0.00    +0.000 S 
BRANCH  13  14
ATOM     14  C   UNL     1      45.491   8.151  11.894  0.00  0.00    +0.000 A 
ATOM     15  C   UNL     1      46.526   7.659  12.699  0.00  0.00    +0.000 A 
ATOM     16  C   UNL     1      46.566   6.306  13.063  0.00  0.00    +0.000 A 
ATOM     17  C   UNL     1      45.572   5.423  12.631  0.00  0.00    +0.000 A 
ATOM     18  C   UNL     1      44.534   5.903  11.829  0.00  0.00    +0.000 A 
ATOM     19  C   UNL     1      44.497   7.256  11.469  0.00  0.00    +0.000 A 
BRANCH  17  20
ATOM     20  C   UNL     1      45.690   3.991  13.014  0.00  0.00    +0.000 C 
ATOM     21  N   UNL     1      46.759   3.626  13.783  0.00  0.00    +0.000 N 
ATOM     22  O   UNL     1      44.879   3.156  12.636  0.00  0.00    +0.000 OA
ATOM     23  H   UNL     1      47.560   4.221  13.934  0.00  0.00    +0.000 HD
ATOM     24  H   UNL     1      46.871   2.633  13.949  0.00  0.00    +0.000 HD
ENDBRANCH  17  20
ENDBRANCH  13  14
ENDBRANCH   2  13
TORSDOF 6
ENDMDL
MODEL 9
REMARK VINA RESULT:    -4.937      4.909      8.867
REMARK INTER + INTRA:          -6.988
REMARK INTER:                  -6.602
REMARK INTRA:                  -0.385
REMARK UNBOUND:                -0.463
REMARK  Name = 
REMARK  6 active torsions:
REMARK  status: ('A' for Active; 'I' for Inactive)
REMARK    1  A    between atoms: N_1  and  C_2
REMARK    2  A    between atoms: C_2  and  C_3
REMARK    3  A    between atoms: C_7  and  C_8
REMARK    4  A    between atoms: C_9  and  S_10
REMARK    5  A    between atoms: S_10  and  C_11
REMARK    6  A    between atoms: C_14  and  C_15
REMARK                            x       y       z     vdW  Elec       q    Type
REMARK                         _______ _______ _______ _____ _____    ______ ____
ROOT
ATOM      1  C   UNL     1      46.674   4.459  14.749  0.00  0.00    +0.000 C 
ATOM      2  C   UNL     1      47.502   3.441  15.026  0.00  0.00    +0.000 C 
ENDROOT
BRANCH   1   7
ATOM      3  C   UNL     1      44.769   4.269  11.509  0.00  0.00    +0.000 A 
ATOM      4  C   UNL     1      45.322   5.375  10.862  0.00  0.00    +0.000 A 
ATOM      5  C   UNL     1      46.286   6.114  11.526  0.00  0.00    +0.000 A 
ATOM      6  N   UNL     1      46.730   5.833  12.769  0.00  0.00    +0.000 NA
ATOM      7  C   UNL     1      46.191   4.760  13.394  0.00  0.00    +0.000 A 
ATOM      8  C   UNL     1      45.222   3.957  12.799  0.00  0.00    +0.000 A 
BRANCH   3   9
ATOM      9  C   UNL     1      43.711   3.430  10.843  0.00  0.00    +0.000 C 
BRANCH   9  10
ATOM     10  N   UNL     1      43.286   2.336  11.706  0.00  0.00    +0.000 NA
ATOM     11  H   UNL     1      43.982   1.594  11.675  0.00  0.00    +0.000 HD
ATOM     12  H   UNL     1      42.424   1.936  11.336  0.00  0.00    +0.000 HD
ENDBRANCH   9  10
ENDBRANCH   3   9
ENDBRANCH   1   7
BRANCH   2  13
ATOM     13  S   UNL     1      48.032   3.114  16.638  0.00  0.00    +0.000 S 
BRANCH  13  14
ATOM     14  C   UNL     1      48.076   4.736  17.394  0.00  0.00    +0.000 A 
ATOM     15  C   UNL     1      47.217   5.170  18.411  0.00  0.00    +0.000 A 
ATOM     16  C   UNL     1      47.293   6.481  18.900  0.00  0.00    +0.000 A 
ATOM     17  C   UNL     1      48.232   7.380  18.383  0.00  0.00    +0.000 A 
ATOM     18  C   UNL     1      49.095   6.957  17.369  0.00  0.00    +0.000 A 
ATOM     19  C   UNL     1      49.015   5.645  16.884  0.00  0.00    +0.000 A 
BRANCH  17  20
ATOM     20  C   UNL     1      48.239   8.770  18.911  0.00  0.00    +0.000 C 
ATOM     21  N   UNL     1      48.457   8.939  20.250  0.00  0.00    +0.000 N 
ATOM     22  O   UNL     1      48.032   9.733  18.186  0.00  0.00    +0.000 OA
ATOM     23  H   UNL     1      48.416   8.182  20.917  0.00  0.00    +0.000 HD
ATOM     24  H   UNL     1      48.361   9.883  20.602  0.00  0.00    +0.000 HD
ENDBRANCH  17  20
ENDBRANCH  13  14
ENDBRANCH   2  13
TORSDOF 6
ENDMDL
