MODEL 1
REMARK VINA RESULT:    -7.586      0.000      0.000
REMARK INTER + INTRA:         -10.556
REMARK INTER:                 -10.246
REMARK INTRA:                  -0.310
REMARK UNBOUND:                -0.310
REMARK  Name = 
REMARK  7 active torsions:
REMARK  status: ('A' for Active; 'I' for Inactive)
REMARK    1  A    between atoms: C_1  and  O_2
REMARK    2  A    between atoms: O_2  and  C_3
REMARK    3  A    between atoms: C_5  and  C_6
REMARK    4  A    between atoms: C_11  and  O_12
REMARK    5  A    between atoms: O_12  and  C_13
REMARK    6  A    between atoms: C_13  and  C_14
REMARK    7  A    between atoms: C_19  and  C_20
REMARK                            x       y       z     vdW  Elec       q    Type
REMARK                         _______ _______ _______ _____ _____    ______ ____
ROOT
ATOM      1  C   UNL     1      46.974   4.632  14.972  0.00  0.00    +0.000 C 
ENDROOT
BRANCH   1   2
ATOM      2  C   UNL     1      46.628   5.239  13.633  0.00  0.00    +0.000 A 
ATOM      3  C   UNL     1      47.558   6.126  13.074  0.00  0.00    +0.000 A 
ATOM      4  C   UNL     1      47.295   6.723  11.856  0.00  0.00    +0.000 A 
ATOM      5  F   UNL     1      48.183   7.581  11.336  0.00  0.00    +0.000 F 
ATOM      6  C   UNL     1      46.130   6.435  11.157  0.00  0.00    +0.000 A 
ATOM      7  C   UNL     1      45.209   5.500  11.652  0.00  0.00    +0.000 A 
ATOM      8  C   UNL     1      45.458   4.941  12.923  0.00  0.00    +0.000 A 
BRANCH   7   9
ATOM      9  C   UNL     1      43.966   5.062  10.877  0.00  0.00    +0.000 C 
ATOM     10  C   UNL     1      43.001   4.235  11.754  0.00  0.00    +0.000 C 
ATOM     11  C   UNL     1      43.517   2.813  11.980  0.00  0.00    +0.000 C 
ATOM     12  N   UNL     1      43.711   2.104  10.714  0.00  0.00    +0.000 NA
ATOM     13  C   UNL     1      44.647   2.816   9.843  0.00  0.00    +0.000 C 
ATOM     14  C   UNL     1      44.218   4.265   9.580  0.00  0.00    +0.000 C 
ATOM     15  H   UNL     1      42.815   2.013  10.238  0.00  0.00    +0.000 HD
ENDBRANCH   7   9
ENDBRANCH   1   2
BRANCH   1  16
ATOM     16  O   UNL     1      48.280   4.955  15.441  0.00  0.00    +0.000 OA
BRANCH  16  22
ATOM     17  C   UNL     1      49.077   3.667  17.439  0.00  0.00    +0.000 A 
ATOM     18  C   UNL     1      49.203   3.678  18.833  0.00  0.00    +0.000 A 
ATOM     19  C   UNL     1      48.785   4.780  19.596  0.00  0.00    +0.000 A 
ATOM     20  C   UNL     1      48.232   5.886  18.948  0.00  0.00    +0.000 A 
ATOM     21  C   UNL     1      48.091   5.880  17.557  0.00  0.00    +0.000 A 
ATOM     22  C   UNL     1      48.506   4.780  16.789  0.00  0.00    +0.000 A 
BRANCH  19  23
ATOM     23  C   UNL     1      48.981   4.697  21.071  0.00  0.00    +0.000 C 
ATOM     24  N   UNL     1      50.251   4.650  21.566  0.00  0.00    +0.000 N 
ATOM     25  O   UNL     1      48.027   4.664  21.842  0.00  0.00    +0.000 OA
ATOM     26  H   UNL     1      51.092   4.639  21.017  0.00  0.00    +0.000 HD
ATOM     27  H   UNL     1      50.344   4.578  22.571  0.00  0.00    +0.000 HD
ENDBRANCH  19  23
BRANCH  17  29
ATOM     28  C   UNL     1      50.687   1.913  17.153  0.00  0.00    +0.000 C 
ATOM     29  O   UNL     1      49.560   2.637  16.678  0.00  0.00    +0.000 OA
ENDBRANCH  17  29
ENDBRANCH  16  22
ENDBRANCH   1  16
TORSDOF 6
ENDMDL
MODEL 2
REMARK VINA RESULT:    -7.423      4.931      8.777
REMARK INTER + INTRA:         -10.337
REMARK INTER:                  -9.847
REMARK INTRA:                  -0.490
REMARK UNBOUND:                -0.310
REMARK  Name = 
REMARK  7 active torsions:
REMARK  status: ('A' for Active; 'I' for Inactive)
REMARK    1  A    between atoms: C_1  and  O_2
REMARK    2  A    between atoms: O_2  and  C_3
REMARK    3  A    between atoms: C_5  and  C_6
REMARK    4  A    between atoms: C_11  and  O_12
REMARK    5  A    between atoms: O_12  and  C_13
REMARK    6  A    between atoms: C_13  and  C_14
REMARK    7  A    between atoms: C_19  and  C_20
REMARK                            x       y       z     vdW  Elec       q    Type
REMARK                         _______ _______ _______ _____ _____    ______ ____
ROOT
ATOM      1  C   UNL     1      44.734   6.482  10.985  0.00  0.00    +0.000 C 
ENDROOT
BRANCH   1   2
ATOM      2  C   UNL     1      45.875   6.323  11.961  0.00  0.00    +0.000 A 
ATOM      3  C   UNL     1      45.676   5.449  13.040  0.00  0.00    +0.000 A 
ATOM      4  C   UNL     1      46.678   5.268  13.973  0.00  0.00    +0.000 A 
ATOM      5  F   UNL     1      46.475   4.442  15.009  0.00  0.00    +0.000 F 
ATOM      6  C   UNL     1      47.899   5.917  13.845  0.00  0.00    +0.000 A 
ATOM      7  C   UNL     1      48.160   6.744  12.742  0.00  0.00    +0.000 A 
ATOM      8  C   UNL     1      47.110   6.969  11.827  0.00  0.00    +0.000 A 
BRANCH   7   9
ATOM      9  C   UNL     1      49.519   7.397  12.491  0.00  0.00    +0.000 C 
ATOM     10  C   UNL     1      50.222   7.790  13.809  0.00  0.00    +0.000 C 
ATOM     11  C   UNL     1      49.597   9.036  14.436  0.00  0.00    +0.000 C 
ATOM     12  N   UNL     1      49.652  10.182  13.526  0.00  0.00    +0.000 NA
ATOM     13  C   UNL     1      48.969   9.892  12.264  0.00  0.00    +0.000 C 
ATOM     14  C   UNL     1      49.520   8.638  11.573  0.00  0.00    +0.000 C 
ATOM     15  H   UNL     1      50.625  10.413  13.334  0.00  0.00    +0.000 HD
ENDBRANCH   7   9
ENDBRANCH   1   2
BRANCH   1  16
ATOM     16  O   UNL     1      43.977   5.294  10.769  0.00  0.00    +0.000 OA
BRANCH  16  22
ATOM     17  C   UNL     1      44.350   2.950   9.963  0.00  0.00    +0.000 A 
ATOM     18  C   UNL     1      45.049   2.150   9.052  0.00  0.00    +0.000 A 
ATOM     19  C   UNL     1      45.934   2.709   8.117  0.00  0.00    +0.000 A 
ATOM     20  C   UNL     1      46.121   4.093   8.100  0.00  0.00    +0.000 A 
ATOM     21  C   UNL     1      45.436   4.900   9.013  0.00  0.00    +0.000 A 
ATOM     22  C   UNL     1      44.550   4.345   9.951  0.00  0.00    +0.000 A 
BRANCH  19  23
ATOM     23  C   UNL     1      46.614   1.770   7.180  0.00  0.00    +0.000 C 
ATOM     24  N   UNL     1      46.908   0.509   7.609  0.00  0.00    +0.000 N 
ATOM     25  O   UNL     1      46.915   2.110   6.040  0.00  0.00    +0.000 OA
ATOM     26  H   UNL     1      46.731   0.149   8.530  0.00  0.00    +0.000 HD
ATOM     27  H   UNL     1      47.383  -0.095   6.951  0.00  0.00    +0.000 HD
ENDBRANCH  19  23
BRANCH  17  29
ATOM     28  C   UNL     1      43.590   2.631  12.215  0.00  0.00    +0.000 C 
ATOM     29  O   UNL     1      43.419   2.426  10.819  0.00  0.00    +0.000 OA
ENDBRANCH  17  29
ENDBRANCH  16  22
ENDBRANCH   1  16
TORSDOF 6
ENDMDL
MODEL 3
REMARK VINA RESULT:    -7.372      2.109      2.814
REMARK INTER + INTRA:         -10.268
REMARK INTER:                  -9.860
REMARK INTRA:                  -0.409
REMARK UNBOUND:                -0.310
REMARK  Name = 
REMARK  7 active torsions:
REMARK  status: ('A' for Active; 'I' for Inactive)
REMARK    1  A    between atoms: C_1  and  O_2
REMARK    2  A    between atoms: O_2  and  C_3
REMARK    3  A    between atoms: C_5  and  C_6
REMARK    4  A    between atoms: C_11  and  O_12
REMARK    5  A    between atoms: O_12  and  C_13
REMARK    6  A    between atoms: C_13  and  C_14
REMARK    7  A    between atoms: C_19  and  C_20
REMARK                            x       y       z     vdW  Elec       q    Type
REMARK                         _______ _______ _______ _____ _____    ______ ____
ROOT
ATOM      1  C   UNL     1      46.890   4.256  15.341  0.00  0.00    +0.000 C 
ENDROOT
BRANCH   1   2
ATOM      2  C   UNL     1      46.679   4.976  14.030  0.00  0.00    +0.000 A 
ATOM      3  C   UNL     1      47.703   5.831  13.598  0.00  0.00    +0.000 A 
ATOM      4  C   UNL     1      47.566   6.526  12.412  0.00  0.00    +0.000 A 
ATOM      5  F   UNL     1      48.543   7.353  12.015  0.00  0.00    +0.000 F 
ATOM      6  C   UNL     1      46.437   6.369  11.619  0.00  0.00    +0.000 A 
ATOM      7  C   UNL     1      45.424   5.470  11.983  0.00  0.00    +0.000 A 
ATOM      8  C   UNL     1      45.545   4.810  13.224  0.00  0.00    +0.000 A 
BRANCH   7   9
ATOM      9  C   UNL     1      44.212   5.174  11.099  0.00  0.00    +0.000 C 
ATOM     10  C   UNL     1      43.114   4.403  11.864  0.00  0.00    +0.000 C 
ATOM     11  C   UNL     1      43.487   2.934  12.064  0.00  0.00    +0.000 C 
ATOM     12  N   UNL     1      43.718   2.259  10.785  0.00  0.00    +0.000 NA
ATOM     13  C   UNL     1      44.777   2.918  10.019  0.00  0.00    +0.000 C 
ATOM     14  C   UNL     1      44.495   4.408   9.790  0.00  0.00    +0.000 C 
ATOM     15  H   UNL     1      42.858   2.266  10.240  0.00  0.00    +0.000 HD
ENDBRANCH   7   9
ENDBRANCH   1   2
BRANCH   1  16
ATOM     16  O   UNL     1      47.729   4.949  16.260  0.00  0.00    +0.000 OA
BRANCH  16  22
ATOM     17  C   UNL     1      50.066   4.820  17.159  0.00  0.00    +0.000 A 
ATOM     18  C   UNL     1      51.104   3.958  17.530  0.00  0.00    +0.000 A 
ATOM     19  C   UNL     1      50.959   2.563  17.455  0.00  0.00    +0.000 A 
ATOM     20  C   UNL     1      49.752   2.029  16.999  0.00  0.00    +0.000 A 
ATOM     21  C   UNL     1      48.713   2.882  16.615  0.00  0.00    +0.000 A 
ATOM     22  C   UNL     1      48.854   4.277  16.687  0.00  0.00    +0.000 A 
BRANCH  19  23
ATOM     23  C   UNL     1      52.119   1.736  17.891  0.00  0.00    +0.000 C 
ATOM     24  N   UNL     1      51.936   0.399  18.095  0.00  0.00    +0.000 N 
ATOM     25  O   UNL     1      53.226   2.233  18.073  0.00  0.00    +0.000 OA
ATOM     26  H   UNL     1      51.065  -0.092  18.004  0.00  0.00    +0.000 HD
ATOM     27  H   UNL     1      52.743  -0.126  18.406  0.00  0.00    +0.000 HD
ENDBRANCH  19  23
BRANCH  17  29
ATOM     28  C   UNL     1      50.653   6.947  16.220  0.00  0.00    +0.000 C 
ATOM     29  O   UNL     1      50.165   6.177  17.310  0.00  0.00    +0.000 OA
ENDBRANCH  17  29
ENDBRANCH  16  22
ENDBRANCH   1  16
TORSDOF 6
ENDMDL
MODEL 4
REMARK VINA RESULT:    -7.116      0.904      1.951
REMARK INTER + INTRA:          -9.921
REMARK INTER:                  -9.590
REMARK INTRA:                  -0.331
REMARK UNBOUND:                -0.310
REMARK  Name = 
REMARK  7 active torsions:
REMARK  status: ('A' for Active; 'I' for Inactive)
REMARK    1  A    between atoms: C_1  and  O_2
REMARK    2  A    between atoms: O_2  and  C_3
REMARK    3  A    between atoms: C_5  and  C_6
REMARK    4  A    between atoms: C_11  and  O_12
REMARK    5  A    between atoms: O_12  and  C_13
REMARK    6  A    between atoms: C_13  and  C_14
REMARK    7  A    between atoms: C_19  and  C_20
REMARK                            x       y       z     vdW  Elec       q    Type
REMARK                         _______ _______ _______ _____ _____    ______ ____
ROOT
ATOM      1  C   UNL     1      47.191   4.688  15.025  0.00  0.00    +0.000 C 
ENDROOT
BRANCH   1   2
ATOM      2  C   UNL     1      46.773   5.284  13.702  0.00  0.00    +0.000 A 
ATOM      3  C   UNL     1      47.700   6.110  13.051  0.00  0.00    +0.000 A 
ATOM      4  C   UNL     1      47.374   6.694  11.842  0.00  0.00    +0.000 A 
ATOM      5  F   UNL     1      48.260   7.494  11.235  0.00  0.00    +0.000 F 
ATOM      6  C   UNL     1      46.145   6.451  11.241  0.00  0.00    +0.000 A 
ATOM      7  C   UNL     1      45.220   5.575  11.828  0.00  0.00    +0.000 A 
ATOM      8  C   UNL     1      45.539   5.031  13.090  0.00  0.00    +0.000 A 
BRANCH   7   9
ATOM      9  C   UNL     1      43.901   5.185  11.161  0.00  0.00    +0.000 C 
ATOM     10  C   UNL     1      43.018   4.322  12.090  0.00  0.00    +0.000 C 
ATOM     11  C   UNL     1      43.537   2.888  12.193  0.00  0.00    +0.000 C 
ATOM     12  N   UNL     1      43.595   2.241  10.881  0.00  0.00    +0.000 NA
ATOM     13  C   UNL     1      44.448   2.989   9.956  0.00  0.00    +0.000 C 
ATOM     14  C   UNL     1      44.012   4.451   9.808  0.00  0.00    +0.000 C 
ATOM     15  H   UNL     1      42.655   2.180  10.494  0.00  0.00    +0.000 HD
ENDBRANCH   7   9
ENDBRANCH   1   2
BRANCH   1  16
ATOM     16  O   UNL     1      48.443   5.164  15.512  0.00  0.00    +0.000 OA
BRANCH  16  22
ATOM     17  C   UNL     1      48.847   6.303  17.708  0.00  0.00    +0.000 A 
ATOM     18  C   UNL     1      48.990   6.114  19.087  0.00  0.00    +0.000 A 
ATOM     19  C   UNL     1      48.876   4.839  19.666  0.00  0.00    +0.000 A 
ATOM     20  C   UNL     1      48.616   3.741  18.845  0.00  0.00    +0.000 A 
ATOM     21  C   UNL     1      48.482   3.918  17.464  0.00  0.00    +0.000 A 
ATOM     22  C   UNL     1      48.596   5.190  16.881  0.00  0.00    +0.000 A 
BRANCH  19  23
ATOM     23  C   UNL     1      49.028   4.751  21.145  0.00  0.00    +0.000 C 
ATOM     24  N   UNL     1      50.283   4.754  21.681  0.00  0.00    +0.000 N 
ATOM     25  O   UNL     1      48.052   4.670  21.885  0.00  0.00    +0.000 OA
ATOM     26  H   UNL     1      51.141   4.784  21.159  0.00  0.00    +0.000 HD
ATOM     27  H   UNL     1      50.347   4.677  22.687  0.00  0.00    +0.000 HD
ENDBRANCH  19  23
BRANCH  17  29
ATOM     28  C   UNL     1      48.423   8.655  17.920  0.00  0.00    +0.000 C 
ATOM     29  O   UNL     1      48.869   7.551  17.144  0.00  0.00    +0.000 OA
ENDBRANCH  17  29
ENDBRANCH  16  22
ENDBRANCH   1  16
TORSDOF 6
ENDMDL
MODEL 5
REMARK VINA RESULT:    -6.833      3.559      8.277
REMARK INTER + INTRA:          -9.540
REMARK INTER:                  -8.654
REMARK INTRA:                  -0.886
REMARK UNBOUND:                -0.310
REMARK  Name = 
REMARK  7 active torsions:
REMARK  status: ('A' for Active; 'I' for Inactive)
REMARK    1  A    between atoms: C_1  and  O_2
REMARK    2  A    between atoms: O_2  and  C_3
REMARK    3  A    between atoms: C_5  and  C_6
REMARK    4  A    between atoms: C_11  and  O_12
REMARK    5  A    between atoms: O_12  and  C_13
REMARK    6  A    between atoms: C_13  and  C_14
REMARK    7  A    between atoms: C_19  and  C_20
REMARK                            x       y       z     vdW  Elec       q    Type
REMARK                         _______ _______ _______ _____ _____    ______ ____
ROOT
ATOM      1  C   UNL     1      47.029   3.658  15.827  0.00  0.00    +0.000 C 
ENDROOT
BRANCH   1   2
ATOM      2  C   UNL     1      48.375   3.708  16.511  0.00  0.00    +0.000 A 
ATOM      3  C   UNL     1      49.030   2.487  16.724  0.00  0.00    +0.000 A 
ATOM      4  C   UNL     1      50.259   2.465  17.354  0.00  0.00    +0.000 A 
ATOM      5  F   UNL     1      50.872   1.293  17.566  0.00  0.00    +0.000 F 
ATOM      6  C   UNL     1      50.876   3.643  17.756  0.00  0.00    +0.000 A 
ATOM      7  C   UNL     1      50.283   4.888  17.497  0.00  0.00    +0.000 A 
ATOM      8  C   UNL     1      49.002   4.896  16.908  0.00  0.00    +0.000 A 
BRANCH   7   9
ATOM      9  C   UNL     1      50.964   6.219  17.818  0.00  0.00    +0.000 C 
ATOM     10  C   UNL     1      50.452   7.361  16.912  0.00  0.00    +0.000 C 
ATOM     11  C   UNL     1      51.024   7.263  15.497  0.00  0.00    +0.000 C 
ATOM     12  N   UNL     1      52.488   7.302  15.505  0.00  0.00    +0.000 NA
ATOM     13  C   UNL     1      53.045   6.220  16.319  0.00  0.00    +0.000 C 
ATOM     14  C   UNL     1      52.506   6.228  17.755  0.00  0.00    +0.000 C 
ATOM     15  H   UNL     1      52.799   8.196  15.881  0.00  0.00    +0.000 HD
ENDBRANCH   7   9
ENDBRANCH   1   2
BRANCH   1  16
ATOM     16  O   UNL     1      47.096   3.626  14.404  0.00  0.00    +0.000 OA
BRANCH  16  22
ATOM     17  C   UNL     1      45.170   4.653  13.171  0.00  0.00    +0.000 A 
ATOM     18  C   UNL     1      44.712   5.802  12.516  0.00  0.00    +0.000 A 
ATOM     19  C   UNL     1      45.505   6.957  12.425  0.00  0.00    +0.000 A 
ATOM     20  C   UNL     1      46.777   6.956  13.000  0.00  0.00    +0.000 A 
ATOM     21  C   UNL     1      47.248   5.810  13.647  0.00  0.00    +0.000 A 
ATOM     22  C   UNL     1      46.460   4.652  13.739  0.00  0.00    +0.000 A 
BRANCH  19  23
ATOM     23  C   UNL     1      44.915   8.130  11.721  0.00  0.00    +0.000 C 
ATOM     24  N   UNL     1      43.749   7.967  11.030  0.00  0.00    +0.000 N 
ATOM     25  O   UNL     1      45.456   9.231  11.748  0.00  0.00    +0.000 OA
ATOM     26  H   UNL     1      43.250   7.103  10.923  0.00  0.00    +0.000 HD
ATOM     27  H   UNL     1      43.388   8.783  10.552  0.00  0.00    +0.000 HD
ENDBRANCH  19  23
BRANCH  17  29
ATOM     28  C   UNL     1      43.576   3.117  12.250  0.00  0.00    +0.000 C 
ATOM     29  O   UNL     1      44.374   3.553  13.342  0.00  0.00    +0.000 OA
ENDBRANCH  17  29
ENDBRANCH  16  22
ENDBRANCH   1  16
TORSDOF 6
ENDMDL
MODEL 6
REMARK VINA RESULT:    -6.818      2.920      7.905
REMARK INTER + INTRA:          -9.519
REMARK INTER:                  -8.642
REMARK INTRA:                  -0.876
REMARK UNBOUND:                -0.310
REMARK  Name = 
REMARK  7 active torsions:
REMARK  status: ('A' for Active; 'I' for Inactive)
REMARK    1  A    between atoms: C_1  and  O_2
REMARK    2  A    between atoms: O_2  and  C_3
REMARK    3  A    between atoms: C_5  and  C_6
REMARK    4  A    between atoms: C_11  and  O_12
REMARK    5  A    between atoms: O_12  and  C_13
REMARK    6  A    between atoms: C_13  and  C_14
REMARK    7  A    between atoms: C_19  and  C_20
REMARK                            x       y       z     vdW  Elec       q    Type
REMARK                         _______ _______ _______ _____ _____    ______ ____
ROOT
ATOM      1  C   UNL     1      49.213   7.398  14.050  0.00  0.00    +0.000 C 
ENDROOT
BRANCH   1   2
ATOM      2  C   UNL     1      49.237   7.323  15.558  0.00  0.00    +0.000 A 
ATOM      3  C   UNL     1      48.509   8.296  16.258  0.00  0.00    +0.000 A 
ATOM      4  C   UNL     1      48.500   8.288  17.640  0.00  0.00    +0.000 A 
ATOM      5  F   UNL     1      47.814   9.230  18.300  0.00  0.00    +0.000 F 
ATOM      6  C   UNL     1      49.180   7.309  18.353  0.00  0.00    +0.000 A 
ATOM      7  C   UNL     1      49.862   6.280  17.686  0.00  0.00    +0.000 A 
ATOM      8  C   UNL     1      49.915   6.331  16.278  0.00  0.00    +0.000 A 
BRANCH   7   9
ATOM      9  C   UNL     1      50.535   5.116  18.415  0.00  0.00    +0.000 C 
ATOM     10  C   UNL     1      49.972   3.750  17.963  0.00  0.00    +0.000 C 
ATOM     11  C   UNL     1      48.587   3.484  18.551  0.00  0.00    +0.000 C 
ATOM     12  N   UNL     1      48.609   3.511  20.015  0.00  0.00    +0.000 NA
ATOM     13  C   UNL     1      49.099   4.796  20.516  0.00  0.00    +0.000 C 
ATOM     14  C   UNL     1      50.481   5.156  19.957  0.00  0.00    +0.000 C 
ATOM     15  H   UNL     1      49.215   2.767  20.356  0.00  0.00    +0.000 HD
ENDBRANCH   7   9
ENDBRANCH   1   2
BRANCH   1  16
ATOM     16  O   UNL     1      48.858   6.176  13.409  0.00  0.00    +0.000 OA
BRANCH  16  22
ATOM     17  C   UNL     1      46.712   4.880  13.377  0.00  0.00    +0.000 A 
ATOM     18  C   UNL     1      45.370   4.898  12.981  0.00  0.00    +0.000 A 
ATOM     19  C   UNL     1      44.809   6.017  12.346  0.00  0.00    +0.000 A 
ATOM     20  C   UNL     1      45.611   7.133  12.103  0.00  0.00    +0.000 A 
ATOM     21  C   UNL     1      46.956   7.122  12.484  0.00  0.00    +0.000 A 
ATOM     22  C   UNL     1      47.522   6.004  13.118  0.00  0.00    +0.000 A 
BRANCH  19  23
ATOM     23  C   UNL     1      43.366   5.938  11.983  0.00  0.00    +0.000 C 
ATOM     24  N   UNL     1      42.847   6.873  11.134  0.00  0.00    +0.000 N 
ATOM     25  O   UNL     1      42.640   5.058  12.433  0.00  0.00    +0.000 OA
ATOM     26  H   UNL     1      43.351   7.647  10.740  0.00  0.00    +0.000 HD
ATOM     27  H   UNL     1      41.861   6.796  10.924  0.00  0.00    +0.000 HD
ENDBRANCH  19  23
BRANCH  17  29
ATOM     28  C   UNL     1      47.203   3.866  15.494  0.00  0.00    +0.000 C 
ATOM     29  O   UNL     1      47.246   3.830  14.074  0.00  0.00    +0.000 OA
ENDBRANCH  17  29
ENDBRANCH  16  22
ENDBRANCH   1  16
TORSDOF 6
ENDMDL
MODEL 7
REMARK VINA RESULT:    -6.677      3.109      8.550
REMARK INTER + INTRA:          -9.329
REMARK INTER:                  -8.502
REMARK INTRA:                  -0.826
REMARK UNBOUND:                -0.310
REMARK  Name = 
REMARK  7 active torsions:
REMARK  status: ('A' for Active; 'I' for Inactive)
REMARK    1  A    between atoms: C_1  and  O_2
REMARK    2  A    between atoms: O_2  and  C_3
REMARK    3  A    between atoms: C_5  and  C_6
REMARK    4  A    between atoms: C_11  and  O_12
REMARK    5  A    between atoms: O_12  and  C_13
REMARK    6  A    between atoms: C_13  and  C_14
REMARK    7  A    between atoms: C_19  and  C_20
REMARK                            x       y       z     vdW  Elec       q    Type
REMARK                         _______ _______ _______ _____ _____    ______ ____
ROOT
ATOM      1  C   UNL     1      47.020   3.627  15.821  0.00  0.00    +0.000 C 
ENDROOT
BRANCH   1   2
ATOM      2  C   UNL     1      48.348   3.632  16.539  0.00  0.00    +0.000 A 
ATOM      3  C   UNL     1      49.014   2.404  16.660  0.00  0.00    +0.000 A 
ATOM      4  C   UNL     1      50.228   2.340  17.316  0.00  0.00    +0.000 A 
ATOM      5  F   UNL     1      50.851   1.160  17.439  0.00  0.00    +0.000 F 
ATOM      6  C   UNL     1      50.820   3.484  17.835  0.00  0.00    +0.000 A 
ATOM      7  C   UNL     1      50.217   4.740  17.672  0.00  0.00    +0.000 A 
ATOM      8  C   UNL     1      48.950   4.787  17.054  0.00  0.00    +0.000 A 
BRANCH   7   9
ATOM      9  C   UNL     1      50.873   6.046  18.125  0.00  0.00    +0.000 C 
ATOM     10  C   UNL     1      51.690   5.860  19.423  0.00  0.00    +0.000 C 
ATOM     11  C   UNL     1      50.786   5.740  20.650  0.00  0.00    +0.000 C 
ATOM     12  N   UNL     1      49.932   6.919  20.807  0.00  0.00    +0.000 NA
ATOM     13  C   UNL     1      49.099   7.135  19.623  0.00  0.00    +0.000 C 
ATOM     14  C   UNL     1      49.926   7.246  18.336  0.00  0.00    +0.000 C 
ATOM     15  H   UNL     1      50.516   7.739  20.959  0.00  0.00    +0.000 HD
ENDBRANCH   7   9
ENDBRANCH   1   2
BRANCH   1  16
ATOM     16  O   UNL     1      47.123   3.642  14.400  0.00  0.00    +0.000 OA
BRANCH  16  22
ATOM     17  C   UNL     1      45.201   4.711  13.195  0.00  0.00    +0.000 A 
ATOM     18  C   UNL     1      44.754   5.874  12.558  0.00  0.00    +0.000 A 
ATOM     19  C   UNL     1      45.561   7.019  12.474  0.00  0.00    +0.000 A 
ATOM     20  C   UNL     1      46.838   6.993  13.038  0.00  0.00    +0.000 A 
ATOM     21  C   UNL     1      47.299   5.833  13.668  0.00  0.00    +0.000 A 
ATOM     22  C   UNL     1      46.495   4.685  13.753  0.00  0.00    +0.000 A 
BRANCH  19  23
ATOM     23  C   UNL     1      44.982   8.209  11.790  0.00  0.00    +0.000 C 
ATOM     24  N   UNL     1      43.807   8.071  11.109  0.00  0.00    +0.000 N 
ATOM     25  O   UNL     1      45.540   9.301  11.823  0.00  0.00    +0.000 OA
ATOM     26  H   UNL     1      43.293   7.215  10.998  0.00  0.00    +0.000 HD
ATOM     27  H   UNL     1      43.453   8.897  10.645  0.00  0.00    +0.000 HD
ENDBRANCH  19  23
BRANCH  17  29
ATOM     28  C   UNL     1      43.570   3.215  12.273  0.00  0.00    +0.000 C 
ATOM     29  O   UNL     1      44.391   3.619  13.359  0.00  0.00    +0.000 OA
ENDBRANCH  17  29
ENDBRANCH  16  22
ENDBRANCH   1  16
TORSDOF 6
ENDMDL
MODEL 8
REMARK VINA RESULT:    -6.613      1.950      2.496
REMARK INTER + INTRA:          -9.242
REMARK INTER:                  -8.521
REMARK INTRA:                  -0.721
REMARK UNBOUND:                -0.310
REMARK  Name = 
REMARK  7 active torsions:
REMARK  status: ('A' for Active; 'I' for Inactive)
REMARK    1  A    between atoms: C_1  and  O_2
REMARK    2  A    between atoms: O_2  and  C_3
REMARK    3  A    between atoms: C_5  and  C_6
REMARK    4  A    between atoms: C_11  and  O_12
REMARK    5  A    between atoms: O_12  and  C_13
REMARK    6  A    between atoms: C_13  and  C_14
REMARK    7  A    between atoms: C_19  and  C_20
REMARK                            x       y       z     vdW  Elec       q    Type
REMARK                         _______ _______ _______ _____ _____    ______ ____
ROOT
ATOM      1  C   UNL     1      48.836   7.481  13.961  0.00  0.00    +0.000 C 
ENDROOT
BRANCH   1   2
ATOM      2  C   UNL     1      47.499   7.405  13.263  0.00  0.00    +0.000 A 
ATOM      3  C   UNL     1      46.718   8.569  13.248  0.00  0.00    +0.000 A 
ATOM      4  C   UNL     1      45.480   8.561  12.635  0.00  0.00    +0.000 A 
ATOM      5  F   UNL     1      44.734   9.674  12.639  0.00  0.00    +0.000 F 
ATOM      6  C   UNL     1      45.005   7.420  12.001  0.00  0.00    +0.000 A 
ATOM      7  C   UNL     1      45.788   6.258  11.934  0.00  0.00    +0.000 A 
ATOM      8  C   UNL     1      47.023   6.258  12.615  0.00  0.00    +0.000 A 
BRANCH   7   9
ATOM      9  C   UNL     1      45.365   5.010  11.159  0.00  0.00    +0.000 C 
ATOM     10  C   UNL     1      44.045   5.231  10.386  0.00  0.00    +0.000 C 
ATOM     11  C   UNL     1      42.833   5.218  11.318  0.00  0.00    +0.000 C 
ATOM     12  N   UNL     1      42.732   3.955  12.051  0.00  0.00    +0.000 NA
ATOM     13  C   UNL     1      43.939   3.697  12.838  0.00  0.00    +0.000 C 
ATOM     14  C   UNL     1      45.212   3.714  11.983  0.00  0.00    +0.000 C 
ATOM     15  H   UNL     1      42.595   3.192  11.390  0.00  0.00    +0.000 HD
ENDBRANCH   7   9
ENDBRANCH   1   2
BRANCH   1  16
ATOM     16  O   UNL     1      49.173   6.316  14.709  0.00  0.00    +0.000 OA
BRANCH  16  22
ATOM     17  C   UNL     1      48.234   5.218  16.757  0.00  0.00    +0.000 A 
ATOM     18  C   UNL     1      47.865   5.412  18.093  0.00  0.00    +0.000 A 
ATOM     19  C   UNL     1      48.033   6.655  18.725  0.00  0.00    +0.000 A 
ATOM     20  C   UNL     1      48.576   7.718  18.001  0.00  0.00    +0.000 A 
ATOM     21  C   UNL     1      48.936   7.538  16.663  0.00  0.00    +0.000 A 
ATOM     22  C   UNL     1      48.770   6.297  16.026  0.00  0.00    +0.000 A 
BRANCH  19  23
ATOM     23  C   UNL     1      47.625   6.748  20.155  0.00  0.00    +0.000 C 
ATOM     24  N   UNL     1      47.615   7.972  20.760  0.00  0.00    +0.000 N 
ATOM     25  O   UNL     1      47.305   5.752  20.796  0.00  0.00    +0.000 OA
ATOM     26  H   UNL     1      47.889   8.837  20.331  0.00  0.00    +0.000 HD
ATOM     27  H   UNL     1      47.348   7.993  21.735  0.00  0.00    +0.000 HD
ENDBRANCH  19  23
BRANCH  17  29
ATOM     28  C   UNL     1      48.322   2.830  16.962  0.00  0.00    +0.000 C 
ATOM     29  O   UNL     1      48.157   3.990  16.157  0.00  0.00    +0.000 OA
ENDBRANCH  17  29
ENDBRANCH  16  22
ENDBRANCH   1  16
TORSDOF 6
ENDMDL
MODEL 9
REMARK VINA RESULT:    -6.449      2.367      3.021
REMARK INTER + INTRA:          -9.021
REMARK INTER:                  -8.260
REMARK INTRA:                  -0.760
REMARK UNBOUND:                -0.310
REMARK  Name = 
REMARK  7 active torsions:
REMARK  status: ('A' for Active; 'I' for Inactive)
REMARK    1  A    between atoms: C_1  and  O_2
REMARK    2  A    between atoms: O_2  and  C_3
REMARK    3  A    between atoms: C_5  and  C_6
REMARK    4  A    between atoms: C_11  and  O_12
REMARK    5  A    between atoms: O_12  and  C_13
REMARK    6  A    between atoms: C_13  and  C_14
REMARK    7  A    between atoms: C_19  and  C_20
REMARK                            x       y       z     vdW  Elec       q    Type
REMARK                         _______ _______ _______ _____ _____    ______ ____
ROOT
ATOM      1  C   UNL     1      48.561   7.223  13.790  0.00  0.00    +0.000 C 
ENDROOT
BRANCH   1   2
ATOM      2  C   UNL     1      47.244   7.434  13.081  0.00  0.00    +0.000 A 
ATOM      3  C   UNL     1      46.755   8.747  13.019  0.00  0.00    +0.000 A 
ATOM      4  C   UNL     1      45.551   9.005  12.394  0.00  0.00    +0.000 A 
ATOM      5  F   UNL     1      45.084  10.260  12.352  0.00  0.00    +0.000 F 
ATOM      6  C   UNL     1      44.825   7.984  11.794  0.00  0.00    +0.000 A 
ATOM      7  C   UNL     1      45.316   6.670  11.776  0.00  0.00    +0.000 A 
ATOM      8  C   UNL     1      46.516   6.407  12.468  0.00  0.00    +0.000 A 
BRANCH   7   9
ATOM      9  C   UNL     1      44.616   5.527  11.039  0.00  0.00    +0.000 C 
ATOM     10  C   UNL     1      43.141   5.380  11.473  0.00  0.00    +0.000 C 
ATOM     11  C   UNL     1      43.017   4.735  12.854  0.00  0.00    +0.000 C 
ATOM     12  N   UNL     1      43.641   3.411  12.886  0.00  0.00    +0.000 NA
ATOM     13  C   UNL     1      45.057   3.481  12.519  0.00  0.00    +0.000 C 
ATOM     14  C   UNL     1      45.277   4.138  11.151  0.00  0.00    +0.000 C 
ATOM     15  H   UNL     1      43.158   2.794  12.236  0.00  0.00    +0.000 HD
ENDBRANCH   7   9
ENDBRANCH   1   2
BRANCH   1  16
ATOM     16  O   UNL     1      48.501   7.402  15.202  0.00  0.00    +0.000 OA
BRANCH  16  22
ATOM     17  C   UNL     1      48.865   5.418  16.690  0.00  0.00    +0.000 A 
ATOM     18  C   UNL     1      49.814   4.691  17.418  0.00  0.00    +0.000 A 
ATOM     19  C   UNL     1      51.169   5.058  17.424  0.00  0.00    +0.000 A 
ATOM     20  C   UNL     1      51.574   6.174  16.689  0.00  0.00    +0.000 A 
ATOM     21  C   UNL     1      50.632   6.914  15.968  0.00  0.00    +0.000 A 
ATOM     22  C   UNL     1      49.276   6.551  15.960  0.00  0.00    +0.000 A 
BRANCH  19  23
ATOM     23  C   UNL     1      52.099   4.206  18.217  0.00  0.00    +0.000 C 
ATOM     24  N   UNL     1      51.846   2.868  18.315  0.00  0.00    +0.000 N 
ATOM     25  O   UNL     1      53.078   4.682  18.783  0.00  0.00    +0.000 OA
ATOM     26  H   UNL     1      51.057   2.393  17.916  0.00  0.00    +0.000 HD
ATOM     27  H   UNL     1      52.490   2.325  18.874  0.00  0.00    +0.000 HD
ENDBRANCH  19  23
BRANCH  17  29
ATOM     28  C   UNL     1      47.178   4.155  15.544  0.00  0.00    +0.000 C 
ATOM     29  O   UNL     1      47.558   5.019  16.607  0.00  0.00    +0.000 OA
ENDBRANCH  17  29
ENDBRANCH  16  22
ENDBRANCH   1  16
TORSDOF 6
ENDMDL
