MODEL 1
REMARK VINA RESULT:    -7.422      0.000      0.000
REMARK INTER + INTRA:         -10.207
REMARK INTER:                  -9.592
REMARK INTRA:                  -0.615
REMARK UNBOUND:                -0.615
REMARK  Name = 
REMARK  5 active torsions:
REMARK  status: ('A' for Active; 'I' for Inactive)
REMARK    1  A    between atoms: C_2  and  C_4
REMARK    2  A    between atoms: C_8  and  S_9
REMARK    3  A    between atoms: S_9  and  C_10
REMARK    4  A    between atoms: C_10  and  C_11
REMARK    5  A    between atoms: C_16  and  C_17
REMARK                            x       y       z     vdW  Elec       q    Type
REMARK                         _______ _______ _______ _____ _____    ______ ____
ROOT
ATOM      1  C   UNL     1      45.085   4.784  12.385  0.00  0.00    +0.000 A 
ATOM      2  C   UNL     1      45.682   3.803  13.183  0.00  0.00    +0.000 A 
ATOM      3  C   UNL     1      46.858   4.091  13.864  0.00  0.00    +0.000 A 
ATOM      4  F   UNL     1      47.420   3.152  14.636  0.00  0.00    +0.000 F 
ATOM      5  C   UNL     1      47.418   5.364  13.823  0.00  0.00    +0.000 A 
ATOM      6  C   UNL     1      46.803   6.387  13.082  0.00  0.00    +0.000 A 
ATOM      7  C   UNL     1      45.696   6.047  12.295  0.00  0.00    +0.000 A 
ENDROOT
BRANCH   6   8
ATOM      8  C   UNL     1      47.254   7.828  13.305  0.00  0.00    +0.000 C 
ATOM      9  C   UNL     1      47.810   8.398  11.981  0.00  0.00    +0.000 C 
ATOM     10  C   UNL     1      49.210   7.859  11.683  0.00  0.00    +0.000 C 
ATOM     11  N   UNL     1      50.154   8.227  12.740  0.00  0.00    +0.000 NA
ATOM     12  C   UNL     1      49.733   7.707  14.039  0.00  0.00    +0.000 C 
ATOM     13  C   UNL     1      48.294   8.092  14.415  0.00  0.00    +0.000 C 
ATOM     14  H   UNL     1      50.213   9.244  12.790  0.00  0.00    +0.000 HD
ENDBRANCH   6   8
BRANCH   1  15
ATOM     15  C   UNL     1      43.737   4.557  11.743  0.00  0.00    +0.000 C 
BRANCH  15  16
ATOM     16  S   UNL     1      43.576   2.912  10.985  0.00  0.00    +0.000 S 
BRANCH  16  21
ATOM     17  C   UNL     1      46.230   2.113   8.052  0.00  0.00    +0.000 A 
ATOM     18  C   UNL     1      46.397   3.363   7.462  0.00  0.00    +0.000 A 
ATOM     19  C   UNL     1      45.698   4.424   8.004  0.00  0.00    +0.000 A 
ATOM     20  N   UNL     1      44.865   4.314   9.062  0.00  0.00    +0.000 NA
ATOM     21  C   UNL     1      44.700   3.090   9.609  0.00  0.00    +0.000 A 
ATOM     22  C   UNL     1      45.363   1.967   9.137  0.00  0.00    +0.000 A 
BRANCH  17  24
ATOM     23  N   UNL     1      47.921   1.081   6.625  0.00  0.00    +0.000 N 
ATOM     24  C   UNL     1      46.919   0.903   7.537  0.00  0.00    +0.000 C 
ATOM     25  O   UNL     1      46.628  -0.215   7.939  0.00  0.00    +0.000 OA
ATOM     26  H   UNL     1      48.441   0.256   6.371  0.00  0.00    +0.000 HD
ATOM     27  H   UNL     1      48.359   1.974   6.461  0.00  0.00    +0.000 HD
ENDBRANCH  17  24
ENDBRANCH  16  21
ENDBRANCH  15  16
ENDBRANCH   1  15
TORSDOF 5
ENDMDL
MODEL 2
REMARK VINA RESULT:    -7.272      4.023      7.387
REMARK INTER + INTRA:         -10.013
REMARK INTER:                  -9.076
REMARK INTRA:                  -0.937
REMARK UNBOUND:                -0.615
REMARK  Name = 
REMARK  5 active torsions:
REMARK  status: ('A' for Active; 'I' for Inactive)
REMARK    1  A    between atoms: C_2  and  C_4
REMARK    2  A    between atoms: C_8  and  S_9
REMARK    3  A    between atoms: S_9  and  C_10
REMARK    4  A    between atoms: C_10  and  C_11
REMARK    5  A    between atoms: C_16  and  C_17
REMARK                            x       y       z     vdW  Elec       q    Type
REMARK                         _______ _______ _______ _____ _____    ______ ____
ROOT
ATOM      1  C   UNL     1      47.223   7.115  12.337  0.00  0.00    +0.000 A 
ATOM      2  C   UNL     1      46.626   8.332  12.680  0.00  0.00    +0.000 A 
ATOM      3  C   UNL     1      45.332   8.607  12.258  0.00  0.00    +0.000 A 
ATOM      4  F   UNL     1      44.760   9.769  12.598  0.00  0.00    +0.000 F 
ATOM      5  C   UNL     1      44.589   7.661  11.557  0.00  0.00    +0.000 A 
ATOM      6  C   UNL     1      45.142   6.405  11.257  0.00  0.00    +0.000 A 
ATOM      7  C   UNL     1      46.490   6.194  11.570  0.00  0.00    +0.000 A 
ENDROOT
BRANCH   6   8
ATOM      8  C   UNL     1      44.215   5.291  10.775  0.00  0.00    +0.000 C 
ATOM      9  C   UNL     1      42.934   5.285  11.639  0.00  0.00    +0.000 C 
ATOM     10  C   UNL     1      43.190   4.667  13.015  0.00  0.00    +0.000 C 
ATOM     11  N   UNL     1      43.635   3.278  12.895  0.00  0.00    +0.000 NA
ATOM     12  C   UNL     1      44.867   3.175  12.115  0.00  0.00    +0.000 C 
ATOM     13  C   UNL     1      44.777   3.854  10.739  0.00  0.00    +0.000 C 
ATOM     14  H   UNL     1      42.903   2.735  12.438  0.00  0.00    +0.000 HD
ENDBRANCH   6   8
BRANCH   1  15
ATOM     15  C   UNL     1      48.572   6.721  12.893  0.00  0.00    +0.000 C 
BRANCH  15  16
ATOM     16  S   UNL     1      49.180   7.866  14.167  0.00  0.00    +0.000 S 
BRANCH  16  21
ATOM     17  C   UNL     1      48.106   4.893  16.676  0.00  0.00    +0.000 A 
ATOM     18  C   UNL     1      48.171   5.522  17.917  0.00  0.00    +0.000 A 
ATOM     19  C   UNL     1      48.526   6.857  17.939  0.00  0.00    +0.000 A 
ATOM     20  N   UNL     1      48.816   7.577  16.834  0.00  0.00    +0.000 NA
ATOM     21  C   UNL     1      48.766   6.945  15.639  0.00  0.00    +0.000 A 
ATOM     22  C   UNL     1      48.415   5.609  15.518  0.00  0.00    +0.000 A 
BRANCH  17  24
ATOM     23  N   UNL     1      46.987   2.895  17.523  0.00  0.00    +0.000 N 
ATOM     24  C   UNL     1      47.752   3.458  16.541  0.00  0.00    +0.000 C 
ATOM     25  O   UNL     1      48.102   2.806  15.566  0.00  0.00    +0.000 OA
ATOM     26  H   UNL     1      46.675   1.952  17.356  0.00  0.00    +0.000 HD
ATOM     27  H   UNL     1      46.473   3.442  18.197  0.00  0.00    +0.000 HD
ENDBRANCH  17  24
ENDBRANCH  16  21
ENDBRANCH  15  16
ENDBRANCH   1  15
TORSDOF 5
ENDMDL
MODEL 3
REMARK VINA RESULT:    -7.047      4.172      7.711
REMARK INTER + INTRA:          -9.722
REMARK INTER:                  -8.867
REMARK INTRA:                  -0.855
REMARK UNBOUND:                -0.615
REMARK  Name = 
REMARK  5 active torsions:
REMARK  status: ('A' for Active; 'I' for Inactive)
REMARK    1  A    between atoms: C_2  and  C_4
REMARK    2  A    between atoms: C_8  and  S_9
REMARK    3  A    between atoms: S_9  and  C_10
REMARK    4  A    between atoms: C_10  and  C_11
REMARK    5  A    between atoms: C_16  and  C_17
REMARK                            x       y       z     vdW  Elec       q    Type
REMARK                         _______ _______ _______ _____ _____    ______ ____
ROOT
ATOM      1  C   UNL     1      47.698   7.164  13.128  0.00  0.00    +0.000 A 
ATOM      2  C   UNL     1      47.010   8.364  12.923  0.00  0.00    +0.000 A 
ATOM      3  C   UNL     1      45.648   8.340  12.656  0.00  0.00    +0.000 A 
ATOM      4  F   UNL     1      44.991   9.492  12.472  0.00  0.00    +0.000 F 
ATOM      5  C   UNL     1      44.937   7.144  12.657  0.00  0.00    +0.000 A 
ATOM      6  C   UNL     1      45.591   5.930  12.925  0.00  0.00    +0.000 A 
ATOM      7  C   UNL     1      46.984   5.955  13.059  0.00  0.00    +0.000 A 
ENDROOT
BRANCH   6   8
ATOM      8  C   UNL     1      44.748   4.693  13.228  0.00  0.00    +0.000 C 
ATOM      9  C   UNL     1      45.260   3.508  12.378  0.00  0.00    +0.000 C 
ATOM     10  C   UNL     1      44.811   3.629  10.920  0.00  0.00    +0.000 C 
ATOM     11  N   UNL     1      43.351   3.634  10.817  0.00  0.00    +0.000 NA
ATOM     12  C   UNL     1      42.764   4.743  11.566  0.00  0.00    +0.000 C 
ATOM     13  C   UNL     1      43.221   4.799  13.032  0.00  0.00    +0.000 C 
ATOM     14  H   UNL     1      42.991   2.754  11.184  0.00  0.00    +0.000 HD
ENDBRANCH   6   8
BRANCH   1  15
ATOM     15  C   UNL     1      49.147   7.155  13.558  0.00  0.00    +0.000 C 
BRANCH  15  16
ATOM     16  S   UNL     1      49.408   7.896  15.197  0.00  0.00    +0.000 S 
BRANCH  16  21
ATOM     17  C   UNL     1      48.768   4.469  17.232  0.00  0.00    +0.000 A 
ATOM     18  C   UNL     1      50.055   4.128  17.638  0.00  0.00    +0.000 A 
ATOM     19  C   UNL     1      51.084   4.982  17.288  0.00  0.00    +0.000 A 
ATOM     20  N   UNL     1      50.910   6.115  16.575  0.00  0.00    +0.000 NA
ATOM     21  C   UNL     1      49.657   6.421  16.172  0.00  0.00    +0.000 A 
ATOM     22  C   UNL     1      48.562   5.628  16.480  0.00  0.00    +0.000 A 
BRANCH  17  24
ATOM     23  N   UNL     1      47.649   2.837  18.661  0.00  0.00    +0.000 N 
ATOM     24  C   UNL     1      47.595   3.615  17.538  0.00  0.00    +0.000 C 
ATOM     25  O   UNL     1      46.595   3.628  16.832  0.00  0.00    +0.000 OA
ATOM     26  H   UNL     1      46.802   2.347  18.903  0.00  0.00    +0.000 HD
ATOM     27  H   UNL     1      48.327   2.982  19.393  0.00  0.00    +0.000 HD
ENDBRANCH  17  24
ENDBRANCH  16  21
ENDBRANCH  15  16
ENDBRANCH   1  15
TORSDOF 5
ENDMDL
MODEL 4
REMARK VINA RESULT:    -6.848      1.851      2.489
REMARK INTER + INTRA:          -9.465
REMARK INTER:                  -8.741
REMARK INTRA:                  -0.724
REMARK UNBOUND:                -0.615
REMARK  Name = 
REMARK  5 active torsions:
REMARK  status: ('A' for Active; 'I' for Inactive)
REMARK    1  A    between atoms: C_2  and  C_4
REMARK    2  A    between atoms: C_8  and  S_9
REMARK    3  A    between atoms: S_9  and  C_10
REMARK    4  A    between atoms: C_10  and  C_11
REMARK    5  A    between atoms: C_16  and  C_17
REMARK                            x       y       z     vdW  Elec       q    Type
REMARK                         _______ _______ _______ _____ _____    ______ ____
ROOT
ATOM      1  C   UNL     1      45.731   6.218  12.036  0.00  0.00    +0.000 A 
ATOM      2  C   UNL     1      45.614   5.348  13.125  0.00  0.00    +0.000 A 
ATOM      3  C   UNL     1      46.696   5.160  13.975  0.00  0.00    +0.000 A 
ATOM      4  F   UNL     1      46.577   4.335  15.022  0.00  0.00    +0.000 F 
ATOM      5  C   UNL     1      47.876   5.877  13.804  0.00  0.00    +0.000 A 
ATOM      6  C   UNL     1      47.997   6.806  12.758  0.00  0.00    +0.000 A 
ATOM      7  C   UNL     1      46.951   6.886  11.831  0.00  0.00    +0.000 A 
ENDROOT
BRANCH   6   8
ATOM      8  C   UNL     1      49.164   7.791  12.781  0.00  0.00    +0.000 C 
ATOM      9  C   UNL     1      49.440   8.219  14.241  0.00  0.00    +0.000 C 
ATOM     10  C   UNL     1      48.398   9.223  14.736  0.00  0.00    +0.000 C 
ATOM     11  N   UNL     1      48.410  10.440  13.922  0.00  0.00    +0.000 NA
ATOM     12  C   UNL     1      48.127  10.149  12.519  0.00  0.00    +0.000 C 
ATOM     13  C   UNL     1      49.043   9.068  11.923  0.00  0.00    +0.000 C 
ATOM     14  H   UNL     1      49.328  10.878  13.995  0.00  0.00    +0.000 HD
ENDBRANCH   6   8
BRANCH   1  15
ATOM     15  C   UNL     1      44.537   6.556  11.173  0.00  0.00    +0.000 C 
BRANCH  15  16
ATOM     16  S   UNL     1      43.231   5.294  11.238  0.00  0.00    +0.000 S 
BRANCH  16  21
ATOM     17  C   UNL     1      45.436   3.376   8.454  0.00  0.00    +0.000 A 
ATOM     18  C   UNL     1      45.159   2.040   8.734  0.00  0.00    +0.000 A 
ATOM     19  C   UNL     1      44.280   1.772   9.765  0.00  0.00    +0.000 A 
ATOM     20  N   UNL     1      43.684   2.726  10.513  0.00  0.00    +0.000 NA
ATOM     21  C   UNL     1      43.978   4.017  10.240  0.00  0.00    +0.000 A 
ATOM     22  C   UNL     1      44.845   4.382   9.221  0.00  0.00    +0.000 A 
BRANCH  17  24
ATOM     23  N   UNL     1      46.518   2.935   6.311  0.00  0.00    +0.000 N 
ATOM     24  C   UNL     1      46.379   3.774   7.381  0.00  0.00    +0.000 C 
ATOM     25  O   UNL     1      46.988   4.835   7.429  0.00  0.00    +0.000 OA
ATOM     26  H   UNL     1      47.083   3.276   5.550  0.00  0.00    +0.000 HD
ATOM     27  H   UNL     1      45.864   2.195   6.108  0.00  0.00    +0.000 HD
ENDBRANCH  17  24
ENDBRANCH  16  21
ENDBRANCH  15  16
ENDBRANCH   1  15
TORSDOF 5
ENDMDL
MODEL 5
REMARK VINA RESULT:    -6.643      4.457      7.884
REMARK INTER + INTRA:          -9.200
REMARK INTER:                  -8.943
REMARK INTRA:                  -0.258
REMARK UNBOUND:                -0.615
REMARK  Name = 
REMARK  5 active torsions:
REMARK  status: ('A' for Active; 'I' for Inactive)
REMARK    1  A    between atoms: C_2  and  C_4
REMARK    2  A    between atoms: C_8  and  S_9
REMARK    3  A    between atoms: S_9  and  C_10
REMARK    4  A    between atoms: C_10  and  C_11
REMARK    5  A    between atoms: C_16  and  C_17
REMARK                            x       y       z     vdW  Elec       q    Type
REMARK                         _______ _______ _______ _____ _____    ______ ____
ROOT
ATOM      1  C   UNL     1      46.584   6.314  12.862  0.00  0.00    +0.000 A 
ATOM      2  C   UNL     1      46.392   7.688  13.031  0.00  0.00    +0.000 A 
ATOM      3  C   UNL     1      45.408   8.341  12.300  0.00  0.00    +0.000 A 
ATOM      4  F   UNL     1      45.220   9.655  12.473  0.00  0.00    +0.000 F 
ATOM      5  C   UNL     1      44.559   7.638  11.451  0.00  0.00    +0.000 A 
ATOM      6  C   UNL     1      44.687   6.246  11.312  0.00  0.00    +0.000 A 
ATOM      7  C   UNL     1      45.766   5.623  11.950  0.00  0.00    +0.000 A 
ENDROOT
BRANCH   6   8
ATOM      8  C   UNL     1      43.562   5.469  10.631  0.00  0.00    +0.000 C 
ATOM      9  C   UNL     1      42.629   4.874  11.710  0.00  0.00    +0.000 C 
ATOM     10  C   UNL     1      43.258   3.651  12.381  0.00  0.00    +0.000 C 
ATOM     11  N   UNL     1      43.520   2.591  11.405  0.00  0.00    +0.000 NA
ATOM     12  C   UNL     1      44.423   3.044  10.350  0.00  0.00    +0.000 C 
ATOM     13  C   UNL     1      43.957   4.336   9.661  0.00  0.00    +0.000 C 
ATOM     14  H   UNL     1      42.636   2.300  10.988  0.00  0.00    +0.000 HD
ENDBRANCH   6   8
BRANCH   1  15
ATOM     15  C   UNL     1      47.545   5.544  13.738  0.00  0.00    +0.000 C 
BRANCH  15  16
ATOM     16  S   UNL     1      46.986   3.852  14.094  0.00  0.00    +0.000 S 
BRANCH  16  21
ATOM     17  C   UNL     1      48.174   4.234  17.933  0.00  0.00    +0.000 A 
ATOM     18  C   UNL     1      49.004   3.128  18.091  0.00  0.00    +0.000 A 
ATOM     19  C   UNL     1      49.190   2.305  16.997  0.00  0.00    +0.000 A 
ATOM     20  N   UNL     1      48.611   2.511  15.795  0.00  0.00    +0.000 NA
ATOM     21  C   UNL     1      47.792   3.579  15.664  0.00  0.00    +0.000 A 
ATOM     22  C   UNL     1      47.550   4.463  16.704  0.00  0.00    +0.000 A 
BRANCH  17  24
ATOM     23  N   UNL     1      48.695   5.108  20.152  0.00  0.00    +0.000 N 
ATOM     24  C   UNL     1      47.892   5.171  19.048  0.00  0.00    +0.000 C 
ATOM     25  O   UNL     1      46.994   5.999  18.972  0.00  0.00    +0.000 OA
ATOM     26  H   UNL     1      48.549   5.822  20.848  0.00  0.00    +0.000 HD
ATOM     27  H   UNL     1      49.584   4.632  20.154  0.00  0.00    +0.000 HD
ENDBRANCH  17  24
ENDBRANCH  16  21
ENDBRANCH  15  16
ENDBRANCH   1  15
TORSDOF 5
ENDMDL
MODEL 6
REMARK VINA RESULT:    -6.340      3.907      7.313
REMARK INTER + INTRA:          -8.808
REMARK INTER:                  -8.688
REMARK INTRA:                  -0.121
REMARK UNBOUND:                -0.615
REMARK  Name = 
REMARK  5 active torsions:
REMARK  status: ('A' for Active; 'I' for Inactive)
REMARK    1  A    between atoms: C_2  and  C_4
REMARK    2  A    between atoms: C_8  and  S_9
REMARK    3  A    between atoms: S_9  and  C_10
REMARK    4  A    between atoms: C_10  and  C_11
REMARK    5  A    between atoms: C_16  and  C_17
REMARK                            x       y       z     vdW  Elec       q    Type
REMARK                         _______ _______ _______ _____ _____    ______ ____
ROOT
ATOM      1  C   UNL     1      47.272   6.667  12.247  0.00  0.00    +0.000 A 
ATOM      2  C   UNL     1      47.444   5.867  13.381  0.00  0.00    +0.000 A 
ATOM      3  C   UNL     1      46.465   4.945  13.727  0.00  0.00    +0.000 A 
ATOM      4  F   UNL     1      46.640   4.173  14.807  0.00  0.00    +0.000 F 
ATOM      5  C   UNL     1      45.345   4.751  12.925  0.00  0.00    +0.000 A 
ATOM      6  C   UNL     1      45.180   5.494  11.745  0.00  0.00    +0.000 A 
ATOM      7  C   UNL     1      46.103   6.512  11.480  0.00  0.00    +0.000 A 
ENDROOT
BRANCH   6   8
ATOM      8  C   UNL     1      44.122   5.048  10.737  0.00  0.00    +0.000 C 
ATOM      9  C   UNL     1      43.007   4.277  11.478  0.00  0.00    +0.000 C 
ATOM     10  C   UNL     1      43.455   2.861  11.848  0.00  0.00    +0.000 C 
ATOM     11  N   UNL     1      43.792   2.086  10.652  0.00  0.00    +0.000 NA
ATOM     12  C   UNL     1      44.867   2.718   9.890  0.00  0.00    +0.000 C 
ATOM     13  C   UNL     1      44.587   4.188   9.542  0.00  0.00    +0.000 C 
ATOM     14  H   UNL     1      42.964   2.010  10.063  0.00  0.00    +0.000 HD
ENDBRANCH   6   8
BRANCH   1  15
ATOM     15  C   UNL     1      48.372   7.580  11.758  0.00  0.00    +0.000 C 
BRANCH  15  16
ATOM     16  S   UNL     1      48.554   9.081  12.768  0.00  0.00    +0.000 S 
BRANCH  16  21
ATOM     17  C   UNL     1      45.390  10.915  11.060  0.00  0.00    +0.000 A 
ATOM     18  C   UNL     1      45.992  11.991  10.414  0.00  0.00    +0.000 A 
ATOM     19  C   UNL     1      47.366  12.106  10.507  0.00  0.00    +0.000 A 
ATOM     20  N   UNL     1      48.148  11.243  11.190  0.00  0.00    +0.000 NA
ATOM     21  C   UNL     1      47.545  10.215  11.828  0.00  0.00    +0.000 A 
ATOM     22  C   UNL     1      46.173  10.016  11.787  0.00  0.00    +0.000 A 
BRANCH  17  24
ATOM     23  N   UNL     1      43.250  10.778  12.228  0.00  0.00    +0.000 N 
ATOM     24  C   UNL     1      43.921  10.708  11.039  0.00  0.00    +0.000 C 
ATOM     25  O   UNL     1      43.320  10.518   9.991  0.00  0.00    +0.000 OA
ATOM     26  H   UNL     1      42.245  10.738  12.173  0.00  0.00    +0.000 HD
ATOM     27  H   UNL     1      43.655  11.177  13.061  0.00  0.00    +0.000 HD
ENDBRANCH  17  24
ENDBRANCH  16  21
ENDBRANCH  15  16
ENDBRANCH   1  15
TORSDOF 5
ENDMDL
MODEL 7
REMARK VINA RESULT:    -6.245      4.477      6.534
REMARK INTER + INTRA:          -8.685
REMARK INTER:                  -7.635
REMARK INTRA:                  -1.050
REMARK UNBOUND:                -0.615
REMARK  Name = 
REMARK  5 active torsions:
REMARK  status: ('A' for Active; 'I' for Inactive)
REMARK    1  A    between atoms: C_2  and  C_4
REMARK    2  A    between atoms: C_8  and  S_9
REMARK    3  A    between atoms: S_9  and  C_10
REMARK    4  A    between atoms: C_10  and  C_11
REMARK    5  A    between atoms: C_16  and  C_17
REMARK                            x       y       z     vdW  Elec       q    Type
REMARK                         _______ _______ _______ _____ _____    ______ ____
ROOT
ATOM      1  C   UNL     1      49.425   7.719  15.841  0.00  0.00    +0.000 A 
ATOM      2  C   UNL     1      50.762   7.320  15.750  0.00  0.00    +0.000 A 
ATOM      3  C   UNL     1      51.217   6.256  16.518  0.00  0.00    +0.000 A 
ATOM      4  F   UNL     1      52.495   5.870  16.419  0.00  0.00    +0.000 F 
ATOM      5  C   UNL     1      50.347   5.532  17.327  0.00  0.00    +0.000 A 
ATOM      6  C   UNL     1      48.985   5.870  17.387  0.00  0.00    +0.000 A 
ATOM      7  C   UNL     1      48.569   7.024  16.714  0.00  0.00    +0.000 A 
ENDROOT
BRANCH   6   8
ATOM      8  C   UNL     1      48.011   4.882  18.025  0.00  0.00    +0.000 C 
ATOM      9  C   UNL     1      46.904   5.665  18.766  0.00  0.00    +0.000 C 
ATOM     10  C   UNL     1      47.414   6.234  20.092  0.00  0.00    +0.000 C 
ATOM     11  N   UNL     1      47.859   5.166  20.988  0.00  0.00    +0.000 NA
ATOM     12  C   UNL     1      48.934   4.377  20.389  0.00  0.00    +0.000 C 
ATOM     13  C   UNL     1      48.587   3.830  18.996  0.00  0.00    +0.000 C 
ATOM     14  H   UNL     1      47.068   4.555  21.192  0.00  0.00    +0.000 HD
ENDBRANCH   6   8
BRANCH   1  15
ATOM     15  C   UNL     1      48.859   8.777  14.921  0.00  0.00    +0.000 C 
BRANCH  15  16
ATOM     16  S   UNL     1      48.916   8.302  13.168  0.00  0.00    +0.000 S 
BRANCH  16  21
ATOM     17  C   UNL     1      46.394   5.150  13.206  0.00  0.00    +0.000 A 
ATOM     18  C   UNL     1      45.166   5.757  12.956  0.00  0.00    +0.000 A 
ATOM     19  C   UNL     1      45.157   7.125  12.761  0.00  0.00    +0.000 A 
ATOM     20  N   UNL     1      46.263   7.898  12.805  0.00  0.00    +0.000 NA
ATOM     21  C   UNL     1      47.444   7.295  13.068  0.00  0.00    +0.000 A 
ATOM     22  C   UNL     1      47.552   5.928  13.272  0.00  0.00    +0.000 A 
BRANCH  17  24
ATOM     23  N   UNL     1      45.671   2.860  12.764  0.00  0.00    +0.000 N 
ATOM     24  C   UNL     1      46.514   3.691  13.447  0.00  0.00    +0.000 C 
ATOM     25  O   UNL     1      47.362   3.238  14.204  0.00  0.00    +0.000 OA
ATOM     26  H   UNL     1      45.842   1.873  12.866  0.00  0.00    +0.000 HD
ATOM     27  H   UNL     1      45.144   3.160  11.958  0.00  0.00    +0.000 HD
ENDBRANCH  17  24
ENDBRANCH  16  21
ENDBRANCH  15  16
ENDBRANCH   1  15
TORSDOF 5
ENDMDL
MODEL 8
REMARK VINA RESULT:    -6.161      3.795      5.324
REMARK INTER + INTRA:          -8.577
REMARK INTER:                  -8.117
REMARK INTRA:                  -0.461
REMARK UNBOUND:                -0.615
REMARK  Name = 
REMARK  5 active torsions:
REMARK  status: ('A' for Active; 'I' for Inactive)
REMARK    1  A    between atoms: C_2  and  C_4
REMARK    2  A    between atoms: C_8  and  S_9
REMARK    3  A    between atoms: S_9  and  C_10
REMARK    4  A    between atoms: C_10  and  C_11
REMARK    5  A    between atoms: C_16  and  C_17
REMARK                            x       y       z     vdW  Elec       q    Type
REMARK                         _______ _______ _______ _____ _____    ______ ____
ROOT
ATOM      1  C   UNL     1      48.167   6.235  14.911  0.00  0.00    +0.000 A 
ATOM      2  C   UNL     1      48.975   7.369  15.034  0.00  0.00    +0.000 A 
ATOM      3  C   UNL     1      49.594   7.645  16.246  0.00  0.00    +0.000 A 
ATOM      4  F   UNL     1      50.377   8.726  16.356  0.00  0.00    +0.000 F 
ATOM      5  C   UNL     1      49.481   6.773  17.324  0.00  0.00    +0.000 A 
ATOM      6  C   UNL     1      48.729   5.593  17.208  0.00  0.00    +0.000 A 
ATOM      7  C   UNL     1      48.003   5.396  16.027  0.00  0.00    +0.000 A 
ENDROOT
BRANCH   6   8
ATOM      8  C   UNL     1      48.878   4.518  18.281  0.00  0.00    +0.000 C 
ATOM      9  C   UNL     1      50.361   4.422  18.704  0.00  0.00    +0.000 C 
ATOM     10  C   UNL     1      51.197   3.687  17.654  0.00  0.00    +0.000 C 
ATOM     11  N   UNL     1      50.715   2.318  17.461  0.00  0.00    +0.000 NA
ATOM     12  C   UNL     1      49.320   2.297  17.027  0.00  0.00    +0.000 C 
ATOM     13  C   UNL     1      48.383   3.095  17.947  0.00  0.00    +0.000 C 
ATOM     14  H   UNL     1      50.801   1.811  18.341  0.00  0.00    +0.000 HD
ENDBRANCH   6   8
BRANCH   1  15
ATOM     15  C   UNL     1      47.591   5.825  13.575  0.00  0.00    +0.000 C 
BRANCH  15  16
ATOM     16  S   UNL     1      46.434   7.049  12.892  0.00  0.00    +0.000 S 
BRANCH  16  21
ATOM     17  C   UNL     1      44.697   4.686  10.118  0.00  0.00    +0.000 A 
ATOM     18  C   UNL     1      43.547   4.261  10.778  0.00  0.00    +0.000 A 
ATOM     19  C   UNL     1      43.331   4.735  12.057  0.00  0.00    +0.000 A 
ATOM     20  N   UNL     1      44.170   5.577  12.699  0.00  0.00    +0.000 NA
ATOM     21  C   UNL     1      45.291   5.965  12.051  0.00  0.00    +0.000 A 
ATOM     22  C   UNL     1      45.590   5.545  10.763  0.00  0.00    +0.000 A 
BRANCH  17  24
ATOM     23  N   UNL     1      44.317   3.179   8.235  0.00  0.00    +0.000 N 
ATOM     24  C   UNL     1      45.034   4.224   8.749  0.00  0.00    +0.000 C 
ATOM     25  O   UNL     1      45.899   4.778   8.084  0.00  0.00    +0.000 OA
ATOM     26  H   UNL     1      44.494   2.953   7.270  0.00  0.00    +0.000 HD
ATOM     27  H   UNL     1      43.446   2.866   8.634  0.00  0.00    +0.000 HD
ENDBRANCH  17  24
ENDBRANCH  16  21
ENDBRANCH  15  16
ENDBRANCH   1  15
TORSDOF 5
ENDMDL
MODEL 9
REMARK VINA RESULT:    -6.100      4.569      8.451
REMARK INTER + INTRA:          -8.498
REMARK INTER:                  -7.723
REMARK INTRA:                  -0.776
REMARK UNBOUND:                -0.615
REMARK  Name = 
REMARK  5 active torsions:
REMARK  status: ('A' for Active; 'I' for Inactive)
REMARK    1  A    between atoms: C_2  and  C_4
REMARK    2  A    between atoms: C_8  and  S_9
REMARK    3  A    between atoms: S_9  and  C_10
REMARK    4  A    between atoms: C_10  and  C_11
REMARK    5  A    between atoms: C_16  and  C_17
REMARK                            x       y       z     vdW  Elec       q    Type
REMARK                         _______ _______ _______ _____ _____    ______ ____
ROOT
ATOM      1  C   UNL     1      47.776   7.186  12.594  0.00  0.00    +0.000 A 
ATOM      2  C   UNL     1      47.143   8.414  12.379  0.00  0.00    +0.000 A 
ATOM      3  C   UNL     1      45.761   8.462  12.250  0.00  0.00    +0.000 A 
ATOM      4  F   UNL     1      45.158   9.642  12.056  0.00  0.00    +0.000 F 
ATOM      5  C   UNL     1      44.985   7.317  12.401  0.00  0.00    +0.000 A 
ATOM      6  C   UNL     1      45.590   6.082  12.683  0.00  0.00    +0.000 A 
ATOM      7  C   UNL     1      46.989   6.023  12.676  0.00  0.00    +0.000 A 
ENDROOT
BRANCH   6   8
ATOM      8  C   UNL     1      44.712   4.923  13.149  0.00  0.00    +0.000 C 
ATOM      9  C   UNL     1      45.205   3.614  12.492  0.00  0.00    +0.000 C 
ATOM     10  C   UNL     1      44.780   3.530  11.025  0.00  0.00    +0.000 C 
ATOM     11  N   UNL     1      43.321   3.554  10.896  0.00  0.00    +0.000 NA
ATOM     12  C   UNL     1      42.753   4.774  11.464  0.00  0.00    +0.000 C 
ATOM     13  C   UNL     1      43.191   5.034  12.914  0.00  0.00    +0.000 C 
ATOM     14  H   UNL     1      42.934   2.746  11.382  0.00  0.00    +0.000 HD
ENDBRANCH   6   8
BRANCH   1  15
ATOM     15  C   UNL     1      49.258   7.108  12.878  0.00  0.00    +0.000 C 
BRANCH  15  16
ATOM     16  S   UNL     1      49.797   8.263  14.174  0.00  0.00    +0.000 S 
BRANCH  16  21
ATOM     17  C   UNL     1      48.465   7.420  17.890  0.00  0.00    +0.000 A 
ATOM     18  C   UNL     1      48.338   6.034  17.846  0.00  0.00    +0.000 A 
ATOM     19  C   UNL     1      48.689   5.397  16.671  0.00  0.00    +0.000 A 
ATOM     20  N   UNL     1      49.140   6.040  15.572  0.00  0.00    +0.000 NA
ATOM     21  C   UNL     1      49.238   7.387  15.626  0.00  0.00    +0.000 A 
ATOM     22  C   UNL     1      48.914   8.112  16.763  0.00  0.00    +0.000 A 
BRANCH  17  24
ATOM     23  N   UNL     1      48.992   8.239  20.129  0.00  0.00    +0.000 N 
ATOM     24  C   UNL     1      48.099   8.204  19.095  0.00  0.00    +0.000 C 
ATOM     25  O   UNL     1      47.049   8.830  19.152  0.00  0.00    +0.000 OA
ATOM     26  H   UNL     1      48.767   8.861  20.889  0.00  0.00    +0.000 HD
ATOM     27  H   UNL     1      49.955   7.959  20.027  0.00  0.00    +0.000 HD
ENDBRANCH  17  24
ENDBRANCH  16  21
ENDBRANCH  15  16
ENDBRANCH   1  15
TORSDOF 5
ENDMDL
