MODEL 1
REMARK VINA RESULT:    -7.576      0.000      0.000
REMARK INTER + INTRA:         -11.102
REMARK INTER:                 -10.455
REMARK INTRA:                  -0.646
REMARK UNBOUND:                -0.646
REMARK  Name = 
REMARK  7 active torsions:
REMARK  status: ('A' for Active; 'I' for Inactive)
REMARK    1  A    between atoms: N_1  and  C_2
REMARK    2  A    between atoms: C_2  and  C_3
REMARK    3  A    between atoms: C_7  and  C_8
REMARK    4  A    between atoms: C_8  and  C_9
REMARK    5  A    between atoms: C_9  and  N_10
REMARK    6  A    between atoms: N_10  and  C_11
REMARK    7  A    between atoms: C_14  and  C_15
REMARK                            x       y       z     vdW  Elec       q    Type
REMARK                         _______ _______ _______ _____ _____    ______ ____
ROOT
ATOM      1  N   UNL     1      43.768   4.653   9.790  0.00  0.00    +0.000 N 
ATOM      2  H   UNL     1      43.429   5.478   9.294  0.00  0.00    +0.000 HD
ENDROOT
BRANCH   1   3
ATOM      3  C   UNL     1      44.688   3.952   8.986  0.00  0.00    +0.000 A 
ATOM      4  C   UNL     1      45.608   4.592   8.148  0.00  0.00    +0.000 A 
ATOM      5  C   UNL     1      46.547   3.859   7.413  0.00  0.00    +0.000 A 
ATOM      6  C   UNL     1      46.617   2.464   7.522  0.00  0.00    +0.000 A 
ATOM      7  C   UNL     1      45.737   1.811   8.386  0.00  0.00    +0.000 A 
ATOM      8  C   UNL     1      44.803   2.556   9.109  0.00  0.00    +0.000 A 
ATOM      9  F   UNL     1      43.967   1.900   9.931  0.00  0.00    +0.000 F 
BRANCH   6  10
ATOM     10  C   UNL     1      47.645   1.762   6.701  0.00  0.00    +0.000 C 
ATOM     11  N   UNL     1      48.764   2.447   6.325  0.00  0.00    +0.000 N 
ATOM     12  O   UNL     1      47.504   0.593   6.364  0.00  0.00    +0.000 OA
ATOM     13  H   UNL     1      48.969   3.407   6.545  0.00  0.00    +0.000 HD
ATOM     14  H   UNL     1      49.436   1.936   5.766  0.00  0.00    +0.000 HD
ENDBRANCH   6  10
ENDBRANCH   1   3
BRANCH   1  15
ATOM     15  C   UNL     1      44.156   4.926  11.177  0.00  0.00    +0.000 C 
BRANCH  15  16
ATOM     16  C   UNL     1      44.757   6.328  11.314  0.00  0.00    +0.000 C 
BRANCH  16  21
ATOM     17  C   UNL     1      47.225   5.384  14.078  0.00  0.00    +0.000 A 
ATOM     18  C   UNL     1      48.351   6.125  13.695  0.00  0.00    +0.000 A 
ATOM     19  C   UNL     1      48.302   6.954  12.573  0.00  0.00    +0.000 A 
ATOM     20  C   UNL     1      47.135   7.041  11.814  0.00  0.00    +0.000 A 
ATOM     21  C   UNL     1      46.004   6.298  12.169  0.00  0.00    +0.000 A 
ATOM     22  C   UNL     1      46.061   5.468  13.300  0.00  0.00    +0.000 A 
BRANCH  17  23
ATOM     23  C   UNL     1      47.273   4.479  15.282  0.00  0.00    +0.000 C 
BRANCH  23  24
ATOM     24  N   UNL     1      47.619   3.114  14.906  0.00  0.00    +0.000 NA
ATOM     25  H   UNL     1      46.789   2.646  14.550  0.00  0.00    +0.000 HD
ATOM     26  H   UNL     1      47.904   2.604  15.740  0.00  0.00    +0.000 HD
ENDBRANCH  23  24
ENDBRANCH  17  23
ENDBRANCH  16  21
ENDBRANCH  15  16
ENDBRANCH   1  15
TORSDOF 7
ENDMDL
MODEL 2
REMARK VINA RESULT:    -7.409      1.938      2.864
REMARK INTER + INTRA:         -10.871
REMARK INTER:                  -9.911
REMARK INTRA:                  -0.959
REMARK UNBOUND:                -0.646
REMARK  Name = 
REMARK  7 active torsions:
REMARK  status: ('A' for Active; 'I' for Inactive)
REMARK    1  A    between atoms: N_1  and  C_2
REMARK    2  A    between atoms: C_2  and  C_3
REMARK    3  A    between atoms: C_7  and  C_8
REMARK    4  A    between atoms: C_8  and  C_9
REMARK    5  A    between atoms: C_9  and  N_10
REMARK    6  A    between atoms: N_10  and  C_11
REMARK    7  A    between atoms: C_14  and  C_15
REMARK                            x       y       z     vdW  Elec       q    Type
REMARK                         _______ _______ _______ _____ _____    ______ ____
ROOT
ATOM      1  N   UNL     1      43.578   3.591  10.636  0.00  0.00    +0.000 N 
ATOM      2  H   UNL     1      43.324   4.578  10.581  0.00  0.00    +0.000 HD
ENDROOT
BRANCH   1   3
ATOM      3  C   UNL     1      44.575   3.295   9.687  0.00  0.00    +0.000 A 
ATOM      4  C   UNL     1      44.824   1.999   9.225  0.00  0.00    +0.000 A 
ATOM      5  C   UNL     1      45.783   1.757   8.233  0.00  0.00    +0.000 A 
ATOM      6  C   UNL     1      46.496   2.812   7.649  0.00  0.00    +0.000 A 
ATOM      7  C   UNL     1      46.230   4.116   8.064  0.00  0.00    +0.000 A 
ATOM      8  C   UNL     1      45.274   4.341   9.058  0.00  0.00    +0.000 A 
ATOM      9  F   UNL     1      45.041   5.607   9.440  0.00  0.00    +0.000 F 
BRANCH   6  10
ATOM     10  C   UNL     1      47.500   2.465   6.603  0.00  0.00    +0.000 C 
ATOM     11  N   UNL     1      47.420   3.080   5.387  0.00  0.00    +0.000 N 
ATOM     12  O   UNL     1      48.387   1.647   6.814  0.00  0.00    +0.000 OA
ATOM     13  H   UNL     1      46.728   3.758   5.114  0.00  0.00    +0.000 HD
ATOM     14  H   UNL     1      48.117   2.815   4.702  0.00  0.00    +0.000 HD
ENDBRANCH   6  10
ENDBRANCH   1   3
BRANCH   1  15
ATOM     15  C   UNL     1      43.793   3.123  12.009  0.00  0.00    +0.000 C 
BRANCH  15  16
ATOM     16  C   UNL     1      43.702   4.282  13.006  0.00  0.00    +0.000 C 
BRANCH  16  21
ATOM     17  C   UNL     1      45.907   7.368  12.517  0.00  0.00    +0.000 A 
ATOM     18  C   UNL     1      47.164   6.856  12.869  0.00  0.00    +0.000 A 
ATOM     19  C   UNL     1      47.304   5.514  13.226  0.00  0.00    +0.000 A 
ATOM     20  C   UNL     1      46.192   4.672  13.249  0.00  0.00    +0.000 A 
ATOM     21  C   UNL     1      44.925   5.166  12.915  0.00  0.00    +0.000 A 
ATOM     22  C   UNL     1      44.793   6.516  12.556  0.00  0.00    +0.000 A 
BRANCH  17  23
ATOM     23  C   UNL     1      45.745   8.818  12.140  0.00  0.00    +0.000 C 
BRANCH  23  24
ATOM     24  N   UNL     1      44.668   9.444  12.896  0.00  0.00    +0.000 NA
ATOM     25  H   UNL     1      44.370  10.289  12.414  0.00  0.00    +0.000 HD
ATOM     26  H   UNL     1      45.029   9.740  13.801  0.00  0.00    +0.000 HD
ENDBRANCH  23  24
ENDBRANCH  17  23
ENDBRANCH  16  21
ENDBRANCH  15  16
ENDBRANCH   1  15
TORSDOF 7
ENDMDL
MODEL 3
REMARK VINA RESULT:    -7.084      2.570      7.017
REMARK INTER + INTRA:         -10.422
REMARK INTER:                  -9.803
REMARK INTRA:                  -0.619
REMARK UNBOUND:                -0.646
REMARK  Name = 
REMARK  7 active torsions:
REMARK  status: ('A' for Active; 'I' for Inactive)
REMARK    1  A    between atoms: N_1  and  C_2
REMARK    2  A    between atoms: C_2  and  C_3
REMARK    3  A    between atoms: C_7  and  C_8
REMARK    4  A    between atoms: C_8  and  C_9
REMARK    5  A    between atoms: C_9  and  N_10
REMARK    6  A    between atoms: N_10  and  C_11
REMARK    7  A    between atoms: C_14  and  C_15
REMARK                            x       y       z     vdW  Elec       q    Type
REMARK                         _______ _______ _______ _____ _____    ______ ____
ROOT
ATOM      1  N   UNL     1      45.094   5.778  10.489  0.00  0.00    +0.000 N 
ATOM      2  H   UNL     1      44.085   5.644  10.559  0.00  0.00    +0.000 HD
ENDROOT
BRANCH   1   3
ATOM      3  C   UNL     1      45.716   5.397  11.693  0.00  0.00    +0.000 A 
ATOM      4  C   UNL     1      46.537   6.256  12.431  0.00  0.00    +0.000 A 
ATOM      5  C   UNL     1      47.085   5.857  13.656  0.00  0.00    +0.000 A 
ATOM      6  C   UNL     1      46.799   4.597  14.197  0.00  0.00    +0.000 A 
ATOM      7  C   UNL     1      45.946   3.742  13.497  0.00  0.00    +0.000 A 
ATOM      8  C   UNL     1      45.411   4.152  12.274  0.00  0.00    +0.000 A 
ATOM      9  F   UNL     1      44.597   3.307  11.622  0.00  0.00    +0.000 F 
BRANCH   6  10
ATOM     10  C   UNL     1      47.427   4.252  15.504  0.00  0.00    +0.000 C 
ATOM     11  N   UNL     1      47.661   5.252  16.404  0.00  0.00    +0.000 N 
ATOM     12  O   UNL     1      47.731   3.099  15.782  0.00  0.00    +0.000 OA
ATOM     13  H   UNL     1      47.455   6.227  16.267  0.00  0.00    +0.000 HD
ATOM     14  H   UNL     1      48.092   4.978  17.278  0.00  0.00    +0.000 HD
ENDBRANCH   6  10
ENDBRANCH   1   3
BRANCH   1  15
ATOM     15  C   UNL     1      45.665   5.260   9.241  0.00  0.00    +0.000 C 
BRANCH  15  16
ATOM     16  C   UNL     1      44.726   4.241   8.589  0.00  0.00    +0.000 C 
BRANCH  16  21
ATOM     17  C   UNL     1      46.968   2.214   6.245  0.00  0.00    +0.000 A 
ATOM     18  C   UNL     1      47.073   1.010   6.953  0.00  0.00    +0.000 A 
ATOM     19  C   UNL     1      46.396   0.839   8.162  0.00  0.00    +0.000 A 
ATOM     20  C   UNL     1      45.617   1.873   8.683  0.00  0.00    +0.000 A 
ATOM     21  C   UNL     1      45.509   3.090   7.999  0.00  0.00    +0.000 A 
ATOM     22  C   UNL     1      46.192   3.252   6.785  0.00  0.00    +0.000 A 
BRANCH  17  23
ATOM     23  C   UNL     1      47.704   2.410   4.946  0.00  0.00    +0.000 C 
BRANCH  23  24
ATOM     24  N   UNL     1      47.676   1.201   4.133  0.00  0.00    +0.000 NA
ATOM     25  H   UNL     1      47.305   0.434   4.689  0.00  0.00    +0.000 HD
ATOM     26  H   UNL     1      48.631   0.945   3.888  0.00  0.00    +0.000 HD
ENDBRANCH  23  24
ENDBRANCH  17  23
ENDBRANCH  16  21
ENDBRANCH  15  16
ENDBRANCH   1  15
TORSDOF 7
ENDMDL
MODEL 4
REMARK VINA RESULT:    -6.918      1.940      2.582
REMARK INTER + INTRA:         -10.193
REMARK INTER:                  -9.647
REMARK INTRA:                  -0.546
REMARK UNBOUND:                -0.646
REMARK  Name = 
REMARK  7 active torsions:
REMARK  status: ('A' for Active; 'I' for Inactive)
REMARK    1  A    between atoms: N_1  and  C_2
REMARK    2  A    between atoms: C_2  and  C_3
REMARK    3  A    between atoms: C_7  and  C_8
REMARK    4  A    between atoms: C_8  and  C_9
REMARK    5  A    between atoms: C_9  and  N_10
REMARK    6  A    between atoms: N_10  and  C_11
REMARK    7  A    between atoms: C_14  and  C_15
REMARK                            x       y       z     vdW  Elec       q    Type
REMARK                         _______ _______ _______ _____ _____    ______ ____
ROOT
ATOM      1  N   UNL     1      43.826   4.861  10.079  0.00  0.00    +0.000 N 
ATOM      2  H   UNL     1      43.730   5.808   9.711  0.00  0.00    +0.000 HD
ENDROOT
BRANCH   1   3
ATOM      3  C   UNL     1      44.694   4.112   9.262  0.00  0.00    +0.000 A 
ATOM      4  C   UNL     1      45.655   4.700   8.434  0.00  0.00    +0.000 A 
ATOM      5  C   UNL     1      46.541   3.916   7.684  0.00  0.00    +0.000 A 
ATOM      6  C   UNL     1      46.513   2.518   7.769  0.00  0.00    +0.000 A 
ATOM      7  C   UNL     1      45.590   1.913   8.623  0.00  0.00    +0.000 A 
ATOM      8  C   UNL     1      44.711   2.709   9.361  0.00  0.00    +0.000 A 
ATOM      9  F   UNL     1      43.831   2.099  10.172  0.00  0.00    +0.000 F 
BRANCH   6  10
ATOM     10  C   UNL     1      47.489   1.760   6.935  0.00  0.00    +0.000 C 
ATOM     11  N   UNL     1      48.560   2.425   6.411  0.00  0.00    +0.000 N 
ATOM     12  O   UNL     1      47.348   0.563   6.715  0.00  0.00    +0.000 OA
ATOM     13  H   UNL     1      48.759   3.404   6.527  0.00  0.00    +0.000 HD
ATOM     14  H   UNL     1      49.197   1.876   5.847  0.00  0.00    +0.000 HD
ENDBRANCH   6  10
ENDBRANCH   1   3
BRANCH   1  15
ATOM     15  C   UNL     1      44.058   4.820  11.526  0.00  0.00    +0.000 C 
BRANCH  15  16
ATOM     16  C   UNL     1      45.556   4.879  11.844  0.00  0.00    +0.000 C 
BRANCH  16  21
ATOM     17  C   UNL     1      47.713   8.035  11.944  0.00  0.00    +0.000 A 
ATOM     18  C   UNL     1      46.793   8.971  12.434  0.00  0.00    +0.000 A 
ATOM     19  C   UNL     1      45.495   8.579  12.764  0.00  0.00    +0.000 A 
ATOM     20  C   UNL     1      45.098   7.253  12.598  0.00  0.00    +0.000 A 
ATOM     21  C   UNL     1      45.996   6.303  12.096  0.00  0.00    +0.000 A 
ATOM     22  C   UNL     1      47.299   6.706  11.768  0.00  0.00    +0.000 A 
BRANCH  17  23
ATOM     23  C   UNL     1      49.114   8.452  11.575  0.00  0.00    +0.000 C 
BRANCH  23  24
ATOM     24  N   UNL     1      49.323   9.874  11.812  0.00  0.00    +0.000 NA
ATOM     25  H   UNL     1      48.812  10.407  11.112  0.00  0.00    +0.000 HD
ATOM     26  H   UNL     1      50.309  10.090  11.678  0.00  0.00    +0.000 HD
ENDBRANCH  23  24
ENDBRANCH  17  23
ENDBRANCH  16  21
ENDBRANCH  15  16
ENDBRANCH   1  15
TORSDOF 7
ENDMDL
MODEL 5
REMARK VINA RESULT:    -6.868      1.796      2.988
REMARK INTER + INTRA:         -10.124
REMARK INTER:                  -9.711
REMARK INTRA:                  -0.413
REMARK UNBOUND:                -0.646
REMARK  Name = 
REMARK  7 active torsions:
REMARK  status: ('A' for Active; 'I' for Inactive)
REMARK    1  A    between atoms: N_1  and  C_2
REMARK    2  A    between atoms: C_2  and  C_3
REMARK    3  A    between atoms: C_7  and  C_8
REMARK    4  A    between atoms: C_8  and  C_9
REMARK    5  A    between atoms: C_9  and  N_10
REMARK    6  A    between atoms: N_10  and  C_11
REMARK    7  A    between atoms: C_14  and  C_15
REMARK                            x       y       z     vdW  Elec       q    Type
REMARK                         _______ _______ _______ _____ _____    ______ ____
ROOT
ATOM      1  N   UNL     1      43.703   4.494  10.237  0.00  0.00    +0.000 N 
ATOM      2  H   UNL     1      43.400   5.402   9.881  0.00  0.00    +0.000 HD
ENDROOT
BRANCH   1   3
ATOM      3  C   UNL     1      44.622   3.909   9.345  0.00  0.00    +0.000 A 
ATOM      4  C   UNL     1      45.497   4.660   8.553  0.00  0.00    +0.000 A 
ATOM      5  C   UNL     1      46.439   4.036   7.726  0.00  0.00    +0.000 A 
ATOM      6  C   UNL     1      46.556   2.640   7.693  0.00  0.00    +0.000 A 
ATOM      7  C   UNL     1      45.722   1.875   8.509  0.00  0.00    +0.000 A 
ATOM      8  C   UNL     1      44.785   2.512   9.325  0.00  0.00    +0.000 A 
ATOM      9  F   UNL     1      43.993   1.750  10.097  0.00  0.00    +0.000 F 
BRANCH   6  10
ATOM     10  C   UNL     1      47.583   2.059   6.782  0.00  0.00    +0.000 C 
ATOM     11  N   UNL     1      48.206   2.880   5.886  0.00  0.00    +0.000 N 
ATOM     12  O   UNL     1      47.876   0.871   6.825  0.00  0.00    +0.000 OA
ATOM     13  H   UNL     1      48.032   3.864   5.769  0.00  0.00    +0.000 HD
ATOM     14  H   UNL     1      48.894   2.447   5.283  0.00  0.00    +0.000 HD
ENDBRANCH   6  10
ENDBRANCH   1   3
BRANCH   1  15
ATOM     15  C   UNL     1      44.063   4.518  11.658  0.00  0.00    +0.000 C 
BRANCH  15  16
ATOM     16  C   UNL     1      45.541   4.873  11.844  0.00  0.00    +0.000 C 
BRANCH  16  21
ATOM     17  C   UNL     1      44.965   8.651  11.729  0.00  0.00    +0.000 A 
ATOM     18  C   UNL     1      45.922   9.095  12.651  0.00  0.00    +0.000 A 
ATOM     19  C   UNL     1      46.773   8.184  13.279  0.00  0.00    +0.000 A 
ATOM     20  C   UNL     1      46.669   6.820  13.004  0.00  0.00    +0.000 A 
ATOM     21  C   UNL     1      45.711   6.353  12.097  0.00  0.00    +0.000 A 
ATOM     22  C   UNL     1      44.860   7.277  11.469  0.00  0.00    +0.000 A 
BRANCH  17  23
ATOM     23  C   UNL     1      44.036   9.627  11.055  0.00  0.00    +0.000 C 
BRANCH  23  24
ATOM     24  N   UNL     1      42.781   8.989  10.677  0.00  0.00    +0.000 NA
ATOM     25  H   UNL     1      42.015   9.640  10.835  0.00  0.00    +0.000 HD
ATOM     26  H   UNL     1      42.616   8.194  11.293  0.00  0.00    +0.000 HD
ENDBRANCH  23  24
ENDBRANCH  17  23
ENDBRANCH  16  21
ENDBRANCH  15  16
ENDBRANCH   1  15
TORSDOF 7
ENDMDL
MODEL 6
REMARK VINA RESULT:    -6.601      1.804      2.384
REMARK INTER + INTRA:          -9.756
REMARK INTER:                  -8.846
REMARK INTRA:                  -0.910
REMARK UNBOUND:                -0.646
REMARK  Name = 
REMARK  7 active torsions:
REMARK  status: ('A' for Active; 'I' for Inactive)
REMARK    1  A    between atoms: N_1  and  C_2
REMARK    2  A    between atoms: C_2  and  C_3
REMARK    3  A    between atoms: C_7  and  C_8
REMARK    4  A    between atoms: C_8  and  C_9
REMARK    5  A    between atoms: C_9  and  N_10
REMARK    6  A    between atoms: N_10  and  C_11
REMARK    7  A    between atoms: C_14  and  C_15
REMARK                            x       y       z     vdW  Elec       q    Type
REMARK                         _______ _______ _______ _____ _____    ______ ____
ROOT
ATOM      1  N   UNL     1      43.915   3.865  10.636  0.00  0.00    +0.000 N 
ATOM      2  H   UNL     1      43.358   4.649  10.295  0.00  0.00    +0.000 HD
ENDROOT
BRANCH   1   3
ATOM      3  C   UNL     1      44.811   3.440   9.636  0.00  0.00    +0.000 A 
ATOM      4  C   UNL     1      44.924   2.106   9.231  0.00  0.00    +0.000 A 
ATOM      5  C   UNL     1      45.783   1.737   8.190  0.00  0.00    +0.000 A 
ATOM      6  C   UNL     1      46.530   2.698   7.497  0.00  0.00    +0.000 A 
ATOM      7  C   UNL     1      46.399   4.040   7.856  0.00  0.00    +0.000 A 
ATOM      8  C   UNL     1      45.541   4.392   8.901  0.00  0.00    +0.000 A 
ATOM      9  F   UNL     1      45.437   5.691   9.226  0.00  0.00    +0.000 F 
BRANCH   6  10
ATOM     10  C   UNL     1      47.423   2.218   6.404  0.00  0.00    +0.000 C 
ATOM     11  N   UNL     1      47.021   2.382   5.109  0.00  0.00    +0.000 N 
ATOM     12  O   UNL     1      48.499   1.686   6.645  0.00  0.00    +0.000 OA
ATOM     13  H   UNL     1      46.156   2.799   4.809  0.00  0.00    +0.000 HD
ATOM     14  H   UNL     1      47.653   2.039   4.396  0.00  0.00    +0.000 HD
ENDBRANCH   6  10
ENDBRANCH   1   3
BRANCH   1  15
ATOM     15  C   UNL     1      44.456   4.076  11.982  0.00  0.00    +0.000 C 
BRANCH  15  16
ATOM     16  C   UNL     1      43.985   5.414  12.559  0.00  0.00    +0.000 C 
BRANCH  16  21
ATOM     17  C   UNL     1      47.474   6.976  12.454  0.00  0.00    +0.000 A 
ATOM     18  C   UNL     1      47.156   8.326  12.253  0.00  0.00    +0.000 A 
ATOM     19  C   UNL     1      45.823   8.735  12.189  0.00  0.00    +0.000 A 
ATOM     20  C   UNL     1      44.794   7.801  12.311  0.00  0.00    +0.000 A 
ATOM     21  C   UNL     1      45.089   6.445  12.497  0.00  0.00    +0.000 A 
ATOM     22  C   UNL     1      46.432   6.043  12.562  0.00  0.00    +0.000 A 
BRANCH  17  23
ATOM     23  C   UNL     1      48.911   6.525  12.513  0.00  0.00    +0.000 C 
BRANCH  23  24
ATOM     24  N   UNL     1      49.543   6.936  13.760  0.00  0.00    +0.000 NA
ATOM     25  H   UNL     1      49.061   6.494  14.540  0.00  0.00    +0.000 HD
ATOM     26  H   UNL     1      49.422   7.940  13.876  0.00  0.00    +0.000 HD
ENDBRANCH  23  24
ENDBRANCH  17  23
ENDBRANCH  16  21
ENDBRANCH  15  16
ENDBRANCH   1  15
TORSDOF 7
ENDMDL
MODEL 7
REMARK VINA RESULT:    -6.464      3.014      4.968
REMARK INTER + INTRA:          -9.567
REMARK INTER:                  -8.893
REMARK INTRA:                  -0.674
REMARK UNBOUND:                -0.646
REMARK  Name = 
REMARK  7 active torsions:
REMARK  status: ('A' for Active; 'I' for Inactive)
REMARK    1  A    between atoms: N_1  and  C_2
REMARK    2  A    between atoms: C_2  and  C_3
REMARK    3  A    between atoms: C_7  and  C_8
REMARK    4  A    between atoms: C_8  and  C_9
REMARK    5  A    between atoms: C_9  and  N_10
REMARK    6  A    between atoms: N_10  and  C_11
REMARK    7  A    between atoms: C_14  and  C_15
REMARK                            x       y       z     vdW  Elec       q    Type
REMARK                         _______ _______ _______ _____ _____    ______ ____
ROOT
ATOM      1  N   UNL     1      46.963   7.141  13.847  0.00  0.00    +0.000 N 
ATOM      2  H   UNL     1      46.797   8.134  13.682  0.00  0.00    +0.000 HD
ENDROOT
BRANCH   1   3
ATOM      3  C   UNL     1      46.252   6.371  12.906  0.00  0.00    +0.000 A 
ATOM      4  C   UNL     1      46.083   6.762  11.574  0.00  0.00    +0.000 A 
ATOM      5  C   UNL     1      45.423   5.936  10.656  0.00  0.00    +0.000 A 
ATOM      6  C   UNL     1      44.941   4.677  11.037  0.00  0.00    +0.000 A 
ATOM      7  C   UNL     1      45.139   4.250  12.351  0.00  0.00    +0.000 A 
ATOM      8  C   UNL     1      45.795   5.087  13.256  0.00  0.00    +0.000 A 
ATOM      9  F   UNL     1      45.968   4.650  14.514  0.00  0.00    +0.000 F 
BRANCH   6  10
ATOM     10  C   UNL     1      44.247   3.864   9.998  0.00  0.00    +0.000 C 
ATOM     11  N   UNL     1      44.181   4.347   8.723  0.00  0.00    +0.000 N 
ATOM     12  O   UNL     1      43.743   2.781  10.266  0.00  0.00    +0.000 OA
ATOM     13  H   UNL     1      44.557   5.225   8.406  0.00  0.00    +0.000 HD
ATOM     14  H   UNL     1      43.699   3.768   8.047  0.00  0.00    +0.000 HD
ENDBRANCH   6  10
ENDBRANCH   1   3
BRANCH   1  15
ATOM     15  C   UNL     1      48.377   6.814  14.055  0.00  0.00    +0.000 C 
BRANCH  15  16
ATOM     16  C   UNL     1      48.861   7.311  15.421  0.00  0.00    +0.000 C 
BRANCH  16  21
ATOM     17  C   UNL     1      48.913   3.973  17.286  0.00  0.00    +0.000 A 
ATOM     18  C   UNL     1      50.236   3.945  17.746  0.00  0.00    +0.000 A 
ATOM     19  C   UNL     1      51.096   5.014  17.488  0.00  0.00    +0.000 A 
ATOM     20  C   UNL     1      50.649   6.115  16.757  0.00  0.00    +0.000 A 
ATOM     21  C   UNL     1      49.335   6.157  16.275  0.00  0.00    +0.000 A 
ATOM     22  C   UNL     1      48.478   5.078  16.540  0.00  0.00    +0.000 A 
BRANCH  17  23
ATOM     23  C   UNL     1      47.982   2.818  17.551  0.00  0.00    +0.000 C 
BRANCH  23  24
ATOM     24  N   UNL     1      46.590   3.251  17.556  0.00  0.00    +0.000 NA
ATOM     25  H   UNL     1      46.523   4.151  18.025  0.00  0.00    +0.000 HD
ATOM     26  H   UNL     1      46.043   2.594  18.110  0.00  0.00    +0.000 HD
ENDBRANCH  23  24
ENDBRANCH  17  23
ENDBRANCH  16  21
ENDBRANCH  15  16
ENDBRANCH   1  15
TORSDOF 7
ENDMDL
MODEL 8
REMARK VINA RESULT:    -5.892      4.680      8.210
REMARK INTER + INTRA:          -8.777
REMARK INTER:                  -8.271
REMARK INTRA:                  -0.506
REMARK UNBOUND:                -0.646
REMARK  Name = 
REMARK  7 active torsions:
REMARK  status: ('A' for Active; 'I' for Inactive)
REMARK    1  A    between atoms: N_1  and  C_2
REMARK    2  A    between atoms: C_2  and  C_3
REMARK    3  A    between atoms: C_7  and  C_8
REMARK    4  A    between atoms: C_8  and  C_9
REMARK    5  A    between atoms: C_9  and  N_10
REMARK    6  A    between atoms: N_10  and  C_11
REMARK    7  A    between atoms: C_14  and  C_15
REMARK                            x       y       z     vdW  Elec       q    Type
REMARK                         _______ _______ _______ _____ _____    ______ ____
ROOT
ATOM      1  N   UNL     1      47.334   4.144  16.579  0.00  0.00    +0.000 N 
ATOM      2  H   UNL     1      46.619   3.859  17.249  0.00  0.00    +0.000 HD
ENDROOT
BRANCH   1   3
ATOM      3  C   UNL     1      48.590   3.644  16.972  0.00  0.00    +0.000 A 
ATOM      4  C   UNL     1      48.996   2.328  16.726  0.00  0.00    +0.000 A 
ATOM      5  C   UNL     1      50.278   1.889  17.077  0.00  0.00    +0.000 A 
ATOM      6  C   UNL     1      51.206   2.766  17.654  0.00  0.00    +0.000 A 
ATOM      7  C   UNL     1      50.836   4.094  17.866  0.00  0.00    +0.000 A 
ATOM      8  C   UNL     1      49.552   4.516  17.515  0.00  0.00    +0.000 A 
ATOM      9  F   UNL     1      49.222   5.799  17.734  0.00  0.00    +0.000 F 
BRANCH   6  10
ATOM     10  C   UNL     1      52.548   2.215  18.000  0.00  0.00    +0.000 C 
ATOM     11  N   UNL     1      53.142   2.616  19.162  0.00  0.00    +0.000 N 
ATOM     12  O   UNL     1      53.118   1.416  17.268  0.00  0.00    +0.000 OA
ATOM     13  H   UNL     1      52.760   3.270  19.824  0.00  0.00    +0.000 HD
ATOM     14  H   UNL     1      54.054   2.223  19.359  0.00  0.00    +0.000 HD
ENDBRANCH   6  10
ENDBRANCH   1   3
BRANCH   1  15
ATOM     15  C   UNL     1      46.935   3.944  15.183  0.00  0.00    +0.000 C 
BRANCH  15  16
ATOM     16  C   UNL     1      47.279   5.170  14.331  0.00  0.00    +0.000 C 
BRANCH  16  21
ATOM     17  C   UNL     1      44.811   4.133  11.601  0.00  0.00    +0.000 A 
ATOM     18  C   UNL     1      44.964   5.186  10.689  0.00  0.00    +0.000 A 
ATOM     19  C   UNL     1      45.885   6.205  10.936  0.00  0.00    +0.000 A 
ATOM     20  C   UNL     1      46.652   6.192  12.101  0.00  0.00    +0.000 A 
ATOM     21  C   UNL     1      46.505   5.158  13.033  0.00  0.00    +0.000 A 
ATOM     22  C   UNL     1      45.578   4.136  12.776  0.00  0.00    +0.000 A 
BRANCH  17  23
ATOM     23  C   UNL     1      43.811   3.034  11.347  0.00  0.00    +0.000 C 
BRANCH  23  24
ATOM     24  N   UNL     1      43.556   2.261  12.556  0.00  0.00    +0.000 NA
ATOM     25  H   UNL     1      43.516   2.892  13.353  0.00  0.00    +0.000 HD
ATOM     26  H   UNL     1      44.343   1.636  12.721  0.00  0.00    +0.000 HD
ENDBRANCH  23  24
ENDBRANCH  17  23
ENDBRANCH  16  21
ENDBRANCH  15  16
ENDBRANCH   1  15
TORSDOF 7
ENDMDL
MODEL 9
REMARK VINA RESULT:    -5.763      4.771      6.259
REMARK INTER + INTRA:          -8.600
REMARK INTER:                  -7.764
REMARK INTRA:                  -0.835
REMARK UNBOUND:                -0.646
REMARK  Name = 
REMARK  7 active torsions:
REMARK  status: ('A' for Active; 'I' for Inactive)
REMARK    1  A    between atoms: N_1  and  C_2
REMARK    2  A    between atoms: C_2  and  C_3
REMARK    3  A    between atoms: C_7  and  C_8
REMARK    4  A    between atoms: C_8  and  C_9
REMARK    5  A    between atoms: C_9  and  N_10
REMARK    6  A    between atoms: N_10  and  C_11
REMARK    7  A    between atoms: C_14  and  C_15
REMARK                            x       y       z     vdW  Elec       q    Type
REMARK                         _______ _______ _______ _____ _____    ______ ____
ROOT
ATOM      1  N   UNL     1      48.445   7.438  13.471  0.00  0.00    +0.000 N 
ATOM      2  H   UNL     1      49.269   6.851  13.339  0.00  0.00    +0.000 HD
ENDROOT
BRANCH   1   3
ATOM      3  C   UNL     1      47.276   6.673  13.299  0.00  0.00    +0.000 A 
ATOM      4  C   UNL     1      47.143   5.367  13.782  0.00  0.00    +0.000 A 
ATOM      5  C   UNL     1      45.940   4.664  13.644  0.00  0.00    +0.000 A 
ATOM      6  C   UNL     1      44.821   5.262  13.050  0.00  0.00    +0.000 A 
ATOM      7  C   UNL     1      44.919   6.580  12.603  0.00  0.00    +0.000 A 
ATOM      8  C   UNL     1      46.128   7.266  12.743  0.00  0.00    +0.000 A 
ATOM      9  F   UNL     1      46.194   8.532  12.300  0.00  0.00    +0.000 F 
BRANCH   6  10
ATOM     10  C   UNL     1      43.581   4.441  12.941  0.00  0.00    +0.000 C 
ATOM     11  N   UNL     1      43.696   3.081  12.894  0.00  0.00    +0.000 N 
ATOM     12  O   UNL     1      42.473   4.960  12.895  0.00  0.00    +0.000 OA
ATOM     13  H   UNL     1      44.558   2.562  12.918  0.00  0.00    +0.000 HD
ATOM     14  H   UNL     1      42.832   2.560  12.816  0.00  0.00    +0.000 HD
ENDBRANCH   6  10
ENDBRANCH   1   3
BRANCH   1  15
ATOM     15  C   UNL     1      48.524   8.292  14.660  0.00  0.00    +0.000 C 
BRANCH  15  16
ATOM     16  C   UNL     1      49.539   7.741  15.666  0.00  0.00    +0.000 C 
BRANCH  16  21
ATOM     17  C   UNL     1      48.090   5.034  17.946  0.00  0.00    +0.000 A 
ATOM     18  C   UNL     1      47.656   5.804  19.032  0.00  0.00    +0.000 A 
ATOM     19  C   UNL     1      47.796   7.193  19.014  0.00  0.00    +0.000 A 
ATOM     20  C   UNL     1      48.383   7.826  17.918  0.00  0.00    +0.000 A 
ATOM     21  C   UNL     1      48.837   7.074  16.827  0.00  0.00    +0.000 A 
ATOM     22  C   UNL     1      48.691   5.679  16.854  0.00  0.00    +0.000 A 
BRANCH  17  23
ATOM     23  C   UNL     1      47.952   3.533  17.962  0.00  0.00    +0.000 C 
BRANCH  23  24
ATOM     24  N   UNL     1      46.615   3.120  17.555  0.00  0.00    +0.000 NA
ATOM     25  H   UNL     1      46.077   2.870  18.381  0.00  0.00    +0.000 HD
ATOM     26  H   UNL     1      46.689   2.274  16.991  0.00  0.00    +0.000 HD
ENDBRANCH  23  24
ENDBRANCH  17  23
ENDBRANCH  16  21
ENDBRANCH  15  16
ENDBRANCH   1  15
TORSDOF 7
ENDMDL
