MODEL 1
REMARK VINA RESULT:    -8.475      0.000      0.000
REMARK INTER + INTRA:         -11.820
REMARK INTER:                 -10.952
REMARK INTRA:                  -0.867
REMARK UNBOUND:                -0.867
REMARK  Name = 
REMARK  5 active torsions:
REMARK  status: ('A' for Active; 'I' for Inactive)
REMARK    1  A    between atoms: C_2  and  C_19
REMARK    2  A    between atoms: N_3  and  C_4
REMARK    3  A    between atoms: C_4  and  C_5
REMARK    4  A    between atoms: C_8  and  C_9
REMARK    5  A    between atoms: C_9  and  N_10
REMARK                            x       y       z     vdW  Elec       q    Type
REMARK                         _______ _______ _______ _____ _____    ______ ____
ROOT
ATOM      1  C   UNL     1      46.907   8.006  13.290  0.00  0.00    +0.000 C 
ENDROOT
BRANCH   1   2
ATOM      2  C   UNL     1      46.108   7.060  12.427  0.00  0.00    +0.000 A 
ATOM      3  C   UNL     1      44.897   6.525  12.885  0.00  0.00    +0.000 A 
ATOM      4  C   UNL     1      44.159   5.641  12.088  0.00  0.00    +0.000 A 
ATOM      5  C   UNL     1      44.631   5.251  10.826  0.00  0.00    +0.000 A 
ATOM      6  C   UNL     1      45.848   5.778  10.374  0.00  0.00    +0.000 A 
ATOM      7  C   UNL     1      46.583   6.664  11.170  0.00  0.00    +0.000 A 
BRANCH   5   8
ATOM      8  C   UNL     1      43.845   4.274   9.978  0.00  0.00    +0.000 C 
BRANCH   8   9
ATOM      9  N   UNL     1      44.333   4.279   8.614  0.00  0.00    +0.000 N 
ATOM     10  C   UNL     1      45.274   3.343   8.218  0.00  0.00    +0.000 A 
ATOM     11  C   UNL     1      45.333   2.028   8.691  0.00  0.00    +0.000 A 
ATOM     12  N   UNL     1      46.223   1.097   8.255  0.00  0.00    +0.000 NA
ATOM     13  C   UNL     1      47.054   1.523   7.285  0.00  0.00    +0.000 A 
ATOM     14  C   UNL     1      47.006   2.814   6.794  0.00  0.00    +0.000 A 
ATOM     15  N   UNL     1      46.130   3.743   7.254  0.00  0.00    +0.000 NA
ATOM     16  H   UNL     1      44.608   5.186   8.245  0.00  0.00    +0.000 HD
ENDBRANCH   8   9
ENDBRANCH   5   8
ENDBRANCH   1   2
BRANCH   1  19
ATOM     17  O   UNL     1      49.459   6.907  13.654  0.00  0.00    +0.000 OA
ATOM     18  C   UNL     1      48.671   6.896  14.597  0.00  0.00    +0.000 C 
ATOM     19  N   UNL     1      47.381   7.342  14.478  0.00  0.00    +0.000 N 
ATOM     20  H   UNL     1      46.836   7.501  15.318  0.00  0.00    +0.000 HD
BRANCH  18  21
ATOM     21  C   UNL     1      49.053   6.362  15.912  0.00  0.00    +0.000 A 
ATOM     22  C   UNL     1      49.981   7.033  16.697  0.00  0.00    +0.000 A 
ATOM     23  S   UNL     1      50.321   6.250  18.175  0.00  0.00    +0.000 S 
ATOM     24  C   UNL     1      49.203   5.011  17.840  0.00  0.00    +0.000 A 
ATOM     25  N   UNL     1      48.983   4.008  18.728  0.00  0.00    +0.000 NA
ATOM     26  C   UNL     1      48.085   3.153  18.358  0.00  0.00    +0.000 A 
ATOM     27  N   UNL     1      47.393   3.209  17.180  0.00  0.00    +0.000 N 
ATOM     28  C   UNL     1      47.609   4.183  16.237  0.00  0.00    +0.000 A 
ATOM     29  O   UNL     1      47.009   4.171  15.166  0.00  0.00    +0.000 OA
ATOM     30  C   UNL     1      48.595   5.181  16.609  0.00  0.00    +0.000 A 
ATOM     31  H   UNL     1      46.717   2.499  16.939  0.00  0.00    +0.000 HD
ENDBRANCH  18  21
ENDBRANCH   1  19
TORSDOF 5
ENDMDL
MODEL 2
REMARK VINA RESULT:    -8.127      1.988      2.487
REMARK INTER + INTRA:         -11.369
REMARK INTER:                 -10.649
REMARK INTRA:                  -0.720
REMARK UNBOUND:                -0.867
REMARK  Name = 
REMARK  5 active torsions:
REMARK  status: ('A' for Active; 'I' for Inactive)
REMARK    1  A    between atoms: C_2  and  C_19
REMARK    2  A    between atoms: N_3  and  C_4
REMARK    3  A    between atoms: C_4  and  C_5
REMARK    4  A    between atoms: C_8  and  C_9
REMARK    5  A    between atoms: C_9  and  N_10
REMARK                            x       y       z     vdW  Elec       q    Type
REMARK                         _______ _______ _______ _____ _____    ______ ____
ROOT
ATOM      1  C   UNL     1      47.781   6.766  13.719  0.00  0.00    +0.000 C 
ENDROOT
BRANCH   1   2
ATOM      2  C   UNL     1      46.768   6.103  12.817  0.00  0.00    +0.000 A 
ATOM      3  C   UNL     1      46.456   6.654  11.566  0.00  0.00    +0.000 A 
ATOM      4  C   UNL     1      45.511   6.044  10.733  0.00  0.00    +0.000 A 
ATOM      5  C   UNL     1      44.836   4.886  11.142  0.00  0.00    +0.000 A 
ATOM      6  C   UNL     1      45.140   4.342  12.398  0.00  0.00    +0.000 A 
ATOM      7  C   UNL     1      46.088   4.951  13.229  0.00  0.00    +0.000 A 
BRANCH   5   8
ATOM      8  C   UNL     1      43.795   4.244  10.251  0.00  0.00    +0.000 C 
BRANCH   8   9
ATOM      9  N   UNL     1      44.204   4.310   8.863  0.00  0.00    +0.000 N 
ATOM     10  C   UNL     1      45.162   3.431   8.387  0.00  0.00    +0.000 A 
ATOM     11  C   UNL     1      45.308   2.107   8.814  0.00  0.00    +0.000 A 
ATOM     12  N   UNL     1      46.213   1.232   8.300  0.00  0.00    +0.000 NA
ATOM     13  C   UNL     1      46.967   1.724   7.300  0.00  0.00    +0.000 A 
ATOM     14  C   UNL     1      46.833   3.025   6.853  0.00  0.00    +0.000 A 
ATOM     15  N   UNL     1      45.943   3.898   7.389  0.00  0.00    +0.000 NA
ATOM     16  H   UNL     1      44.415   5.239   8.508  0.00  0.00    +0.000 HD
ENDBRANCH   8   9
ENDBRANCH   5   8
ENDBRANCH   1   2
BRANCH   1  19
ATOM     17  O   UNL     1      49.958   6.613  15.477  0.00  0.00    +0.000 OA
ATOM     18  C   UNL     1      48.864   6.202  15.855  0.00  0.00    +0.000 C 
ATOM     19  N   UNL     1      47.769   6.169  15.031  0.00  0.00    +0.000 N 
ATOM     20  H   UNL     1      46.853   6.016  15.436  0.00  0.00    +0.000 HD
BRANCH  18  21
ATOM     21  C   UNL     1      48.667   5.677  17.214  0.00  0.00    +0.000 A 
ATOM     22  C   UNL     1      48.898   4.335  17.485  0.00  0.00    +0.000 A 
ATOM     23  S   UNL     1      48.590   3.902  19.107  0.00  0.00    +0.000 S 
ATOM     24  C   UNL     1      48.183   5.503  19.515  0.00  0.00    +0.000 A 
ATOM     25  N   UNL     1      47.838   5.836  20.786  0.00  0.00    +0.000 NA
ATOM     26  C   UNL     1      47.585   7.092  20.961  0.00  0.00    +0.000 A 
ATOM     27  N   UNL     1      47.642   8.043  19.979  0.00  0.00    +0.000 N 
ATOM     28  C   UNL     1      47.950   7.748  18.675  0.00  0.00    +0.000 A 
ATOM     29  O   UNL     1      47.938   8.618  17.809  0.00  0.00    +0.000 OA
ATOM     30  C   UNL     1      48.261   6.352  18.426  0.00  0.00    +0.000 A 
ATOM     31  H   UNL     1      47.414   9.007  20.175  0.00  0.00    +0.000 HD
ENDBRANCH  18  21
ENDBRANCH   1  19
TORSDOF 5
ENDMDL
MODEL 3
REMARK VINA RESULT:    -8.053      1.864      2.111
REMARK INTER + INTRA:         -11.275
REMARK INTER:                 -10.565
REMARK INTRA:                  -0.710
REMARK UNBOUND:                -0.867
REMARK  Name = 
REMARK  5 active torsions:
REMARK  status: ('A' for Active; 'I' for Inactive)
REMARK    1  A    between atoms: C_2  and  C_19
REMARK    2  A    between atoms: N_3  and  C_4
REMARK    3  A    between atoms: C_4  and  C_5
REMARK    4  A    between atoms: C_8  and  C_9
REMARK    5  A    between atoms: C_9  and  N_10
REMARK                            x       y       z     vdW  Elec       q    Type
REMARK                         _______ _______ _______ _____ _____    ______ ____
ROOT
ATOM      1  C   UNL     1      48.413   6.531  13.876  0.00  0.00    +0.000 C 
ENDROOT
BRANCH   1   2
ATOM      2  C   UNL     1      47.199   6.035  13.129  0.00  0.00    +0.000 A 
ATOM      3  C   UNL     1      46.615   4.803  13.453  0.00  0.00    +0.000 A 
ATOM      4  C   UNL     1      45.493   4.339  12.756  0.00  0.00    +0.000 A 
ATOM      5  C   UNL     1      44.947   5.083  11.700  0.00  0.00    +0.000 A 
ATOM      6  C   UNL     1      45.538   6.310  11.370  0.00  0.00    +0.000 A 
ATOM      7  C   UNL     1      46.658   6.775  12.070  0.00  0.00    +0.000 A 
BRANCH   5   8
ATOM      8  C   UNL     1      43.751   4.567  10.930  0.00  0.00    +0.000 C 
BRANCH   8   9
ATOM      9  N   UNL     1      43.996   4.636   9.504  0.00  0.00    +0.000 N 
ATOM     10  C   UNL     1      44.874   3.742   8.914  0.00  0.00    +0.000 A 
ATOM     11  C   UNL     1      45.042   2.413   9.314  0.00  0.00    +0.000 A 
ATOM     12  N   UNL     1      45.863   1.525   8.693  0.00  0.00    +0.000 NA
ATOM     13  C   UNL     1      46.505   2.010   7.613  0.00  0.00    +0.000 A 
ATOM     14  C   UNL     1      46.346   3.317   7.193  0.00  0.00    +0.000 A 
ATOM     15  N   UNL     1      45.543   4.202   7.835  0.00  0.00    +0.000 NA
ATOM     16  H   UNL     1      44.183   5.564   9.132  0.00  0.00    +0.000 HD
ENDBRANCH   8   9
ENDBRANCH   5   8
ENDBRANCH   1   2
BRANCH   1  19
ATOM     17  O   UNL     1      50.287   6.230  15.938  0.00  0.00    +0.000 OA
ATOM     18  C   UNL     1      49.135   6.543  16.228  0.00  0.00    +0.000 C 
ATOM     19  N   UNL     1      48.142   6.634  15.288  0.00  0.00    +0.000 N 
ATOM     20  H   UNL     1      47.269   7.085  15.536  0.00  0.00    +0.000 HD
BRANCH  18  21
ATOM     21  C   UNL     1      48.735   6.803  17.619  0.00  0.00    +0.000 A 
ATOM     22  C   UNL     1      48.332   8.074  18.005  0.00  0.00    +0.000 A 
ATOM     23  S   UNL     1      47.934   8.192  19.660  0.00  0.00    +0.000 S 
ATOM     24  C   UNL     1      48.240   6.537  19.909  0.00  0.00    +0.000 A 
ATOM     25  N   UNL     1      48.065   5.968  21.130  0.00  0.00    +0.000 NA
ATOM     26  C   UNL     1      48.303   4.697  21.168  0.00  0.00    +0.000 A 
ATOM     27  N   UNL     1      48.705   3.947  20.097  0.00  0.00    +0.000 N 
ATOM     28  C   UNL     1      48.930   4.485  18.855  0.00  0.00    +0.000 A 
ATOM     29  O   UNL     1      49.344   3.792  17.930  0.00  0.00    +0.000 OA
ATOM     30  C   UNL     1      48.660   5.908  18.751  0.00  0.00    +0.000 A 
ATOM     31  H   UNL     1      48.895   2.960  20.195  0.00  0.00    +0.000 HD
ENDBRANCH  18  21
ENDBRANCH   1  19
TORSDOF 5
ENDMDL
MODEL 4
REMARK VINA RESULT:    -7.618      2.619      4.577
REMARK INTER + INTRA:         -10.712
REMARK INTER:                  -9.675
REMARK INTRA:                  -1.038
REMARK UNBOUND:                -0.867
REMARK  Name = 
REMARK  5 active torsions:
REMARK  status: ('A' for Active; 'I' for Inactive)
REMARK    1  A    between atoms: C_2  and  C_19
REMARK    2  A    between atoms: N_3  and  C_4
REMARK    3  A    between atoms: C_4  and  C_5
REMARK    4  A    between atoms: C_8  and  C_9
REMARK    5  A    between atoms: C_9  and  N_10
REMARK                            x       y       z     vdW  Elec       q    Type
REMARK                         _______ _______ _______ _____ _____    ______ ____
ROOT
ATOM      1  C   UNL     1      47.619   5.555  14.267  0.00  0.00    +0.000 C 
ENDROOT
BRANCH   1   2
ATOM      2  C   UNL     1      46.625   5.184  13.193  0.00  0.00    +0.000 A 
ATOM      3  C   UNL     1      46.227   6.125  12.234  0.00  0.00    +0.000 A 
ATOM      4  C   UNL     1      45.299   5.785  11.242  0.00  0.00    +0.000 A 
ATOM      5  C   UNL     1      44.727   4.505  11.205  0.00  0.00    +0.000 A 
ATOM      6  C   UNL     1      45.118   3.569  12.171  0.00  0.00    +0.000 A 
ATOM      7  C   UNL     1      46.048   3.909  13.161  0.00  0.00    +0.000 A 
BRANCH   5   8
ATOM      8  C   UNL     1      43.704   4.148  10.149  0.00  0.00    +0.000 C 
BRANCH   8   9
ATOM      9  N   UNL     1      44.264   4.311   8.823  0.00  0.00    +0.000 N 
ATOM     10  C   UNL     1      45.244   3.438   8.379  0.00  0.00    +0.000 A 
ATOM     11  C   UNL     1      45.305   2.080   8.708  0.00  0.00    +0.000 A 
ATOM     12  N   UNL     1      46.236   1.217   8.222  0.00  0.00    +0.000 NA
ATOM     13  C   UNL     1      47.109   1.760   7.352  0.00  0.00    +0.000 A 
ATOM     14  C   UNL     1      47.061   3.096   7.004  0.00  0.00    +0.000 A 
ATOM     15  N   UNL     1      46.142   3.955   7.514  0.00  0.00    +0.000 NA
ATOM     16  H   UNL     1      44.539   5.257   8.571  0.00  0.00    +0.000 HD
ENDBRANCH   8   9
ENDBRANCH   5   8
ENDBRANCH   1   2
BRANCH   1  19
ATOM     17  O   UNL     1      49.974   6.852  15.057  0.00  0.00    +0.000 OA
ATOM     18  C   UNL     1      49.040   7.530  14.636  0.00  0.00    +0.000 C 
ATOM     19  N   UNL     1      47.829   6.980  14.304  0.00  0.00    +0.000 N 
ATOM     20  H   UNL     1      47.165   7.536  13.777  0.00  0.00    +0.000 HD
BRANCH  18  21
ATOM     21  C   UNL     1      49.149   8.989  14.498  0.00  0.00    +0.000 A 
ATOM     22  C   UNL     1      49.363   9.783  15.617  0.00  0.00    +0.000 A 
ATOM     23  S   UNL     1      49.433  11.452  15.269  0.00  0.00    +0.000 S 
ATOM     24  C   UNL     1      49.227  11.169  13.603  0.00  0.00    +0.000 A 
ATOM     25  N   UNL     1      49.218  12.196  12.714  0.00  0.00    +0.000 NA
ATOM     26  C   UNL     1      49.085  11.835  11.480  0.00  0.00    +0.000 A 
ATOM     27  N   UNL     1      48.956  10.541  11.055  0.00  0.00    +0.000 N 
ATOM     28  C   UNL     1      48.923   9.475  11.920  0.00  0.00    +0.000 A 
ATOM     29  O   UNL     1      48.750   8.331  11.508  0.00  0.00    +0.000 OA
ATOM     30  C   UNL     1      49.086   9.823  13.319  0.00  0.00    +0.000 A 
ATOM     31  H   UNL     1      48.836  10.324  10.077  0.00  0.00    +0.000 HD
ENDBRANCH  18  21
ENDBRANCH   1  19
TORSDOF 5
ENDMDL
MODEL 5
REMARK VINA RESULT:    -7.279      3.727      5.495
REMARK INTER + INTRA:         -10.274
REMARK INTER:                  -9.620
REMARK INTRA:                  -0.654
REMARK UNBOUND:                -0.867
REMARK  Name = 
REMARK  5 active torsions:
REMARK  status: ('A' for Active; 'I' for Inactive)
REMARK    1  A    between atoms: C_2  and  C_19
REMARK    2  A    between atoms: N_3  and  C_4
REMARK    3  A    between atoms: C_4  and  C_5
REMARK    4  A    between atoms: C_8  and  C_9
REMARK    5  A    between atoms: C_9  and  N_10
REMARK                            x       y       z     vdW  Elec       q    Type
REMARK                         _______ _______ _______ _____ _____    ______ ____
ROOT
ATOM      1  C   UNL     1      46.534   4.072  14.249  0.00  0.00    +0.000 C 
ENDROOT
BRANCH   1   2
ATOM      2  C   UNL     1      46.035   5.282  13.497  0.00  0.00    +0.000 A 
ATOM      3  C   UNL     1      44.806   5.248  12.824  0.00  0.00    +0.000 A 
ATOM      4  C   UNL     1      44.346   6.366  12.119  0.00  0.00    +0.000 A 
ATOM      5  C   UNL     1      45.117   7.535  12.047  0.00  0.00    +0.000 A 
ATOM      6  C   UNL     1      46.351   7.565  12.712  0.00  0.00    +0.000 A 
ATOM      7  C   UNL     1      46.809   6.446  13.419  0.00  0.00    +0.000 A 
BRANCH   5   8
ATOM      8  C   UNL     1      44.631   8.733  11.262  0.00  0.00    +0.000 C 
BRANCH   8   9
ATOM      9  N   UNL     1      43.206   8.639  11.022  0.00  0.00    +0.000 N 
ATOM     10  C   UNL     1      42.517   9.739  10.536  0.00  0.00    +0.000 A 
ATOM     11  C   UNL     1      43.044  10.671   9.636  0.00  0.00    +0.000 A 
ATOM     12  N   UNL     1      42.343  11.715   9.118  0.00  0.00    +0.000 NA
ATOM     13  C   UNL     1      41.058  11.783   9.514  0.00  0.00    +0.000 A 
ATOM     14  C   UNL     1      40.513  10.866  10.393  0.00  0.00    +0.000 A 
ATOM     15  N   UNL     1      41.228   9.842  10.923  0.00  0.00    +0.000 NA
ATOM     16  H   UNL     1      42.657   8.222  11.769  0.00  0.00    +0.000 HD
ENDBRANCH   8   9
ENDBRANCH   5   8
ENDBRANCH   1   2
BRANCH   1  19
ATOM     17  O   UNL     1      46.562   3.385  16.966  0.00  0.00    +0.000 OA
ATOM     18  C   UNL     1      47.517   4.003  16.504  0.00  0.00    +0.000 C 
ATOM     19  N   UNL     1      47.546   4.444  15.206  0.00  0.00    +0.000 N 
ATOM     20  H   UNL     1      48.424   4.765  14.815  0.00  0.00    +0.000 HD
BRANCH  18  21
ATOM     21  C   UNL     1      48.683   4.347  17.330  0.00  0.00    +0.000 A 
ATOM     22  C   UNL     1      48.692   5.519  18.075  0.00  0.00    +0.000 A 
ATOM     23  S   UNL     1      50.138   5.764  18.948  0.00  0.00    +0.000 S 
ATOM     24  C   UNL     1      50.785   4.289  18.399  0.00  0.00    +0.000 A 
ATOM     25  N   UNL     1      52.013   3.871  18.799  0.00  0.00    +0.000 NA
ATOM     26  C   UNL     1      52.366   2.718  18.331  0.00  0.00    +0.000 A 
ATOM     27  N   UNL     1      51.603   1.949  17.495  0.00  0.00    +0.000 N 
ATOM     28  C   UNL     1      50.372   2.347  17.036  0.00  0.00    +0.000 A 
ATOM     29  O   UNL     1      49.739   1.657  16.243  0.00  0.00    +0.000 OA
ATOM     30  C   UNL     1      49.919   3.629  17.546  0.00  0.00    +0.000 A 
ATOM     31  H   UNL     1      51.943   1.065  17.147  0.00  0.00    +0.000 HD
ENDBRANCH  18  21
ENDBRANCH   1  19
TORSDOF 5
ENDMDL
MODEL 6
REMARK VINA RESULT:    -7.237      1.896      2.995
REMARK INTER + INTRA:         -10.219
REMARK INTER:                  -9.599
REMARK INTRA:                  -0.620
REMARK UNBOUND:                -0.867
REMARK  Name = 
REMARK  5 active torsions:
REMARK  status: ('A' for Active; 'I' for Inactive)
REMARK    1  A    between atoms: C_2  and  C_19
REMARK    2  A    between atoms: N_3  and  C_4
REMARK    3  A    between atoms: C_4  and  C_5
REMARK    4  A    between atoms: C_8  and  C_9
REMARK    5  A    between atoms: C_9  and  N_10
REMARK                            x       y       z     vdW  Elec       q    Type
REMARK                         _______ _______ _______ _____ _____    ______ ____
ROOT
ATOM      1  C   UNL     1      44.350   4.996  12.843  0.00  0.00    +0.000 C 
ENDROOT
BRANCH   1   2
ATOM      2  C   UNL     1      44.828   4.742  11.434  0.00  0.00    +0.000 A 
ATOM      3  C   UNL     1      44.670   3.482  10.842  0.00  0.00    +0.000 A 
ATOM      4  C   UNL     1      45.120   3.243   9.538  0.00  0.00    +0.000 A 
ATOM      5  C   UNL     1      45.764   4.250   8.807  0.00  0.00    +0.000 A 
ATOM      6  C   UNL     1      45.933   5.507   9.403  0.00  0.00    +0.000 A 
ATOM      7  C   UNL     1      45.479   5.746  10.707  0.00  0.00    +0.000 A 
BRANCH   5   8
ATOM      8  C   UNL     1      46.274   3.982   7.408  0.00  0.00    +0.000 C 
BRANCH   8   9
ATOM      9  N   UNL     1      47.044   2.755   7.374  0.00  0.00    +0.000 N 
ATOM     10  C   UNL     1      46.976   1.933   6.261  0.00  0.00    +0.000 A 
ATOM     11  C   UNL     1      46.834   2.387   4.946  0.00  0.00    +0.000 A 
ATOM     12  N   UNL     1      46.827   1.578   3.853  0.00  0.00    +0.000 NA
ATOM     13  C   UNL     1      47.002   0.270   4.120  0.00  0.00    +0.000 A 
ATOM     14  C   UNL     1      47.156  -0.200   5.410  0.00  0.00    +0.000 A 
ATOM     15  N   UNL     1      47.136   0.613   6.496  0.00  0.00    +0.000 NA
ATOM     16  H   UNL     1      46.987   2.174   8.206  0.00  0.00    +0.000 HD
ENDBRANCH   8   9
ENDBRANCH   5   8
ENDBRANCH   1   2
BRANCH   1  19
ATOM     17  O   UNL     1      46.467   3.498  13.907  0.00  0.00    +0.000 OA
ATOM     18  C   UNL     1      46.457   4.714  14.084  0.00  0.00    +0.000 C 
ATOM     19  N   UNL     1      45.420   5.506  13.664  0.00  0.00    +0.000 N 
ATOM     20  H   UNL     1      45.544   6.512  13.650  0.00  0.00    +0.000 HD
BRANCH  18  21
ATOM     21  C   UNL     1      47.545   5.396  14.798  0.00  0.00    +0.000 A 
ATOM     22  C   UNL     1      48.270   6.401  14.172  0.00  0.00    +0.000 A 
ATOM     23  S   UNL     1      49.510   7.057  15.145  0.00  0.00    +0.000 S 
ATOM     24  C   UNL     1      49.090   6.053  16.453  0.00  0.00    +0.000 A 
ATOM     25  N   UNL     1      49.758   6.127  17.634  0.00  0.00    +0.000 NA
ATOM     26  C   UNL     1      49.313   5.330  18.551  0.00  0.00    +0.000 A 
ATOM     27  N   UNL     1      48.266   4.465  18.392  0.00  0.00    +0.000 N 
ATOM     28  C   UNL     1      47.587   4.330  17.206  0.00  0.00    +0.000 A 
ATOM     29  O   UNL     1      46.687   3.504  17.082  0.00  0.00    +0.000 OA
ATOM     30  C   UNL     1      48.034   5.216  16.147  0.00  0.00    +0.000 A 
ATOM     31  H   UNL     1      47.978   3.853  19.141  0.00  0.00    +0.000 HD
ENDBRANCH  18  21
ENDBRANCH   1  19
TORSDOF 5
ENDMDL
MODEL 7
REMARK VINA RESULT:    -7.008      3.606      4.899
REMARK INTER + INTRA:          -9.923
REMARK INTER:                  -9.162
REMARK INTRA:                  -0.761
REMARK UNBOUND:                -0.867
REMARK  Name = 
REMARK  5 active torsions:
REMARK  status: ('A' for Active; 'I' for Inactive)
REMARK    1  A    between atoms: C_2  and  C_19
REMARK    2  A    between atoms: N_3  and  C_4
REMARK    3  A    between atoms: C_4  and  C_5
REMARK    4  A    between atoms: C_8  and  C_9
REMARK    5  A    between atoms: C_9  and  N_10
REMARK                            x       y       z     vdW  Elec       q    Type
REMARK                         _______ _______ _______ _____ _____    ______ ____
ROOT
ATOM      1  C   UNL     1      47.962   6.546  13.836  0.00  0.00    +0.000 C 
ENDROOT
BRANCH   1   2
ATOM      2  C   UNL     1      46.868   6.009  12.946  0.00  0.00    +0.000 A 
ATOM      3  C   UNL     1      46.165   4.849  13.299  0.00  0.00    +0.000 A 
ATOM      4  C   UNL     1      45.156   4.345  12.470  0.00  0.00    +0.000 A 
ATOM      5  C   UNL     1      44.846   4.974  11.256  0.00  0.00    +0.000 A 
ATOM      6  C   UNL     1      45.556   6.128  10.898  0.00  0.00    +0.000 A 
ATOM      7  C   UNL     1      46.564   6.632  11.730  0.00  0.00    +0.000 A 
BRANCH   5   8
ATOM      8  C   UNL     1      43.773   4.413  10.348  0.00  0.00    +0.000 C 
BRANCH   8   9
ATOM      9  N   UNL     1      44.194   4.474   8.964  0.00  0.00    +0.000 N 
ATOM     10  C   UNL     1      45.123   3.563   8.488  0.00  0.00    +0.000 A 
ATOM     11  C   UNL     1      45.216   2.232   8.907  0.00  0.00    +0.000 A 
ATOM     12  N   UNL     1      46.091   1.327   8.394  0.00  0.00    +0.000 NA
ATOM     13  C   UNL     1      46.871   1.798   7.403  0.00  0.00    +0.000 A 
ATOM     14  C   UNL     1      46.789   3.106   6.964  0.00  0.00    +0.000 A 
ATOM     15  N   UNL     1      45.929   4.007   7.501  0.00  0.00    +0.000 NA
ATOM     16  H   UNL     1      44.443   5.397   8.617  0.00  0.00    +0.000 HD
ENDBRANCH   8   9
ENDBRANCH   5   8
ENDBRANCH   1   2
BRANCH   1  19
ATOM     17  O   UNL     1      49.032   9.063  13.224  0.00  0.00    +0.000 OA
ATOM     18  C   UNL     1      49.656   8.059  12.888  0.00  0.00    +0.000 C 
ATOM     19  N   UNL     1      49.165   6.794  13.080  0.00  0.00    +0.000 N 
ATOM     20  H   UNL     1      49.789   6.003  12.976  0.00  0.00    +0.000 HD
BRANCH  18  21
ATOM     21  C   UNL     1      50.960   8.153  12.217  0.00  0.00    +0.000 A 
ATOM     22  C   UNL     1      51.090   7.778  10.887  0.00  0.00    +0.000 A 
ATOM     23  S   UNL     1      52.681   7.927  10.287  0.00  0.00    +0.000 S 
ATOM     24  C   UNL     1      53.242   8.543  11.770  0.00  0.00    +0.000 A 
ATOM     25  N   UNL     1      54.541   8.907  11.931  0.00  0.00    +0.000 NA
ATOM     26  C   UNL     1      54.822   9.388  13.099  0.00  0.00    +0.000 A 
ATOM     27  N   UNL     1      53.923   9.533  14.119  0.00  0.00    +0.000 N 
ATOM     28  C   UNL     1      52.610   9.146  14.014  0.00  0.00    +0.000 A 
ATOM     29  O   UNL     1      51.844   9.240  14.969  0.00  0.00    +0.000 OA
ATOM     30  C   UNL     1      52.236   8.615  12.716  0.00  0.00    +0.000 A 
ATOM     31  H   UNL     1      54.208   9.898  15.016  0.00  0.00    +0.000 HD
ENDBRANCH  18  21
ENDBRANCH   1  19
TORSDOF 5
ENDMDL
MODEL 8
REMARK VINA RESULT:    -6.933      2.429      4.351
REMARK INTER + INTRA:          -9.827
REMARK INTER:                  -9.186
REMARK INTRA:                  -0.641
REMARK UNBOUND:                -0.867
REMARK  Name = 
REMARK  5 active torsions:
REMARK  status: ('A' for Active; 'I' for Inactive)
REMARK    1  A    between atoms: C_2  and  C_19
REMARK    2  A    between atoms: N_3  and  C_4
REMARK    3  A    between atoms: C_4  and  C_5
REMARK    4  A    between atoms: C_8  and  C_9
REMARK    5  A    between atoms: C_9  and  N_10
REMARK                            x       y       z     vdW  Elec       q    Type
REMARK                         _______ _______ _______ _____ _____    ______ ____
ROOT
ATOM      1  C   UNL     1      44.014   4.308  11.982  0.00  0.00    +0.000 C 
ENDROOT
BRANCH   1   2
ATOM      2  C   UNL     1      44.630   4.044  10.629  0.00  0.00    +0.000 A 
ATOM      3  C   UNL     1      44.605   2.759  10.071  0.00  0.00    +0.000 A 
ATOM      4  C   UNL     1      45.183   2.511   8.820  0.00  0.00    +0.000 A 
ATOM      5  C   UNL     1      45.824   3.538   8.112  0.00  0.00    +0.000 A 
ATOM      6  C   UNL     1      45.857   4.821   8.675  0.00  0.00    +0.000 A 
ATOM      7  C   UNL     1      45.276   5.067   9.925  0.00  0.00    +0.000 A 
BRANCH   5   8
ATOM      8  C   UNL     1      46.471   3.262   6.772  0.00  0.00    +0.000 C 
BRANCH   8   9
ATOM      9  N   UNL     1      47.105   1.960   6.772  0.00  0.00    +0.000 N 
ATOM     10  C   UNL     1      47.014   1.152   5.650  0.00  0.00    +0.000 A 
ATOM     11  C   UNL     1      46.999   1.623   4.333  0.00  0.00    +0.000 A 
ATOM     12  N   UNL     1      46.969   0.822   3.235  0.00  0.00    +0.000 NA
ATOM     13  C   UNL     1      46.986  -0.498   3.499  0.00  0.00    +0.000 A 
ATOM     14  C   UNL     1      47.013  -0.986   4.792  0.00  0.00    +0.000 A 
ATOM     15  N   UNL     1      47.017  -0.178   5.882  0.00  0.00    +0.000 NA
ATOM     16  H   UNL     1      46.937   1.386   7.595  0.00  0.00    +0.000 HD
ENDBRANCH   8   9
ENDBRANCH   5   8
ENDBRANCH   1   2
BRANCH   1  19
ATOM     17  O   UNL     1      46.157   3.009  13.237  0.00  0.00    +0.000 OA
ATOM     18  C   UNL     1      46.033   4.222  13.386  0.00  0.00    +0.000 C 
ATOM     19  N   UNL     1      44.970   4.918  12.872  0.00  0.00    +0.000 N 
ATOM     20  H   UNL     1      45.012   5.930  12.845  0.00  0.00    +0.000 HD
BRANCH  18  21
ATOM     21  C   UNL     1      47.002   5.004  14.167  0.00  0.00    +0.000 A 
ATOM     22  C   UNL     1      47.325   4.624  15.463  0.00  0.00    +0.000 A 
ATOM     23  S   UNL     1      48.444   5.666  16.222  0.00  0.00    +0.000 S 
ATOM     24  C   UNL     1      48.572   6.634  14.829  0.00  0.00    +0.000 A 
ATOM     25  N   UNL     1      49.403   7.708  14.797  0.00  0.00    +0.000 NA
ATOM     26  C   UNL     1      49.425   8.335  13.665  0.00  0.00    +0.000 A 
ATOM     27  N   UNL     1      48.688   7.986  12.567  0.00  0.00    +0.000 N 
ATOM     28  C   UNL     1      47.809   6.932  12.565  0.00  0.00    +0.000 A 
ATOM     29  O   UNL     1      47.123   6.682  11.578  0.00  0.00    +0.000 OA
ATOM     30  C   UNL     1      47.758   6.182  13.806  0.00  0.00    +0.000 A 
ATOM     31  H   UNL     1      48.734   8.528  11.716  0.00  0.00    +0.000 HD
ENDBRANCH  18  21
ENDBRANCH   1  19
TORSDOF 5
ENDMDL
MODEL 9
REMARK VINA RESULT:    -6.899      3.736      6.024
REMARK INTER + INTRA:          -9.783
REMARK INTER:                  -8.821
REMARK INTRA:                  -0.962
REMARK UNBOUND:                -0.867
REMARK  Name = 
REMARK  5 active torsions:
REMARK  status: ('A' for Active; 'I' for Inactive)
REMARK    1  A    between atoms: C_2  and  C_19
REMARK    2  A    between atoms: N_3  and  C_4
REMARK    3  A    between atoms: C_4  and  C_5
REMARK    4  A    between atoms: C_8  and  C_9
REMARK    5  A    between atoms: C_9  and  N_10
REMARK                            x       y       z     vdW  Elec       q    Type
REMARK                         _______ _______ _______ _____ _____    ______ ____
ROOT
ATOM      1  C   UNL     1      46.168   4.775  13.401  0.00  0.00    +0.000 C 
ENDROOT
BRANCH   1   2
ATOM      2  C   UNL     1      45.749   6.094  12.800  0.00  0.00    +0.000 A 
ATOM      3  C   UNL     1      46.544   7.237  12.961  0.00  0.00    +0.000 A 
ATOM      4  C   UNL     1      46.152   8.463  12.410  0.00  0.00    +0.000 A 
ATOM      5  C   UNL     1      44.943   8.581  11.711  0.00  0.00    +0.000 A 
ATOM      6  C   UNL     1      44.143   7.440  11.560  0.00  0.00    +0.000 A 
ATOM      7  C   UNL     1      44.537   6.213  12.109  0.00  0.00    +0.000 A 
BRANCH   5   8
ATOM      8  C   UNL     1      44.508   9.913  11.141  0.00  0.00    +0.000 C 
BRANCH   8   9
ATOM      9  N   UNL     1      43.595  10.580  12.046  0.00  0.00    +0.000 N 
ATOM     10  C   UNL     1      42.340  10.960  11.599  0.00  0.00    +0.000 A 
ATOM     11  C   UNL     1      41.578  10.244  10.671  0.00  0.00    +0.000 A 
ATOM     12  N   UNL     1      40.322  10.592  10.281  0.00  0.00    +0.000 NA
ATOM     13  C   UNL     1      39.828  11.689  10.885  0.00  0.00    +0.000 A 
ATOM     14  C   UNL     1      40.559  12.406  11.813  0.00  0.00    +0.000 A 
ATOM     15  N   UNL     1      41.821  12.065  12.177  0.00  0.00    +0.000 NA
ATOM     16  H   UNL     1      43.989  11.347  12.586  0.00  0.00    +0.000 HD
ENDBRANCH   8   9
ENDBRANCH   5   8
ENDBRANCH   1   2
BRANCH   1  19
ATOM     17  O   UNL     1      47.656   2.904  14.865  0.00  0.00    +0.000 OA
ATOM     18  C   UNL     1      47.461   4.015  15.352  0.00  0.00    +0.000 C 
ATOM     19  N   UNL     1      46.679   4.957  14.737  0.00  0.00    +0.000 N 
ATOM     20  H   UNL     1      46.709   5.914  15.069  0.00  0.00    +0.000 HD
BRANCH  18  21
ATOM     21  C   UNL     1      48.024   4.392  16.657  0.00  0.00    +0.000 A 
ATOM     22  C   UNL     1      47.728   3.644  17.789  0.00  0.00    +0.000 A 
ATOM     23  S   UNL     1      48.447   4.249  19.214  0.00  0.00    +0.000 S 
ATOM     24  C   UNL     1      49.217   5.503  18.360  0.00  0.00    +0.000 A 
ATOM     25  N   UNL     1      50.026   6.390  18.997  0.00  0.00    +0.000 NA
ATOM     26  C   UNL     1      50.571   7.270  18.221  0.00  0.00    +0.000 A 
ATOM     27  N   UNL     1      50.375   7.346  16.870  0.00  0.00    +0.000 N 
ATOM     28  C   UNL     1      49.539   6.496  16.190  0.00  0.00    +0.000 A 
ATOM     29  O   UNL     1      49.344   6.628  14.985  0.00  0.00    +0.000 OA
ATOM     30  C   UNL     1      48.914   5.474  17.011  0.00  0.00    +0.000 A 
ATOM     31  H   UNL     1      50.814   8.071  16.320  0.00  0.00    +0.000 HD
ENDBRANCH  18  21
ENDBRANCH   1  19
TORSDOF 5
ENDMDL
