MODEL 1
REMARK VINA RESULT:    -8.245      0.000      0.000
REMARK INTER + INTRA:         -13.092
REMARK INTER:                 -11.860
REMARK INTRA:                  -1.233
REMARK UNBOUND:                -1.233
REMARK  Name = 
REMARK  8 active torsions:
REMARK  status: ('A' for Active; 'I' for Inactive)
REMARK    1  A    between atoms: N_1  and  C_2
REMARK    2  A    between atoms: C_2  and  C_3
REMARK    3  A    between atoms: C_2  and  C_18
REMARK    4  A    between atoms: C_3  and  C_4
REMARK    5  A    between atoms: C_7  and  C_8
REMARK    6  A    between atoms: C_8  and  N_9
REMARK    7  A    between atoms: N_9  and  C_10
REMARK    8  A    between atoms: C_18  and  C_20
REMARK                            x       y       z     vdW  Elec       q    Type
REMARK                         _______ _______ _______ _____ _____    ______ ____
ROOT
ATOM      1  C   UNL     1      45.064   3.522  11.426  0.00  0.00    +0.000 C 
ENDROOT
BRANCH   1   2
ATOM      2  N   UNL     1      44.528   2.766  12.588  0.00  0.00    +0.000 NA
ATOM      3  H   UNL     1      43.558   2.519  12.410  0.00  0.00    +0.000 HD
ATOM      4  H   UNL     1      44.520   3.409  13.388  0.00  0.00    +0.000 HD
ENDBRANCH   1   2
BRANCH   1   5
ATOM      5  C   UNL     1      45.043   5.030  11.720  0.00  0.00    +0.000 C 
ATOM      6  O   UNL     1      43.976   5.647  11.611  0.00  0.00    +0.000 OA
BRANCH   5   7
ATOM      7  C   UNL     1      46.256   5.764  12.145  0.00  0.00    +0.000 A 
ATOM      8  C   UNL     1      46.784   6.718  11.281  0.00  0.00    +0.000 A 
ATOM      9  S   UNL     1      48.096   7.588  11.924  0.00  0.00    +0.000 S 
ATOM     10  C   UNL     1      48.011   6.727  13.387  0.00  0.00    +0.000 A 
ATOM     11  N   UNL     1      48.833   7.050  14.421  0.00  0.00    +0.000 NA
ATOM     12  C   UNL     1      48.641   6.359  15.493  0.00  0.00    +0.000 A 
ATOM     13  N   UNL     1      47.730   5.345  15.611  0.00  0.00    +0.000 N 
ATOM     14  C   UNL     1      47.002   4.881  14.542  0.00  0.00    +0.000 A 
ATOM     15  O   UNL     1      46.431   3.800  14.613  0.00  0.00    +0.000 OA
ATOM     16  C   UNL     1      47.050   5.727  13.358  0.00  0.00    +0.000 A 
ATOM     17  H   UNL     1      47.697   4.779  16.445  0.00  0.00    +0.000 HD
ENDBRANCH   5   7
ENDBRANCH   1   5
BRANCH   1  18
ATOM     18  C   UNL     1      44.329   3.228  10.101  0.00  0.00    +0.000 C 
BRANCH  18  19
ATOM     19  C   UNL     1      45.197   2.893   8.911  0.00  0.00    +0.000 A 
ATOM     20  C   UNL     1      45.518   3.874   7.961  0.00  0.00    +0.000 A 
ATOM     21  C   UNL     1      46.336   3.567   6.873  0.00  0.00    +0.000 A 
ATOM     22  C   UNL     1      46.849   2.274   6.713  0.00  0.00    +0.000 A 
ATOM     23  C   UNL     1      46.523   1.294   7.658  0.00  0.00    +0.000 A 
ATOM     24  C   UNL     1      45.705   1.601   8.745  0.00  0.00    +0.000 A 
BRANCH  22  25
ATOM     25  C   UNL     1      47.720   1.929   5.531  0.00  0.00    +0.000 C 
BRANCH  25  26
ATOM     26  N   UNL     1      47.608   0.515   5.168  0.00  0.00    +0.000 NA
ATOM     27  H   UNL     1      46.991   0.051   5.835  0.00  0.00    +0.000 HD
BRANCH  26  28
ATOM     28  C   UNL     1      47.113   0.321   3.798  0.00  0.00    +0.000 C 
ATOM     29  C   UNL     1      45.913   1.217   3.460  0.00  0.00    +0.000 C 
ATOM     30  C   UNL     1      45.343   0.862   2.095  0.00  0.00    +0.000 C 
ATOM     31  O   UNL     1      44.991  -0.517   2.035  0.00  0.00    +0.000 OA
ATOM     32  C   UNL     1      46.122  -1.366   2.226  0.00  0.00    +0.000 C 
ATOM     33  C   UNL     1      46.726  -1.153   3.608  0.00  0.00    +0.000 C 
ENDBRANCH  26  28
ENDBRANCH  25  26
ENDBRANCH  22  25
ENDBRANCH  18  19
ENDBRANCH   1  18
TORSDOF 8
ENDMDL
MODEL 2
REMARK VINA RESULT:    -7.945      3.241      5.220
REMARK INTER + INTRA:         -12.661
REMARK INTER:                 -11.591
REMARK INTRA:                  -1.070
REMARK UNBOUND:                -1.233
REMARK  Name = 
REMARK  8 active torsions:
REMARK  status: ('A' for Active; 'I' for Inactive)
REMARK    1  A    between atoms: N_1  and  C_2
REMARK    2  A    between atoms: C_2  and  C_3
REMARK    3  A    between atoms: C_2  and  C_18
REMARK    4  A    between atoms: C_3  and  C_4
REMARK    5  A    between atoms: C_7  and  C_8
REMARK    6  A    between atoms: C_8  and  N_9
REMARK    7  A    between atoms: N_9  and  C_10
REMARK    8  A    between atoms: C_18  and  C_20
REMARK                            x       y       z     vdW  Elec       q    Type
REMARK                         _______ _______ _______ _____ _____    ______ ____
ROOT
ATOM      1  C   UNL     1      47.280   4.188  14.796  0.00  0.00    +0.000 C 
ENDROOT
BRANCH   1   2
ATOM      2  N   UNL     1      47.590   2.840  14.253  0.00  0.00    +0.000 NA
ATOM      3  H   UNL     1      48.478   2.873  13.757  0.00  0.00    +0.000 HD
ATOM      4  H   UNL     1      46.874   2.626  13.550  0.00  0.00    +0.000 HD
ENDBRANCH   1   2
BRANCH   1   5
ATOM      5  C   UNL     1      47.424   4.189  16.325  0.00  0.00    +0.000 C 
ATOM      6  O   UNL     1      46.440   3.907  17.020  0.00  0.00    +0.000 OA
BRANCH   5   7
ATOM      7  C   UNL     1      48.708   4.502  16.993  0.00  0.00    +0.000 A 
ATOM      8  C   UNL     1      48.887   5.783  17.506  0.00  0.00    +0.000 A 
ATOM      9  S   UNL     1      50.342   5.991  18.362  0.00  0.00    +0.000 S 
ATOM     10  C   UNL     1      50.791   4.375  18.085  0.00  0.00    +0.000 A 
ATOM     11  N   UNL     1      51.931   3.876  18.635  0.00  0.00    +0.000 NA
ATOM     12  C   UNL     1      52.139   2.626  18.394  0.00  0.00    +0.000 A 
ATOM     13  N   UNL     1      51.332   1.841  17.616  0.00  0.00    +0.000 N 
ATOM     14  C   UNL     1      50.268   2.349  16.910  0.00  0.00    +0.000 A 
ATOM     15  O   UNL     1      49.763   1.692  16.008  0.00  0.00    +0.000 OA
ATOM     16  C   UNL     1      49.886   3.705  17.275  0.00  0.00    +0.000 A 
ATOM     17  H   UNL     1      51.604   0.897  17.386  0.00  0.00    +0.000 HD
ENDBRANCH   5   7
ENDBRANCH   1   5
BRANCH   1  18
ATOM     18  C   UNL     1      45.886   4.714  14.392  0.00  0.00    +0.000 C 
BRANCH  18  19
ATOM     19  C   UNL     1      45.512   4.575  12.935  0.00  0.00    +0.000 A 
ATOM     20  C   UNL     1      44.730   3.495  12.497  0.00  0.00    +0.000 A 
ATOM     21  C   UNL     1      44.369   3.379  11.154  0.00  0.00    +0.000 A 
ATOM     22  C   UNL     1      44.783   4.339  10.222  0.00  0.00    +0.000 A 
ATOM     23  C   UNL     1      45.568   5.413  10.659  0.00  0.00    +0.000 A 
ATOM     24  C   UNL     1      45.929   5.528  12.001  0.00  0.00    +0.000 A 
BRANCH  22  25
ATOM     25  C   UNL     1      44.412   4.213   8.766  0.00  0.00    +0.000 C 
BRANCH  25  26
ATOM     26  N   UNL     1      45.581   4.342   7.894  0.00  0.00    +0.000 NA
ATOM     27  H   UNL     1      46.375   4.661   8.451  0.00  0.00    +0.000 HD
BRANCH  26  28
ATOM     28  C   UNL     1      45.915   3.087   7.206  0.00  0.00    +0.000 C 
ATOM     29  C   UNL     1      46.505   2.026   8.145  0.00  0.00    +0.000 C 
ATOM     30  C   UNL     1      46.979   0.814   7.358  0.00  0.00    +0.000 C 
ATOM     31  O   UNL     1      47.916   1.195   6.355  0.00  0.00    +0.000 OA
ATOM     32  C   UNL     1      47.344   2.089   5.401  0.00  0.00    +0.000 C 
ATOM     33  C   UNL     1      46.908   3.384   6.073  0.00  0.00    +0.000 C 
ENDBRANCH  26  28
ENDBRANCH  25  26
ENDBRANCH  22  25
ENDBRANCH  18  19
ENDBRANCH   1  18
TORSDOF 8
ENDMDL
MODEL 3
REMARK VINA RESULT:    -7.688      3.120      4.952
REMARK INTER + INTRA:         -12.292
REMARK INTER:                 -11.080
REMARK INTRA:                  -1.212
REMARK UNBOUND:                -1.233
REMARK  Name = 
REMARK  8 active torsions:
REMARK  status: ('A' for Active; 'I' for Inactive)
REMARK    1  A    between atoms: N_1  and  C_2
REMARK    2  A    between atoms: C_2  and  C_3
REMARK    3  A    between atoms: C_2  and  C_18
REMARK    4  A    between atoms: C_3  and  C_4
REMARK    5  A    between atoms: C_7  and  C_8
REMARK    6  A    between atoms: C_8  and  N_9
REMARK    7  A    between atoms: N_9  and  C_10
REMARK    8  A    between atoms: C_18  and  C_20
REMARK                            x       y       z     vdW  Elec       q    Type
REMARK                         _______ _______ _______ _____ _____    ______ ____
ROOT
ATOM      1  C   UNL     1      47.550   7.984  13.318  0.00  0.00    +0.000 C 
ENDROOT
BRANCH   1   2
ATOM      2  N   UNL     1      48.154   8.517  12.068  0.00  0.00    +0.000 NA
ATOM      3  H   UNL     1      49.008   9.019  12.296  0.00  0.00    +0.000 HD
ATOM      4  H   UNL     1      47.501   9.213  11.691  0.00  0.00    +0.000 HD
ENDBRANCH   1   2
BRANCH   1   5
ATOM      5  C   UNL     1      48.300   6.723  13.771  0.00  0.00    +0.000 C 
ATOM      6  O   UNL     1      48.766   5.961  12.914  0.00  0.00    +0.000 OA
BRANCH   5   7
ATOM      7  C   UNL     1      48.498   6.398  15.202  0.00  0.00    +0.000 A 
ATOM      8  C   UNL     1      49.163   7.323  16.001  0.00  0.00    +0.000 A 
ATOM      9  S   UNL     1      49.219   6.906  17.648  0.00  0.00    +0.000 S 
ATOM     10  C   UNL     1      48.351   5.473  17.364  0.00  0.00    +0.000 A 
ATOM     11  N   UNL     1      47.989   4.673  18.402  0.00  0.00    +0.000 NA
ATOM     12  C   UNL     1      47.293   3.641  18.065  0.00  0.00    +0.000 A 
ATOM     13  N   UNL     1      46.963   3.313  16.778  0.00  0.00    +0.000 N 
ATOM     14  C   UNL     1      47.452   4.002  15.694  0.00  0.00    +0.000 A 
ATOM     15  O   UNL     1      47.382   3.510  14.575  0.00  0.00    +0.000 OA
ATOM     16  C   UNL     1      48.096   5.267  16.016  0.00  0.00    +0.000 A 
ATOM     17  H   UNL     1      46.502   2.440  16.574  0.00  0.00    +0.000 HD
ENDBRANCH   5   7
ENDBRANCH   1   5
BRANCH   1  18
ATOM     18  C   UNL     1      46.039   7.692  13.201  0.00  0.00    +0.000 C 
BRANCH  18  19
ATOM     19  C   UNL     1      45.646   6.528  12.322  0.00  0.00    +0.000 A 
ATOM     20  C   UNL     1      44.991   5.412  12.864  0.00  0.00    +0.000 A 
ATOM     21  C   UNL     1      44.611   4.347  12.046  0.00  0.00    +0.000 A 
ATOM     22  C   UNL     1      44.877   4.376  10.672  0.00  0.00    +0.000 A 
ATOM     23  C   UNL     1      45.537   5.489  10.133  0.00  0.00    +0.000 A 
ATOM     24  C   UNL     1      45.917   6.552  10.951  0.00  0.00    +0.000 A 
BRANCH  22  25
ATOM     25  C   UNL     1      44.486   3.223   9.783  0.00  0.00    +0.000 C 
BRANCH  25  26
ATOM     26  N   UNL     1      44.501   3.597   8.368  0.00  0.00    +0.000 NA
ATOM     27  H   UNL     1      44.777   4.576   8.288  0.00  0.00    +0.000 HD
BRANCH  26  28
ATOM     28  C   UNL     1      45.398   2.750   7.568  0.00  0.00    +0.000 C 
ATOM     29  C   UNL     1      45.904   1.520   8.334  0.00  0.00    +0.000 C 
ATOM     30  C   UNL     1      46.948   0.770   7.521  0.00  0.00    +0.000 C 
ATOM     31  O   UNL     1      48.024   1.632   7.160  0.00  0.00    +0.000 OA
ATOM     32  C   UNL     1      47.588   2.717   6.343  0.00  0.00    +0.000 C 
ATOM     33  C   UNL     1      46.593   3.591   7.096  0.00  0.00    +0.000 C 
ENDBRANCH  26  28
ENDBRANCH  25  26
ENDBRANCH  22  25
ENDBRANCH  18  19
ENDBRANCH   1  18
TORSDOF 8
ENDMDL
MODEL 4
REMARK VINA RESULT:    -7.529      3.716      6.258
REMARK INTER + INTRA:         -12.062
REMARK INTER:                 -11.739
REMARK INTRA:                  -0.324
REMARK UNBOUND:                -1.233
REMARK  Name = 
REMARK  8 active torsions:
REMARK  status: ('A' for Active; 'I' for Inactive)
REMARK    1  A    between atoms: N_1  and  C_2
REMARK    2  A    between atoms: C_2  and  C_3
REMARK    3  A    between atoms: C_2  and  C_18
REMARK    4  A    between atoms: C_3  and  C_4
REMARK    5  A    between atoms: C_7  and  C_8
REMARK    6  A    between atoms: C_8  and  N_9
REMARK    7  A    between atoms: N_9  and  C_10
REMARK    8  A    between atoms: C_18  and  C_20
REMARK                            x       y       z     vdW  Elec       q    Type
REMARK                         _______ _______ _______ _____ _____    ______ ____
ROOT
ATOM      1  C   UNL     1      47.855   4.279  16.145  0.00  0.00    +0.000 C 
ENDROOT
BRANCH   1   2
ATOM      2  N   UNL     1      46.577   3.719  16.657  0.00  0.00    +0.000 NA
ATOM      3  H   UNL     1      45.836   3.906  15.987  0.00  0.00    +0.000 HD
ATOM      4  H   UNL     1      46.338   4.243  17.506  0.00  0.00    +0.000 HD
ENDBRANCH   1   2
BRANCH   1   5
ATOM      5  C   UNL     1      48.677   4.867  17.302  0.00  0.00    +0.000 C 
ATOM      6  O   UNL     1      48.130   5.649  18.089  0.00  0.00    +0.000 OA
BRANCH   5   7
ATOM      7  C   UNL     1      50.098   4.513  17.515  0.00  0.00    +0.000 A 
ATOM      8  C   UNL     1      50.967   5.512  17.943  0.00  0.00    +0.000 A 
ATOM      9  S   UNL     1      52.543   4.966  18.278  0.00  0.00    +0.000 S 
ATOM     10  C   UNL     1      52.127   3.369  17.868  0.00  0.00    +0.000 A 
ATOM     11  N   UNL     1      53.033   2.366  18.016  0.00  0.00    +0.000 NA
ATOM     12  C   UNL     1      52.586   1.193  17.719  0.00  0.00    +0.000 A 
ATOM     13  N   UNL     1      51.327   0.939  17.245  0.00  0.00    +0.000 N 
ATOM     14  C   UNL     1      50.444   1.942  16.925  0.00  0.00    +0.000 A 
ATOM     15  O   UNL     1      49.462   1.695  16.237  0.00  0.00    +0.000 OA
ATOM     16  C   UNL     1      50.827   3.265  17.397  0.00  0.00    +0.000 A 
ATOM     17  H   UNL     1      51.072   0.012  16.938  0.00  0.00    +0.000 HD
ENDBRANCH   5   7
ENDBRANCH   1   5
BRANCH   1  18
ATOM     18  C   UNL     1      47.670   5.334  15.034  0.00  0.00    +0.000 C 
BRANCH  18  19
ATOM     19  C   UNL     1      46.743   4.961  13.901  0.00  0.00    +0.000 A 
ATOM     20  C   UNL     1      45.994   5.943  13.235  0.00  0.00    +0.000 A 
ATOM     21  C   UNL     1      45.154   5.598  12.176  0.00  0.00    +0.000 A 
ATOM     22  C   UNL     1      45.046   4.265  11.760  0.00  0.00    +0.000 A 
ATOM     23  C   UNL     1      45.789   3.285  12.429  0.00  0.00    +0.000 A 
ATOM     24  C   UNL     1      46.628   3.630  13.488  0.00  0.00    +0.000 A 
BRANCH  22  25
ATOM     25  C   UNL     1      44.128   3.881  10.628  0.00  0.00    +0.000 C 
BRANCH  25  26
ATOM     26  N   UNL     1      44.531   4.503   9.366  0.00  0.00    +0.000 NA
ATOM     27  H   UNL     1      45.224   5.226   9.560  0.00  0.00    +0.000 HD
BRANCH  26  28
ATOM     28  C   UNL     1      45.069   3.531   8.403  0.00  0.00    +0.000 C 
ATOM     29  C   UNL     1      45.436   2.187   9.047  0.00  0.00    +0.000 C 
ATOM     30  C   UNL     1      46.134   1.281   8.043  0.00  0.00    +0.000 C 
ATOM     31  O   UNL     1      47.281   1.922   7.493  0.00  0.00    +0.000 OA
ATOM     32  C   UNL     1      46.940   3.112   6.784  0.00  0.00    +0.000 C 
ATOM     33  C   UNL     1      46.306   4.133   7.721  0.00  0.00    +0.000 C 
ENDBRANCH  26  28
ENDBRANCH  25  26
ENDBRANCH  22  25
ENDBRANCH  18  19
ENDBRANCH   1  18
TORSDOF 8
ENDMDL
MODEL 5
REMARK VINA RESULT:    -7.158      3.310      5.550
REMARK INTER + INTRA:         -11.530
REMARK INTER:                 -10.804
REMARK INTRA:                  -0.726
REMARK UNBOUND:                -1.233
REMARK  Name = 
REMARK  8 active torsions:
REMARK  status: ('A' for Active; 'I' for Inactive)
REMARK    1  A    between atoms: N_1  and  C_2
REMARK    2  A    between atoms: C_2  and  C_3
REMARK    3  A    between atoms: C_2  and  C_18
REMARK    4  A    between atoms: C_3  and  C_4
REMARK    5  A    between atoms: C_7  and  C_8
REMARK    6  A    between atoms: C_8  and  N_9
REMARK    7  A    between atoms: N_9  and  C_10
REMARK    8  A    between atoms: C_18  and  C_20
REMARK                            x       y       z     vdW  Elec       q    Type
REMARK                         _______ _______ _______ _____ _____    ______ ____
ROOT
ATOM      1  C   UNL     1      48.405   6.952  14.025  0.00  0.00    +0.000 C 
ENDROOT
BRANCH   1   2
ATOM      2  N   UNL     1      49.108   6.258  12.914  0.00  0.00    +0.000 NA
ATOM      3  H   UNL     1      49.932   5.788  13.280  0.00  0.00    +0.000 HD
ATOM      4  H   UNL     1      49.449   6.984  12.274  0.00  0.00    +0.000 HD
ENDBRANCH   1   2
BRANCH   1   5
ATOM      5  C   UNL     1      48.417   6.077  15.288  0.00  0.00    +0.000 C 
ATOM      6  O   UNL     1      47.946   4.934  15.230  0.00  0.00    +0.000 OA
BRANCH   5   7
ATOM      7  C   UNL     1      48.990   6.553  16.567  0.00  0.00    +0.000 A 
ATOM      8  C   UNL     1      48.876   7.905  16.876  0.00  0.00    +0.000 A 
ATOM      9  S   UNL     1      49.453   8.316  18.422  0.00  0.00    +0.000 S 
ATOM     10  C   UNL     1      49.875   6.701  18.745  0.00  0.00    +0.000 A 
ATOM     11  N   UNL     1      50.363   6.351  19.966  0.00  0.00    +0.000 NA
ATOM     12  C   UNL     1      50.600   5.091  20.106  0.00  0.00    +0.000 A 
ATOM     13  N   UNL     1      50.434   4.155  19.121  0.00  0.00    +0.000 N 
ATOM     14  C   UNL     1      50.105   4.494  17.830  0.00  0.00    +0.000 A 
ATOM     15  O   UNL     1      50.257   3.682  16.927  0.00  0.00    +0.000 OA
ATOM     16  C   UNL     1      49.661   5.870  17.656  0.00  0.00    +0.000 A 
ATOM     17  H   UNL     1      50.732   3.202  19.264  0.00  0.00    +0.000 HD
ENDBRANCH   5   7
ENDBRANCH   1   5
BRANCH   1  18
ATOM     18  C   UNL     1      46.959   7.369  13.680  0.00  0.00    +0.000 C 
BRANCH  18  19
ATOM     19  C   UNL     1      46.207   6.465  12.732  0.00  0.00    +0.000 A 
ATOM     20  C   UNL     1      46.333   6.621  11.343  0.00  0.00    +0.000 A 
ATOM     21  C   UNL     1      45.653   5.772  10.470  0.00  0.00    +0.000 A 
ATOM     22  C   UNL     1      44.833   4.751  10.966  0.00  0.00    +0.000 A 
ATOM     23  C   UNL     1      44.704   4.600  12.352  0.00  0.00    +0.000 A 
ATOM     24  C   UNL     1      45.383   5.449  13.225  0.00  0.00    +0.000 A 
BRANCH  22  25
ATOM     25  C   UNL     1      44.081   3.839  10.030  0.00  0.00    +0.000 C 
BRANCH  25  26
ATOM     26  N   UNL     1      44.280   4.214   8.629  0.00  0.00    +0.000 NA
ATOM     27  H   UNL     1      44.760   5.114   8.592  0.00  0.00    +0.000 HD
BRANCH  26  28
ATOM     28  C   UNL     1      45.038   3.204   7.876  0.00  0.00    +0.000 C 
ATOM     29  C   UNL     1      45.448   1.998   8.732  0.00  0.00    +0.000 C 
ATOM     30  C   UNL     1      46.362   1.067   7.950  0.00  0.00    +0.000 C 
ATOM     31  O   UNL     1      47.503   1.767   7.463  0.00  0.00    +0.000 OA
ATOM     32  C   UNL     1      47.144   2.817   6.566  0.00  0.00    +0.000 C 
ATOM     33  C   UNL     1      46.290   3.861   7.275  0.00  0.00    +0.000 C 
ENDBRANCH  26  28
ENDBRANCH  25  26
ENDBRANCH  22  25
ENDBRANCH  18  19
ENDBRANCH   1  18
TORSDOF 8
ENDMDL
MODEL 6
REMARK VINA RESULT:    -7.085      2.305      3.186
REMARK INTER + INTRA:         -11.425
REMARK INTER:                 -10.375
REMARK INTRA:                  -1.050
REMARK UNBOUND:                -1.233
REMARK  Name = 
REMARK  8 active torsions:
REMARK  status: ('A' for Active; 'I' for Inactive)
REMARK    1  A    between atoms: N_1  and  C_2
REMARK    2  A    between atoms: C_2  and  C_3
REMARK    3  A    between atoms: C_2  and  C_18
REMARK    4  A    between atoms: C_3  and  C_4
REMARK    5  A    between atoms: C_7  and  C_8
REMARK    6  A    between atoms: C_8  and  N_9
REMARK    7  A    between atoms: N_9  and  C_10
REMARK    8  A    between atoms: C_18  and  C_20
REMARK                            x       y       z     vdW  Elec       q    Type
REMARK                         _______ _______ _______ _____ _____    ______ ____
ROOT
ATOM      1  C   UNL     1      44.394   3.088   9.333  0.00  0.00    +0.000 C 
ENDROOT
BRANCH   1   2
ATOM      2  N   UNL     1      43.909   4.343   8.701  0.00  0.00    +0.000 NA
ATOM      3  H   UNL     1      44.671   4.775   8.185  0.00  0.00    +0.000 HD
ATOM      4  H   UNL     1      43.672   4.991   9.461  0.00  0.00    +0.000 HD
ENDBRANCH   1   2
BRANCH   1   5
ATOM      5  C   UNL     1      44.070   3.092  10.835  0.00  0.00    +0.000 C 
ATOM      6  O   UNL     1      43.199   2.324  11.262  0.00  0.00    +0.000 OA
BRANCH   5   7
ATOM      7  C   UNL     1      44.778   3.975  11.789  0.00  0.00    +0.000 A 
ATOM      8  C   UNL     1      45.714   3.402  12.644  0.00  0.00    +0.000 A 
ATOM      9  S   UNL     1      46.557   4.525  13.604  0.00  0.00    +0.000 S 
ATOM     10  C   UNL     1      45.708   5.825  12.912  0.00  0.00    +0.000 A 
ATOM     11  N   UNL     1      46.019   7.105  13.252  0.00  0.00    +0.000 NA
ATOM     12  C   UNL     1      45.340   8.004  12.625  0.00  0.00    +0.000 A 
ATOM     13  N   UNL     1      44.348   7.739  11.720  0.00  0.00    +0.000 N 
ATOM     14  C   UNL     1      43.894   6.465  11.477  0.00  0.00    +0.000 A 
ATOM     15  O   UNL     1      42.827   6.296  10.900  0.00  0.00    +0.000 OA
ATOM     16  C   UNL     1      44.731   5.405  12.022  0.00  0.00    +0.000 A 
ATOM     17  H   UNL     1      43.789   8.487  11.339  0.00  0.00    +0.000 HD
ENDBRANCH   5   7
ENDBRANCH   1   5
BRANCH   1  18
ATOM     18  C   UNL     1      45.898   2.823   9.114  0.00  0.00    +0.000 C 
BRANCH  18  19
ATOM     19  C   UNL     1      46.297   2.300   7.754  0.00  0.00    +0.000 A 
ATOM     20  C   UNL     1      46.318   3.151   6.638  0.00  0.00    +0.000 A 
ATOM     21  C   UNL     1      46.705   2.670   5.387  0.00  0.00    +0.000 A 
ATOM     22  C   UNL     1      47.079   1.330   5.225  0.00  0.00    +0.000 A 
ATOM     23  C   UNL     1      47.052   0.480   6.339  0.00  0.00    +0.000 A 
ATOM     24  C   UNL     1      46.664   0.961   7.589  0.00  0.00    +0.000 A 
BRANCH  22  25
ATOM     25  C   UNL     1      47.483   0.797   3.874  0.00  0.00    +0.000 C 
BRANCH  25  26
ATOM     26  N   UNL     1      46.327   0.338   3.103  0.00  0.00    +0.000 NA
ATOM     27  H   UNL     1      46.055   1.070   2.446  0.00  0.00    +0.000 HD
BRANCH  26  28
ATOM     28  C   UNL     1      46.589  -0.917   2.382  0.00  0.00    +0.000 C 
ATOM     29  C   UNL     1      45.549  -2.007   2.675  0.00  0.00    +0.000 C 
ATOM     30  C   UNL     1      45.956  -3.326   2.035  0.00  0.00    +0.000 C 
ATOM     31  O   UNL     1      47.254  -3.720   2.468  0.00  0.00    +0.000 OA
ATOM     32  C   UNL     1      48.253  -2.773   2.094  0.00  0.00    +0.000 C 
ATOM     33  C   UNL     1      47.990  -1.426   2.755  0.00  0.00    +0.000 C 
ENDBRANCH  26  28
ENDBRANCH  25  26
ENDBRANCH  22  25
ENDBRANCH  18  19
ENDBRANCH   1  18
TORSDOF 8
ENDMDL
MODEL 7
REMARK VINA RESULT:    -7.010      4.321      9.897
REMARK INTER + INTRA:         -11.316
REMARK INTER:                 -10.329
REMARK INTRA:                  -0.987
REMARK UNBOUND:                -1.233
REMARK  Name = 
REMARK  8 active torsions:
REMARK  status: ('A' for Active; 'I' for Inactive)
REMARK    1  A    between atoms: N_1  and  C_2
REMARK    2  A    between atoms: C_2  and  C_3
REMARK    3  A    between atoms: C_2  and  C_18
REMARK    4  A    between atoms: C_3  and  C_4
REMARK    5  A    between atoms: C_7  and  C_8
REMARK    6  A    between atoms: C_8  and  N_9
REMARK    7  A    between atoms: N_9  and  C_10
REMARK    8  A    between atoms: C_18  and  C_20
REMARK                            x       y       z     vdW  Elec       q    Type
REMARK                         _______ _______ _______ _____ _____    ______ ____
ROOT
ATOM      1  C   UNL     1      46.405   7.916  12.242  0.00  0.00    +0.000 C 
ENDROOT
BRANCH   1   2
ATOM      2  N   UNL     1      46.159   8.596  13.541  0.00  0.00    +0.000 NA
ATOM      3  H   UNL     1      45.376   9.237  13.441  0.00  0.00    +0.000 HD
ATOM      4  H   UNL     1      46.982   9.175  13.739  0.00  0.00    +0.000 HD
ENDBRANCH   1   2
BRANCH   1   5
ATOM      5  C   UNL     1      45.079   7.434  11.637  0.00  0.00    +0.000 C 
ATOM      6  O   UNL     1      44.324   8.261  11.110  0.00  0.00    +0.000 OA
BRANCH   5   7
ATOM      7  C   UNL     1      44.682   6.008  11.650  0.00  0.00    +0.000 A 
ATOM      8  C   UNL     1      44.038   5.515  12.781  0.00  0.00    +0.000 A 
ATOM      9  S   UNL     1      43.515   3.903  12.636  0.00  0.00    +0.000 S 
ATOM     10  C   UNL     1      44.122   3.799  11.052  0.00  0.00    +0.000 A 
ATOM     11  N   UNL     1      43.926   2.673  10.315  0.00  0.00    +0.000 NA
ATOM     12  C   UNL     1      44.390   2.732   9.113  0.00  0.00    +0.000 A 
ATOM     13  N   UNL     1      45.072   3.799   8.596  0.00  0.00    +0.000 N 
ATOM     14  C   UNL     1      45.435   4.883   9.360  0.00  0.00    +0.000 A 
ATOM     15  O   UNL     1      46.285   5.663   8.950  0.00  0.00    +0.000 OA
ATOM     16  C   UNL     1      44.795   4.949  10.666  0.00  0.00    +0.000 A 
ATOM     17  H   UNL     1      45.495   3.744   7.682  0.00  0.00    +0.000 HD
ENDBRANCH   5   7
ENDBRANCH   1   5
BRANCH   1  18
ATOM     18  C   UNL     1      47.405   6.744  12.336  0.00  0.00    +0.000 C 
BRANCH  18  19
ATOM     19  C   UNL     1      47.728   6.246  13.725  0.00  0.00    +0.000 A 
ATOM     20  C   UNL     1      48.609   6.958  14.554  0.00  0.00    +0.000 A 
ATOM     21  C   UNL     1      48.891   6.506  15.843  0.00  0.00    +0.000 A 
ATOM     22  C   UNL     1      48.299   5.335  16.331  0.00  0.00    +0.000 A 
ATOM     23  C   UNL     1      47.425   4.621  15.500  0.00  0.00    +0.000 A 
ATOM     24  C   UNL     1      47.144   5.073  14.211  0.00  0.00    +0.000 A 
BRANCH  22  25
ATOM     25  C   UNL     1      48.610   4.829  17.717  0.00  0.00    +0.000 C 
BRANCH  25  26
ATOM     26  N   UNL     1      50.009   5.062  18.079  0.00  0.00    +0.000 NA
ATOM     27  H   UNL     1      50.074   5.170  19.092  0.00  0.00    +0.000 HD
BRANCH  26  28
ATOM     28  C   UNL     1      50.898   3.983  17.626  0.00  0.00    +0.000 C 
ATOM     29  C   UNL     1      50.224   2.604  17.640  0.00  0.00    +0.000 C 
ATOM     30  C   UNL     1      51.231   1.509  17.318  0.00  0.00    +0.000 C 
ATOM     31  O   UNL     1      52.334   1.555  18.218  0.00  0.00    +0.000 OA
ATOM     32  C   UNL     1      53.047   2.788  18.128  0.00  0.00    +0.000 C 
ATOM     33  C   UNL     1      52.149   3.956  18.516  0.00  0.00    +0.000 C 
ENDBRANCH  26  28
ENDBRANCH  25  26
ENDBRANCH  22  25
ENDBRANCH  18  19
ENDBRANCH   1  18
TORSDOF 8
ENDMDL
MODEL 8
REMARK VINA RESULT:    -6.843      4.019     10.940
REMARK INTER + INTRA:         -11.076
REMARK INTER:                 -10.076
REMARK INTRA:                  -1.000
REMARK UNBOUND:                -1.233
REMARK  Name = 
REMARK  8 active torsions:
REMARK  status: ('A' for Active; 'I' for Inactive)
REMARK    1  A    between atoms: N_1  and  C_2
REMARK    2  A    between atoms: C_2  and  C_3
REMARK    3  A    between atoms: C_2  and  C_18
REMARK    4  A    between atoms: C_3  and  C_4
REMARK    5  A    between atoms: C_7  and  C_8
REMARK    6  A    between atoms: C_8  and  N_9
REMARK    7  A    between atoms: N_9  and  C_10
REMARK    8  A    between atoms: C_18  and  C_20
REMARK                            x       y       z     vdW  Elec       q    Type
REMARK                         _______ _______ _______ _____ _____    ______ ____
ROOT
ATOM      1  C   UNL     1      46.010   7.430  12.060  0.00  0.00    +0.000 C 
ENDROOT
BRANCH   1   2
ATOM      2  N   UNL     1      45.748   8.165  13.325  0.00  0.00    +0.000 NA
ATOM      3  H   UNL     1      45.847   7.527  14.111  0.00  0.00    +0.000 HD
ATOM      4  H   UNL     1      44.762   8.451  13.308  0.00  0.00    +0.000 HD
ENDBRANCH   1   2
BRANCH   1   5
ATOM      5  C   UNL     1      44.697   6.876  11.487  0.00  0.00    +0.000 C 
ATOM      6  O   UNL     1      43.824   7.670  11.113  0.00  0.00    +0.000 OA
BRANCH   5   7
ATOM      7  C   UNL     1      44.450   5.423  11.354  0.00  0.00    +0.000 A 
ATOM      8  C   UNL     1      43.801   4.768  12.396  0.00  0.00    +0.000 A 
ATOM      9  S   UNL     1      43.455   3.133  12.081  0.00  0.00    +0.000 S 
ATOM     10  C   UNL     1      44.155   3.234  10.535  0.00  0.00    +0.000 A 
ATOM     11  N   UNL     1      44.116   2.166   9.694  0.00  0.00    +0.000 NA
ATOM     12  C   UNL     1      44.637   2.380   8.533  0.00  0.00    +0.000 A 
ATOM     13  N   UNL     1      45.231   3.552   8.153  0.00  0.00    +0.000 N 
ATOM     14  C   UNL     1      45.438   4.591   9.028  0.00  0.00    +0.000 A 
ATOM     15  O   UNL     1      46.224   5.485   8.741  0.00  0.00    +0.000 OA
ATOM     16  C   UNL     1      44.726   4.475  10.292  0.00  0.00    +0.000 A 
ATOM     17  H   UNL     1      45.707   3.622   7.266  0.00  0.00    +0.000 HD
ENDBRANCH   5   7
ENDBRANCH   1   5
BRANCH   1  18
ATOM     18  C   UNL     1      47.048   6.297  12.204  0.00  0.00    +0.000 C 
BRANCH  18  19
ATOM     19  C   UNL     1      47.377   5.863  13.613  0.00  0.00    +0.000 A 
ATOM     20  C   UNL     1      48.260   6.614  14.406  0.00  0.00    +0.000 A 
ATOM     21  C   UNL     1      48.547   6.222  15.713  0.00  0.00    +0.000 A 
ATOM     22  C   UNL     1      47.959   5.073  16.256  0.00  0.00    +0.000 A 
ATOM     23  C   UNL     1      47.084   4.321  15.462  0.00  0.00    +0.000 A 
ATOM     24  C   UNL     1      46.798   4.712  14.155  0.00  0.00    +0.000 A 
BRANCH  22  25
ATOM     25  C   UNL     1      48.277   4.632  17.662  0.00  0.00    +0.000 C 
BRANCH  25  26
ATOM     26  N   UNL     1      47.297   5.137  18.625  0.00  0.00    +0.000 NA
ATOM     27  H   UNL     1      46.910   4.350  19.147  0.00  0.00    +0.000 HD
BRANCH  26  28
ATOM     28  C   UNL     1      47.870   6.126  19.549  0.00  0.00    +0.000 C 
ATOM     29  C   UNL     1      47.456   5.894  21.009  0.00  0.00    +0.000 C 
ATOM     30  C   UNL     1      47.942   7.032  21.894  0.00  0.00    +0.000 C 
ATOM     31  O   UNL     1      47.466   8.286  21.415  0.00  0.00    +0.000 OA
ATOM     32  C   UNL     1      47.943   8.573  20.101  0.00  0.00    +0.000 C 
ATOM     33  C   UNL     1      47.440   7.534  19.108  0.00  0.00    +0.000 C 
ENDBRANCH  26  28
ENDBRANCH  25  26
ENDBRANCH  22  25
ENDBRANCH  18  19
ENDBRANCH   1  18
TORSDOF 8
ENDMDL
MODEL 9
REMARK VINA RESULT:    -6.689      3.888      6.512
REMARK INTER + INTRA:         -10.854
REMARK INTER:                  -9.447
REMARK INTRA:                  -1.407
REMARK UNBOUND:                -1.233
REMARK  Name = 
REMARK  8 active torsions:
REMARK  status: ('A' for Active; 'I' for Inactive)
REMARK    1  A    between atoms: N_1  and  C_2
REMARK    2  A    between atoms: C_2  and  C_3
REMARK    3  A    between atoms: C_2  and  C_18
REMARK    4  A    between atoms: C_3  and  C_4
REMARK    5  A    between atoms: C_7  and  C_8
REMARK    6  A    between atoms: C_8  and  N_9
REMARK    7  A    between atoms: N_9  and  C_10
REMARK    8  A    between atoms: C_18  and  C_20
REMARK                            x       y       z     vdW  Elec       q    Type
REMARK                         _______ _______ _______ _____ _____    ______ ____
ROOT
ATOM      1  C   UNL     1      48.995   7.855  14.753  0.00  0.00    +0.000 C 
ENDROOT
BRANCH   1   2
ATOM      2  N   UNL     1      49.661   9.180  14.862  0.00  0.00    +0.000 NA
ATOM      3  H   UNL     1      50.278   9.180  15.670  0.00  0.00    +0.000 HD
ATOM      4  H   UNL     1      48.928   9.870  15.059  0.00  0.00    +0.000 HD
ENDBRANCH   1   2
BRANCH   1   5
ATOM      5  C   UNL     1      49.598   6.875  15.770  0.00  0.00    +0.000 C 
ATOM      6  O   UNL     1      50.782   6.534  15.645  0.00  0.00    +0.000 OA
BRANCH   5   7
ATOM      7  C   UNL     1      48.813   6.336  16.903  0.00  0.00    +0.000 A 
ATOM      8  C   UNL     1      48.426   5.000  16.859  0.00  0.00    +0.000 A 
ATOM      9  S   UNL     1      47.642   4.457  18.267  0.00  0.00    +0.000 S 
ATOM     10  C   UNL     1      47.791   5.986  18.996  0.00  0.00    +0.000 A 
ATOM     11  N   UNL     1      47.377   6.177  20.278  0.00  0.00    +0.000 NA
ATOM     12  C   UNL     1      47.587   7.364  20.736  0.00  0.00    +0.000 A 
ATOM     13  N   UNL     1      48.134   8.390  20.014  0.00  0.00    +0.000 N 
ATOM     14  C   UNL     1      48.408   8.282  18.671  0.00  0.00    +0.000 A 
ATOM     15  O   UNL     1      48.609   9.290  18.005  0.00  0.00    +0.000 OA
ATOM     16  C   UNL     1      48.353   6.926  18.145  0.00  0.00    +0.000 A 
ATOM     17  H   UNL     1      48.179   9.321  20.399  0.00  0.00    +0.000 HD
ENDBRANCH   5   7
ENDBRANCH   1   5
BRANCH   1  18
ATOM     18  C   UNL     1      49.046   7.250  13.334  0.00  0.00    +0.000 C 
BRANCH  18  19
ATOM     19  C   UNL     1      47.772   6.616  12.828  0.00  0.00    +0.000 A 
ATOM     20  C   UNL     1      46.998   7.251  11.844  0.00  0.00    +0.000 A 
ATOM     21  C   UNL     1      45.832   6.654  11.364  0.00  0.00    +0.000 A 
ATOM     22  C   UNL     1      45.416   5.411  11.857  0.00  0.00    +0.000 A 
ATOM     23  C   UNL     1      46.186   4.781  12.843  0.00  0.00    +0.000 A 
ATOM     24  C   UNL     1      47.351   5.378  13.323  0.00  0.00    +0.000 A 
BRANCH  22  25
ATOM     25  C   UNL     1      44.148   4.766  11.357  0.00  0.00    +0.000 C 
BRANCH  25  26
ATOM     26  N   UNL     1      43.895   5.083   9.950  0.00  0.00    +0.000 NA
ATOM     27  H   UNL     1      44.379   5.950   9.715  0.00  0.00    +0.000 HD
BRANCH  26  28
ATOM     28  C   UNL     1      44.314   4.006   9.043  0.00  0.00    +0.000 C 
ATOM     29  C   UNL     1      44.443   2.646   9.744  0.00  0.00    +0.000 C 
ATOM     30  C   UNL     1      45.032   1.608   8.801  0.00  0.00    +0.000 C 
ATOM     31  O   UNL     1      46.286   2.044   8.285  0.00  0.00    +0.000 OA
ATOM     32  C   UNL     1      46.162   3.245   7.525  0.00  0.00    +0.000 C 
ATOM     33  C   UNL     1      45.657   4.385   8.400  0.00  0.00    +0.000 C 
ENDBRANCH  26  28
ENDBRANCH  25  26
ENDBRANCH  22  25
ENDBRANCH  18  19
ENDBRANCH   1  18
TORSDOF 8
ENDMDL
