MODEL 1
REMARK VINA RESULT:    -6.888      0.000      0.000
REMARK INTER + INTRA:         -10.140
REMARK INTER:                  -9.305
REMARK INTRA:                  -0.835
REMARK UNBOUND:                -0.835
REMARK  Name = 
REMARK  6 active torsions:
REMARK  status: ('A' for Active; 'I' for Inactive)
REMARK    1  A    between atoms: C_2  and  C_3
REMARK    2  A    between atoms: C_5  and  S_6
REMARK    3  A    between atoms: S_6  and  C_7
REMARK    4  A    between atoms: C_7  and  C_8
REMARK    5  A    between atoms: C_12  and  N_13
REMARK    6  A    between atoms: C_21  and  C_22
REMARK                            x       y       z     vdW  Elec       q    Type
REMARK                         _______ _______ _______ _____ _____    ______ ____
ROOT
ATOM      1  S   UNL     1      47.370   6.703  12.669  0.00  0.00    +0.000 S 
ENDROOT
BRANCH   1   4
ATOM      2  C   UNL     1      49.421   6.957  16.223  0.00  0.00    +0.000 A 
ATOM      3  C   UNL     1      48.935   7.286  14.952  0.00  0.00    +0.000 A 
ATOM      4  C   UNL     1      48.031   6.448  14.304  0.00  0.00    +0.000 A 
ATOM      5  C   UNL     1      47.609   5.281  14.966  0.00  0.00    +0.000 A 
ATOM      6  C   UNL     1      48.094   4.933  16.238  0.00  0.00    +0.000 A 
ATOM      7  C   UNL     1      49.005   5.779  16.862  0.00  0.00    +0.000 A 
BRANCH   6   8
ATOM      8  C   UNL     1      47.610   3.658  16.843  0.00  0.00    +0.000 C 
ATOM      9  N   UNL     1      48.527   2.726  17.240  0.00  0.00    +0.000 N 
ATOM     10  O   UNL     1      46.414   3.432  16.984  0.00  0.00    +0.000 OA
ATOM     11  H   UNL     1      49.528   2.798  17.149  0.00  0.00    +0.000 HD
ATOM     12  H   UNL     1      48.156   1.869  17.630  0.00  0.00    +0.000 HD
ENDBRANCH   6   8
BRANCH   2  14
ATOM     13  N   UNL     1      51.108   8.526  17.406  0.00  0.00    +0.000 NA
ATOM     14  C   UNL     1      50.359   7.821  16.874  0.00  0.00    +0.000 C 
ENDBRANCH   2  14
ENDBRANCH   1   4
BRANCH   1  15
ATOM     15  C   UNL     1      45.548   6.650  12.859  0.00  0.00    +0.000 C 
BRANCH  15  16
ATOM     16  C   UNL     1      44.906   5.388  12.312  0.00  0.00    +0.000 A 
ATOM     17  C   UNL     1      43.784   4.785  12.892  0.00  0.00    +0.000 A 
ATOM     18  C   UNL     1      43.212   3.645  12.330  0.00  0.00    +0.000 A 
ATOM     19  C   UNL     1      43.718   3.118  11.145  0.00  0.00    +0.000 A 
ATOM     20  C   UNL     1      44.798   3.719  10.495  0.00  0.00    +0.000 A 
ATOM     21  C   UNL     1      45.393   4.838  11.111  0.00  0.00    +0.000 A 
BRANCH  20  22
ATOM     22  N   UNL     1      45.312   3.248   9.297  0.00  0.00    +0.000 N 
ATOM     23  C   UNL     1      45.080   1.867   8.874  0.00  0.00    +0.000 C 
ATOM     24  C   UNL     1      46.317   1.424   8.095  0.00  0.00    +0.000 C 
ATOM     25  C   UNL     1      46.613   2.369   6.926  0.00  0.00    +0.000 C 
ATOM     26  C   UNL     1      46.634   3.837   7.359  0.00  0.00    +0.000 C 
ATOM     27  C   UNL     1      45.404   4.202   8.186  0.00  0.00    +0.000 C 
ENDBRANCH  20  22
ENDBRANCH  15  16
ENDBRANCH   1  15
TORSDOF 6
ENDMDL
MODEL 2
REMARK VINA RESULT:    -6.748      1.398      2.837
REMARK INTER + INTRA:          -9.950
REMARK INTER:                  -9.126
REMARK INTRA:                  -0.824
REMARK UNBOUND:                -0.835
REMARK  Name = 
REMARK  6 active torsions:
REMARK  status: ('A' for Active; 'I' for Inactive)
REMARK    1  A    between atoms: C_2  and  C_3
REMARK    2  A    between atoms: C_5  and  S_6
REMARK    3  A    between atoms: S_6  and  C_7
REMARK    4  A    between atoms: C_7  and  C_8
REMARK    5  A    between atoms: C_12  and  N_13
REMARK    6  A    between atoms: C_21  and  C_22
REMARK                            x       y       z     vdW  Elec       q    Type
REMARK                         _______ _______ _______ _____ _____    ______ ____
ROOT
ATOM      1  S   UNL     1      47.656   6.705  12.728  0.00  0.00    +0.000 S 
ENDROOT
BRANCH   1   4
ATOM      2  C   UNL     1      47.842   4.791  16.362  0.00  0.00    +0.000 A 
ATOM      3  C   UNL     1      47.487   5.084  15.040  0.00  0.00    +0.000 A 
ATOM      4  C   UNL     1      48.049   6.176  14.384  0.00  0.00    +0.000 A 
ATOM      5  C   UNL     1      48.993   6.956  15.075  0.00  0.00    +0.000 A 
ATOM      6  C   UNL     1      49.354   6.680  16.403  0.00  0.00    +0.000 A 
ATOM      7  C   UNL     1      48.771   5.592  17.044  0.00  0.00    +0.000 A 
BRANCH   6   8
ATOM      8  C   UNL     1      50.341   7.587  17.061  0.00  0.00    +0.000 C 
ATOM      9  N   UNL     1      51.663   7.470  16.737  0.00  0.00    +0.000 N 
ATOM     10  O   UNL     1      49.988   8.425  17.883  0.00  0.00    +0.000 OA
ATOM     11  H   UNL     1      52.063   6.804  16.098  0.00  0.00    +0.000 HD
ATOM     12  H   UNL     1      52.300   8.093  17.219  0.00  0.00    +0.000 HD
ENDBRANCH   6   8
BRANCH   2  14
ATOM     13  N   UNL     1      46.754   2.774  17.568  0.00  0.00    +0.000 NA
ATOM     14  C   UNL     1      47.247   3.673  17.030  0.00  0.00    +0.000 C 
ENDBRANCH   2  14
ENDBRANCH   1   4
BRANCH   1  15
ATOM     15  C   UNL     1      45.861   7.070  12.739  0.00  0.00    +0.000 C 
BRANCH  15  16
ATOM     16  C   UNL     1      44.997   5.940  12.210  0.00  0.00    +0.000 A 
ATOM     17  C   UNL     1      43.723   5.649  12.712  0.00  0.00    +0.000 A 
ATOM     18  C   UNL     1      42.956   4.621  12.168  0.00  0.00    +0.000 A 
ATOM     19  C   UNL     1      43.425   3.898  11.073  0.00  0.00    +0.000 A 
ATOM     20  C   UNL     1      44.663   4.191  10.498  0.00  0.00    +0.000 A 
ATOM     21  C   UNL     1      45.444   5.198  11.100  0.00  0.00    +0.000 A 
BRANCH  20  22
ATOM     22  N   UNL     1      45.155   3.521   9.389  0.00  0.00    +0.000 N 
ATOM     23  C   UNL     1      44.762   2.139   9.114  0.00  0.00    +0.000 C 
ATOM     24  C   UNL     1      45.960   1.457   8.453  0.00  0.00    +0.000 C 
ATOM     25  C   UNL     1      46.415   2.212   7.202  0.00  0.00    +0.000 C 
ATOM     26  C   UNL     1      46.609   3.708   7.465  0.00  0.00    +0.000 C 
ATOM     27  C   UNL     1      45.407   4.317   8.182  0.00  0.00    +0.000 C 
ENDBRANCH  20  22
ENDBRANCH  15  16
ENDBRANCH   1  15
TORSDOF 6
ENDMDL
MODEL 3
REMARK VINA RESULT:    -6.716      2.352      2.667
REMARK INTER + INTRA:          -9.906
REMARK INTER:                  -8.664
REMARK INTRA:                  -1.242
REMARK UNBOUND:                -0.835
REMARK  Name = 
REMARK  6 active torsions:
REMARK  status: ('A' for Active; 'I' for Inactive)
REMARK    1  A    between atoms: C_2  and  C_3
REMARK    2  A    between atoms: C_5  and  S_6
REMARK    3  A    between atoms: S_6  and  C_7
REMARK    4  A    between atoms: C_7  and  C_8
REMARK    5  A    between atoms: C_12  and  N_13
REMARK    6  A    between atoms: C_21  and  C_22
REMARK                            x       y       z     vdW  Elec       q    Type
REMARK                         _______ _______ _______ _____ _____    ______ ____
ROOT
ATOM      1  S   UNL     1      44.347   7.947  12.429  0.00  0.00    +0.000 S 
ENDROOT
BRANCH   1   4
ATOM      2  C   UNL     1      48.348   7.009  12.318  0.00  0.00    +0.000 A 
ATOM      3  C   UNL     1      47.144   7.685  12.093  0.00  0.00    +0.000 A 
ATOM      4  C   UNL     1      45.960   7.228  12.667  0.00  0.00    +0.000 A 
ATOM      5  C   UNL     1      46.014   6.089  13.491  0.00  0.00    +0.000 A 
ATOM      6  C   UNL     1      47.214   5.396  13.720  0.00  0.00    +0.000 A 
ATOM      7  C   UNL     1      48.381   5.863  13.127  0.00  0.00    +0.000 A 
BRANCH   6   8
ATOM      8  C   UNL     1      47.161   4.179  14.583  0.00  0.00    +0.000 C 
ATOM      9  N   UNL     1      46.837   4.320  15.903  0.00  0.00    +0.000 N 
ATOM     10  O   UNL     1      47.408   3.066  14.133  0.00  0.00    +0.000 OA
ATOM     11  H   UNL     1      46.641   5.185  16.380  0.00  0.00    +0.000 HD
ATOM     12  H   UNL     1      46.829   3.472  16.457  0.00  0.00    +0.000 HD
ENDBRANCH   6   8
BRANCH   2  14
ATOM     13  N   UNL     1      50.535   7.871  11.231  0.00  0.00    +0.000 NA
ATOM     14  C   UNL     1      49.556   7.482  11.711  0.00  0.00    +0.000 C 
ENDBRANCH   2  14
ENDBRANCH   1   4
BRANCH   1  15
ATOM     15  C   UNL     1      43.625   7.075  10.988  0.00  0.00    +0.000 C 
BRANCH  15  16
ATOM     16  C   UNL     1      43.774   5.565  11.041  0.00  0.00    +0.000 A 
ATOM     17  C   UNL     1      43.147   4.766  12.005  0.00  0.00    +0.000 A 
ATOM     18  C   UNL     1      43.289   3.380  11.988  0.00  0.00    +0.000 A 
ATOM     19  C   UNL     1      44.015   2.761  10.974  0.00  0.00    +0.000 A 
ATOM     20  C   UNL     1      44.607   3.509   9.955  0.00  0.00    +0.000 A 
ATOM     21  C   UNL     1      44.496   4.913  10.024  0.00  0.00    +0.000 A 
BRANCH  20  22
ATOM     22  N   UNL     1      45.310   2.933   8.908  0.00  0.00    +0.000 N 
ATOM     23  C   UNL     1      45.179   1.506   8.615  0.00  0.00    +0.000 C 
ATOM     24  C   UNL     1      46.531   1.032   8.084  0.00  0.00    +0.000 C 
ATOM     25  C   UNL     1      46.978   1.856   6.873  0.00  0.00    +0.000 C 
ATOM     26  C   UNL     1      46.897   3.363   7.134  0.00  0.00    +0.000 C 
ATOM     27  C   UNL     1      45.547   3.764   7.722  0.00  0.00    +0.000 C 
ENDBRANCH  20  22
ENDBRANCH  15  16
ENDBRANCH   1  15
TORSDOF 6
ENDMDL
MODEL 4
REMARK VINA RESULT:    -6.547      2.386      3.767
REMARK INTER + INTRA:          -9.679
REMARK INTER:                  -8.702
REMARK INTRA:                  -0.977
REMARK UNBOUND:                -0.835
REMARK  Name = 
REMARK  6 active torsions:
REMARK  status: ('A' for Active; 'I' for Inactive)
REMARK    1  A    between atoms: C_2  and  C_3
REMARK    2  A    between atoms: C_5  and  S_6
REMARK    3  A    between atoms: S_6  and  C_7
REMARK    4  A    between atoms: C_7  and  C_8
REMARK    5  A    between atoms: C_12  and  N_13
REMARK    6  A    between atoms: C_21  and  C_22
REMARK                            x       y       z     vdW  Elec       q    Type
REMARK                         _______ _______ _______ _____ _____    ______ ____
ROOT
ATOM      1  S   UNL     1      49.547   8.139  15.546  0.00  0.00    +0.000 S 
ENDROOT
BRANCH   1   4
ATOM      2  C   UNL     1      47.916   6.669  19.022  0.00  0.00    +0.000 A 
ATOM      3  C   UNL     1      48.485   7.558  18.103  0.00  0.00    +0.000 A 
ATOM      4  C   UNL     1      48.774   7.143  16.806  0.00  0.00    +0.000 A 
ATOM      5  C   UNL     1      48.460   5.821  16.443  0.00  0.00    +0.000 A 
ATOM      6  C   UNL     1      47.896   4.915  17.356  0.00  0.00    +0.000 A 
ATOM      7  C   UNL     1      47.627   5.347  18.650  0.00  0.00    +0.000 A 
BRANCH   6   8
ATOM      8  C   UNL     1      47.630   3.524  16.883  0.00  0.00    +0.000 C 
ATOM      9  N   UNL     1      46.904   2.684  17.679  0.00  0.00    +0.000 N 
ATOM     10  O   UNL     1      48.054   3.124  15.805  0.00  0.00    +0.000 OA
ATOM     11  H   UNL     1      46.532   2.899  18.590  0.00  0.00    +0.000 HD
ATOM     12  H   UNL     1      46.761   1.745  17.329  0.00  0.00    +0.000 HD
ENDBRANCH   6   8
BRANCH   2  14
ATOM     13  N   UNL     1      47.417   7.466  21.435  0.00  0.00    +0.000 NA
ATOM     14  C   UNL     1      47.635   7.105  20.357  0.00  0.00    +0.000 C 
ENDBRANCH   2  14
ENDBRANCH   1   4
BRANCH   1  15
ATOM     15  C   UNL     1      49.216   7.278  13.963  0.00  0.00    +0.000 C 
BRANCH  15  16
ATOM     16  C   UNL     1      47.790   7.427  13.464  0.00  0.00    +0.000 A 
ATOM     17  C   UNL     1      47.107   8.648  13.448  0.00  0.00    +0.000 A 
ATOM     18  C   UNL     1      45.809   8.737  12.947  0.00  0.00    +0.000 A 
ATOM     19  C   UNL     1      45.189   7.615  12.403  0.00  0.00    +0.000 A 
ATOM     20  C   UNL     1      45.852   6.388  12.340  0.00  0.00    +0.000 A 
ATOM     21  C   UNL     1      47.142   6.311  12.902  0.00  0.00    +0.000 A 
BRANCH  20  22
ATOM     22  N   UNL     1      45.286   5.254  11.777  0.00  0.00    +0.000 N 
ATOM     23  C   UNL     1      45.264   5.071  10.326  0.00  0.00    +0.000 C 
ATOM     24  C   UNL     1      43.985   4.307   9.991  0.00  0.00    +0.000 C 
ATOM     25  C   UNL     1      43.901   2.988  10.764  0.00  0.00    +0.000 C 
ATOM     26  C   UNL     1      44.146   3.177  12.263  0.00  0.00    +0.000 C 
ATOM     27  C   UNL     1      45.403   4.001  12.531  0.00  0.00    +0.000 C 
ENDBRANCH  20  22
ENDBRANCH  15  16
ENDBRANCH   1  15
TORSDOF 6
ENDMDL
MODEL 5
REMARK VINA RESULT:    -6.528      2.156      7.718
REMARK INTER + INTRA:          -9.652
REMARK INTER:                  -8.741
REMARK INTRA:                  -0.912
REMARK UNBOUND:                -0.835
REMARK  Name = 
REMARK  6 active torsions:
REMARK  status: ('A' for Active; 'I' for Inactive)
REMARK    1  A    between atoms: C_2  and  C_3
REMARK    2  A    between atoms: C_5  and  S_6
REMARK    3  A    between atoms: S_6  and  C_7
REMARK    4  A    between atoms: C_7  and  C_8
REMARK    5  A    between atoms: C_12  and  N_13
REMARK    6  A    between atoms: C_21  and  C_22
REMARK                            x       y       z     vdW  Elec       q    Type
REMARK                         _______ _______ _______ _____ _____    ______ ____
ROOT
ATOM      1  S   UNL     1      46.050   7.639  12.048  0.00  0.00    +0.000 S 
ENDROOT
BRANCH   1   4
ATOM      2  C   UNL     1      45.594   4.593   9.324  0.00  0.00    +0.000 A 
ATOM      3  C   UNL     1      46.019   5.794   9.903  0.00  0.00    +0.000 A 
ATOM      4  C   UNL     1      45.637   6.127  11.200  0.00  0.00    +0.000 A 
ATOM      5  C   UNL     1      44.836   5.217  11.914  0.00  0.00    +0.000 A 
ATOM      6  C   UNL     1      44.395   4.012  11.344  0.00  0.00    +0.000 A 
ATOM      7  C   UNL     1      44.779   3.706  10.043  0.00  0.00    +0.000 A 
BRANCH   6   8
ATOM      8  C   UNL     1      43.521   3.129  12.171  0.00  0.00    +0.000 C 
ATOM      9  N   UNL     1      43.348   3.423  13.494  0.00  0.00    +0.000 N 
ATOM     10  O   UNL     1      42.965   2.149  11.689  0.00  0.00    +0.000 OA
ATOM     11  H   UNL     1      43.775   4.184  13.996  0.00  0.00    +0.000 HD
ATOM     12  H   UNL     1      42.761   2.789  14.022  0.00  0.00    +0.000 HD
ENDBRANCH   6   8
BRANCH   2  14
ATOM     13  N   UNL     1      46.300   3.995   6.905  0.00  0.00    +0.000 NA
ATOM     14  C   UNL     1      45.984   4.269   7.985  0.00  0.00    +0.000 C 
ENDBRANCH   2  14
ENDBRANCH   1   4
BRANCH   1  15
ATOM     15  C   UNL     1      47.875   7.772  11.960  0.00  0.00    +0.000 C 
BRANCH  15  16
ATOM     16  C   UNL     1      48.566   7.710  13.310  0.00  0.00    +0.000 A 
ATOM     17  C   UNL     1      49.429   8.708  13.776  0.00  0.00    +0.000 A 
ATOM     18  C   UNL     1      50.011   8.619  15.040  0.00  0.00    +0.000 A 
ATOM     19  C   UNL     1      49.698   7.556  15.883  0.00  0.00    +0.000 A 
ATOM     20  C   UNL     1      48.796   6.567  15.488  0.00  0.00    +0.000 A 
ATOM     21  C   UNL     1      48.262   6.650  14.185  0.00  0.00    +0.000 A 
BRANCH  20  22
ATOM     22  N   UNL     1      48.429   5.511  16.307  0.00  0.00    +0.000 N 
ATOM     23  C   UNL     1      48.376   5.674  17.759  0.00  0.00    +0.000 C 
ATOM     24  C   UNL     1      48.768   4.331  18.375  0.00  0.00    +0.000 C 
ATOM     25  C   UNL     1      47.874   3.198  17.864  0.00  0.00    +0.000 C 
ATOM     26  C   UNL     1      47.771   3.183  16.336  0.00  0.00    +0.000 C 
ATOM     27  C   UNL     1      47.439   4.565  15.778  0.00  0.00    +0.000 C 
ENDBRANCH  20  22
ENDBRANCH  15  16
ENDBRANCH   1  15
TORSDOF 6
ENDMDL
MODEL 6
REMARK VINA RESULT:    -6.288      2.270      3.655
REMARK INTER + INTRA:          -9.329
REMARK INTER:                  -8.399
REMARK INTRA:                  -0.931
REMARK UNBOUND:                -0.835
REMARK  Name = 
REMARK  6 active torsions:
REMARK  status: ('A' for Active; 'I' for Inactive)
REMARK    1  A    between atoms: C_2  and  C_3
REMARK    2  A    between atoms: C_5  and  S_6
REMARK    3  A    between atoms: S_6  and  C_7
REMARK    4  A    between atoms: C_7  and  C_8
REMARK    5  A    between atoms: C_12  and  N_13
REMARK    6  A    between atoms: C_21  and  C_22
REMARK                            x       y       z     vdW  Elec       q    Type
REMARK                         _______ _______ _______ _____ _____    ______ ____
ROOT
ATOM      1  S   UNL     1      49.611   8.109  15.453  0.00  0.00    +0.000 S 
ENDROOT
BRANCH   1   4
ATOM      2  C   UNL     1      50.104   5.586  18.662  0.00  0.00    +0.000 A 
ATOM      3  C   UNL     1      50.224   6.708  17.833  0.00  0.00    +0.000 A 
ATOM      4  C   UNL     1      49.518   6.777  16.634  0.00  0.00    +0.000 A 
ATOM      5  C   UNL     1      48.673   5.706  16.294  0.00  0.00    +0.000 A 
ATOM      6  C   UNL     1      48.548   4.571  17.111  0.00  0.00    +0.000 A 
ATOM      7  C   UNL     1      49.271   4.517  18.298  0.00  0.00    +0.000 A 
BRANCH   6   8
ATOM      8  C   UNL     1      47.651   3.473  16.647  0.00  0.00    +0.000 C 
ATOM      9  N   UNL     1      46.881   2.816  17.565  0.00  0.00    +0.000 N 
ATOM     10  O   UNL     1      47.597   3.149  15.465  0.00  0.00    +0.000 OA
ATOM     11  H   UNL     1      46.866   2.982  18.558  0.00  0.00    +0.000 HD
ATOM     12  H   UNL     1      46.299   2.067  17.210  0.00  0.00    +0.000 HD
ENDBRANCH   6   8
BRANCH   2  14
ATOM     13  N   UNL     1      51.444   5.456  20.874  0.00  0.00    +0.000 NA
ATOM     14  C   UNL     1      50.845   5.521  19.886  0.00  0.00    +0.000 C 
ENDBRANCH   2  14
ENDBRANCH   1   4
BRANCH   1  15
ATOM     15  C   UNL     1      49.261   7.349  13.823  0.00  0.00    +0.000 C 
BRANCH  15  16
ATOM     16  C   UNL     1      47.813   7.469  13.383  0.00  0.00    +0.000 A 
ATOM     17  C   UNL     1      47.097   8.671  13.423  0.00  0.00    +0.000 A 
ATOM     18  C   UNL     1      45.779   8.735  12.975  0.00  0.00    +0.000 A 
ATOM     19  C   UNL     1      45.169   7.609  12.426  0.00  0.00    +0.000 A 
ATOM     20  C   UNL     1      45.862   6.403  12.308  0.00  0.00    +0.000 A 
ATOM     21  C   UNL     1      47.175   6.349  12.818  0.00  0.00    +0.000 A 
BRANCH  20  22
ATOM     22  N   UNL     1      45.307   5.268  11.737  0.00  0.00    +0.000 N 
ATOM     23  C   UNL     1      45.316   5.078  10.287  0.00  0.00    +0.000 C 
ATOM     24  C   UNL     1      44.042   4.314   9.928  0.00  0.00    +0.000 C 
ATOM     25  C   UNL     1      43.938   2.999  10.706  0.00  0.00    +0.000 C 
ATOM     26  C   UNL     1      44.151   3.196  12.209  0.00  0.00    +0.000 C 
ATOM     27  C   UNL     1      45.404   4.019  12.501  0.00  0.00    +0.000 C 
ENDBRANCH  20  22
ENDBRANCH  15  16
ENDBRANCH   1  15
TORSDOF 6
ENDMDL
MODEL 7
REMARK VINA RESULT:    -6.213      4.574      7.126
REMARK INTER + INTRA:          -9.227
REMARK INTER:                  -8.316
REMARK INTRA:                  -0.911
REMARK UNBOUND:                -0.835
REMARK  Name = 
REMARK  6 active torsions:
REMARK  status: ('A' for Active; 'I' for Inactive)
REMARK    1  A    between atoms: C_2  and  C_3
REMARK    2  A    between atoms: C_5  and  S_6
REMARK    3  A    between atoms: S_6  and  C_7
REMARK    4  A    between atoms: C_7  and  C_8
REMARK    5  A    between atoms: C_12  and  N_13
REMARK    6  A    between atoms: C_21  and  C_22
REMARK                            x       y       z     vdW  Elec       q    Type
REMARK                         _______ _______ _______ _____ _____    ______ ____
ROOT
ATOM      1  S   UNL     1      48.532   8.108  11.986  0.00  0.00    +0.000 S 
ENDROOT
BRANCH   1   4
ATOM      2  C   UNL     1      45.328   5.532  11.939  0.00  0.00    +0.000 A 
ATOM      3  C   UNL     1      46.198   6.564  11.570  0.00  0.00    +0.000 A 
ATOM      4  C   UNL     1      47.361   6.802  12.299  0.00  0.00    +0.000 A 
ATOM      5  C   UNL     1      47.643   5.967  13.395  0.00  0.00    +0.000 A 
ATOM      6  C   UNL     1      46.776   4.932  13.782  0.00  0.00    +0.000 A 
ATOM      7  C   UNL     1      45.615   4.721  13.047  0.00  0.00    +0.000 A 
BRANCH   6   8
ATOM      8  C   UNL     1      47.149   4.122  14.979  0.00  0.00    +0.000 C 
ATOM      9  N   UNL     1      46.964   4.658  16.222  0.00  0.00    +0.000 N 
ATOM     10  O   UNL     1      47.618   2.996  14.867  0.00  0.00    +0.000 OA
ATOM     11  H   UNL     1      46.612   5.579  16.428  0.00  0.00    +0.000 HD
ATOM     12  H   UNL     1      47.246   4.082  17.006  0.00  0.00    +0.000 HD
ENDBRANCH   6   8
BRANCH   2  14
ATOM     13  N   UNL     1      43.167   5.121  10.571  0.00  0.00    +0.000 NA
ATOM     14  C   UNL     1      44.129   5.307  11.188  0.00  0.00    +0.000 C 
ENDBRANCH   2  14
ENDBRANCH   1   4
BRANCH   1  15
ATOM     15  C   UNL     1      47.792   9.620  12.710  0.00  0.00    +0.000 C 
BRANCH  15  16
ATOM     16  C   UNL     1      47.216  10.578  11.684  0.00  0.00    +0.000 A 
ATOM     17  C   UNL     1      48.008  11.341  10.817  0.00  0.00    +0.000 A 
ATOM     18  C   UNL     1      47.428  12.181   9.869  0.00  0.00    +0.000 A 
ATOM     19  C   UNL     1      46.043  12.234   9.732  0.00  0.00    +0.000 A 
ATOM     20  C   UNL     1      45.212  11.447  10.531  0.00  0.00    +0.000 A 
ATOM     21  C   UNL     1      45.820  10.646  11.519  0.00  0.00    +0.000 A 
BRANCH  20  22
ATOM     22  N   UNL     1      43.831  11.443  10.406  0.00  0.00    +0.000 N 
ATOM     23  C   UNL     1      42.992  10.781  11.405  0.00  0.00    +0.000 C 
ATOM     24  C   UNL     1      41.772  10.230  10.669  0.00  0.00    +0.000 C 
ATOM     25  C   UNL     1      41.036  11.330   9.900  0.00  0.00    +0.000 C 
ATOM     26  C   UNL     1      41.981  12.156   9.022  0.00  0.00    +0.000 C 
ATOM     27  C   UNL     1      43.210  12.624   9.797  0.00  0.00    +0.000 C 
ENDBRANCH  20  22
ENDBRANCH  15  16
ENDBRANCH   1  15
TORSDOF 6
ENDMDL
MODEL 8
REMARK VINA RESULT:    -6.166      3.042      4.672
REMARK INTER + INTRA:          -9.163
REMARK INTER:                  -8.207
REMARK INTRA:                  -0.956
REMARK UNBOUND:                -0.835
REMARK  Name = 
REMARK  6 active torsions:
REMARK  status: ('A' for Active; 'I' for Inactive)
REMARK    1  A    between atoms: C_2  and  C_3
REMARK    2  A    between atoms: C_5  and  S_6
REMARK    3  A    between atoms: S_6  and  C_7
REMARK    4  A    between atoms: C_7  and  C_8
REMARK    5  A    between atoms: C_12  and  N_13
REMARK    6  A    between atoms: C_21  and  C_22
REMARK                            x       y       z     vdW  Elec       q    Type
REMARK                         _______ _______ _______ _____ _____    ______ ____
ROOT
ATOM      1  S   UNL     1      48.930   7.687  16.655  0.00  0.00    +0.000 S 
ENDROOT
BRANCH   1   4
ATOM      2  C   UNL     1      48.554   5.002  19.745  0.00  0.00    +0.000 A 
ATOM      3  C   UNL     1      48.550   6.209  19.037  0.00  0.00    +0.000 A 
ATOM      4  C   UNL     1      48.842   6.229  17.675  0.00  0.00    +0.000 A 
ATOM      5  C   UNL     1      49.118   5.008  17.034  0.00  0.00    +0.000 A 
ATOM      6  C   UNL     1      49.134   3.790  17.732  0.00  0.00    +0.000 A 
ATOM      7  C   UNL     1      48.851   3.795  19.094  0.00  0.00    +0.000 A 
BRANCH   6   8
ATOM      8  C   UNL     1      49.471   2.553  16.969  0.00  0.00    +0.000 C 
ATOM      9  N   UNL     1      50.544   1.805  17.363  0.00  0.00    +0.000 N 
ATOM     10  O   UNL     1      48.810   2.202  15.998  0.00  0.00    +0.000 OA
ATOM     11  H   UNL     1      51.167   2.013  18.126  0.00  0.00    +0.000 HD
ATOM     12  H   UNL     1      50.748   0.983  16.808  0.00  0.00    +0.000 HD
ENDBRANCH   6   8
BRANCH   2  14
ATOM     13  N   UNL     1      48.018   4.995  22.279  0.00  0.00    +0.000 NA
ATOM     14  C   UNL     1      48.264   4.996  21.148  0.00  0.00    +0.000 C 
ENDBRANCH   2  14
ENDBRANCH   1   4
BRANCH   1  15
ATOM     15  C   UNL     1      49.931   7.211  15.196  0.00  0.00    +0.000 C 
BRANCH  15  16
ATOM     16  C   UNL     1      49.184   7.302  13.878  0.00  0.00    +0.000 A 
ATOM     17  C   UNL     1      49.666   8.013  12.772  0.00  0.00    +0.000 A 
ATOM     18  C   UNL     1      48.957   8.037  11.572  0.00  0.00    +0.000 A 
ATOM     19  C   UNL     1      47.780   7.305  11.438  0.00  0.00    +0.000 A 
ATOM     20  C   UNL     1      47.291   6.531  12.492  0.00  0.00    +0.000 A 
ATOM     21  C   UNL     1      47.996   6.566  13.712  0.00  0.00    +0.000 A 
BRANCH  20  22
ATOM     22  N   UNL     1      46.143   5.760  12.391  0.00  0.00    +0.000 N 
ATOM     23  C   UNL     1      45.905   4.650  13.313  0.00  0.00    +0.000 C 
ATOM     24  C   UNL     1      45.142   3.578  12.534  0.00  0.00    +0.000 C 
ATOM     25  C   UNL     1      43.855   4.139  11.923  0.00  0.00    +0.000 C 
ATOM     26  C   UNL     1      44.099   5.432  11.140  0.00  0.00    +0.000 C 
ATOM     27  C   UNL     1      44.919   6.436  11.947  0.00  0.00    +0.000 C 
ENDBRANCH  20  22
ENDBRANCH  15  16
ENDBRANCH   1  15
TORSDOF 6
ENDMDL
MODEL 9
REMARK VINA RESULT:    -6.159      2.971      5.055
REMARK INTER + INTRA:          -9.155
REMARK INTER:                  -8.174
REMARK INTRA:                  -0.981
REMARK UNBOUND:                -0.835
REMARK  Name = 
REMARK  6 active torsions:
REMARK  status: ('A' for Active; 'I' for Inactive)
REMARK    1  A    between atoms: C_2  and  C_3
REMARK    2  A    between atoms: C_5  and  S_6
REMARK    3  A    between atoms: S_6  and  C_7
REMARK    4  A    between atoms: C_7  and  C_8
REMARK    5  A    between atoms: C_12  and  N_13
REMARK    6  A    between atoms: C_21  and  C_22
REMARK                            x       y       z     vdW  Elec       q    Type
REMARK                         _______ _______ _______ _____ _____    ______ ____
ROOT
ATOM      1  S   UNL     1      50.871   7.253  17.291  0.00  0.00    +0.000 S 
ENDROOT
BRANCH   1   4
ATOM      2  C   UNL     1      51.594   3.245  17.852  0.00  0.00    +0.000 A 
ATOM      3  C   UNL     1      51.785   4.631  17.834  0.00  0.00    +0.000 A 
ATOM      4  C   UNL     1      50.760   5.479  17.421  0.00  0.00    +0.000 A 
ATOM      5  C   UNL     1      49.530   4.907  17.047  0.00  0.00    +0.000 A 
ATOM      6  C   UNL     1      49.326   3.518  17.054  0.00  0.00    +0.000 A 
ATOM      7  C   UNL     1      50.367   2.689  17.458  0.00  0.00    +0.000 A 
BRANCH   6   8
ATOM      8  C   UNL     1      47.996   3.007  16.608  0.00  0.00    +0.000 C 
ATOM      9  N   UNL     1      47.014   2.821  17.540  0.00  0.00    +0.000 N 
ATOM     10  O   UNL     1      47.774   2.748  15.431  0.00  0.00    +0.000 OA
ATOM     11  H   UNL     1      47.096   2.977  18.532  0.00  0.00    +0.000 HD
ATOM     12  H   UNL     1      46.133   2.457  17.198  0.00  0.00    +0.000 HD
ENDBRANCH   6   8
BRANCH   2  14
ATOM     13  N   UNL     1      53.527   1.687  18.591  0.00  0.00    +0.000 NA
ATOM     14  C   UNL     1      52.660   2.383  18.267  0.00  0.00    +0.000 C 
ENDBRANCH   2  14
ENDBRANCH   1   4
BRANCH   1  15
ATOM     15  C   UNL     1      49.280   7.796  16.561  0.00  0.00    +0.000 C 
BRANCH  15  16
ATOM     16  C   UNL     1      49.209   7.646  15.052  0.00  0.00    +0.000 A 
ATOM     17  C   UNL     1      50.235   8.052  14.192  0.00  0.00    +0.000 A 
ATOM     18  C   UNL     1      50.134   7.861  12.815  0.00  0.00    +0.000 A 
ATOM     19  C   UNL     1      49.027   7.208  12.277  0.00  0.00    +0.000 A 
ATOM     20  C   UNL     1      48.007   6.729  13.100  0.00  0.00    +0.000 A 
ATOM     21  C   UNL     1      48.105   6.983  14.483  0.00  0.00    +0.000 A 
BRANCH  20  22
ATOM     22  N   UNL     1      46.904   6.044  12.611  0.00  0.00    +0.000 N 
ATOM     23  C   UNL     1      46.101   5.196  13.490  0.00  0.00    +0.000 C 
ATOM     24  C   UNL     1      45.583   4.035  12.641  0.00  0.00    +0.000 C 
ATOM     25  C   UNL     1      44.810   4.536  11.418  0.00  0.00    +0.000 C 
ATOM     26  C   UNL     1      45.590   5.593  10.631  0.00  0.00    +0.000 C 
ATOM     27  C   UNL     1      46.134   6.691  11.543  0.00  0.00    +0.000 C 
ENDBRANCH  20  22
ENDBRANCH  15  16
ENDBRANCH   1  15
TORSDOF 6
ENDMDL
