MODEL 1
REMARK VINA RESULT:    -7.784      0.000      0.000
REMARK INTER + INTRA:         -10.057
REMARK INTER:                  -9.377
REMARK INTRA:                  -0.680
REMARK UNBOUND:                -0.680
REMARK  Name = 
REMARK  4 active torsions:
REMARK  status: ('A' for Active; 'I' for Inactive)
REMARK    1  A    between atoms: O_1  and  C_2
REMARK    2  A    between atoms: C_2  and  C_3
REMARK    3  A    between atoms: C_7  and  O_8
REMARK    4  A    between atoms: O_8  and  C_9
REMARK                            x       y       z     vdW  Elec       q    Type
REMARK                         _______ _______ _______ _____ _____    ______ ____
ROOT
ATOM      1  C   UNL     1      45.344   5.627  12.260  0.00  0.00    +0.000 A 
ATOM      2  C   UNL     1      44.412   5.080  13.164  0.00  0.00    +0.000 A 
ATOM      3  C   UNL     1      43.374   4.255  12.730  0.00  0.00    +0.000 A 
ATOM      4  C   UNL     1      43.235   3.971  11.375  0.00  0.00    +0.000 A 
ATOM      5  C   UNL     1      44.098   4.558  10.450  0.00  0.00    +0.000 A 
ATOM      6  C   UNL     1      45.159   5.359  10.891  0.00  0.00    +0.000 A 
ENDROOT
BRANCH   1   7
ATOM      7  C   UNL     1      46.498   6.494  12.781  0.00  0.00    +0.000 C 
ATOM      8  C   UNL     1      47.435   6.921  11.631  0.00  0.00    +0.000 C 
ATOM      9  C   UNL     1      48.683   7.631  12.149  0.00  0.00    +0.000 C 
ATOM     10  N   UNL     1      49.396   6.802  13.120  0.00  0.00    +0.000 NA
ATOM     11  C   UNL     1      48.544   6.526  14.280  0.00  0.00    +0.000 C 
ATOM     12  C   UNL     1      47.291   5.753  13.873  0.00  0.00    +0.000 C 
ATOM     13  H   UNL     1      50.228   7.302  13.435  0.00  0.00    +0.000 HD
BRANCH   7  14
ATOM     14  O   UNL     1      45.980   7.696  13.377  0.00  0.00    +0.000 OA
ATOM     15  H   UNL     1      45.734   7.474  14.292  0.00  0.00    +0.000 HD
ENDBRANCH   7  14
ENDBRANCH   1   7
BRANCH   5  16
ATOM     16  O   UNL     1      44.008   4.327   9.095  0.00  0.00    +0.000 OA
BRANCH  16  17
ATOM     17  C   UNL     1      45.041   3.617   8.490  0.00  0.00    +0.000 A 
ATOM     18  C   UNL     1      45.145   2.273   8.819  0.00  0.00    +0.000 A 
ATOM     19  C   UNL     1      46.157   1.525   8.220  0.00  0.00    +0.000 A 
ATOM     20  C   UNL     1      47.024   2.145   7.327  0.00  0.00    +0.000 A 
ATOM     21  C   UNL     1      46.857   3.497   7.079  0.00  0.00    +0.000 A 
ATOM     22  N   UNL     1      45.893   4.246   7.650  0.00  0.00    +0.000 NA
ENDBRANCH  16  17
ENDBRANCH   5  16
TORSDOF 4
ENDMDL
MODEL 2
REMARK VINA RESULT:    -7.366      1.091      1.402
REMARK INTER + INTRA:          -9.554
REMARK INTER:                  -8.926
REMARK INTRA:                  -0.627
REMARK UNBOUND:                -0.680
REMARK  Name = 
REMARK  4 active torsions:
REMARK  status: ('A' for Active; 'I' for Inactive)
REMARK    1  A    between atoms: O_1  and  C_2
REMARK    2  A    between atoms: C_2  and  C_3
REMARK    3  A    between atoms: C_7  and  O_8
REMARK    4  A    between atoms: O_8  and  C_9
REMARK                            x       y       z     vdW  Elec       q    Type
REMARK                         _______ _______ _______ _____ _____    ______ ____
ROOT
ATOM      1  C   UNL     1      45.207   5.659  12.194  0.00  0.00    +0.000 A 
ATOM      2  C   UNL     1      44.400   4.983  13.130  0.00  0.00    +0.000 A 
ATOM      3  C   UNL     1      43.481   4.010  12.733  0.00  0.00    +0.000 A 
ATOM      4  C   UNL     1      43.339   3.702  11.384  0.00  0.00    +0.000 A 
ATOM      5  C   UNL     1      44.072   4.407  10.429  0.00  0.00    +0.000 A 
ATOM      6  C   UNL     1      45.016   5.359  10.832  0.00  0.00    +0.000 A 
ENDROOT
BRANCH   1   7
ATOM      7  C   UNL     1      46.237   6.690  12.675  0.00  0.00    +0.000 C 
ATOM      8  C   UNL     1      45.591   8.082  12.843  0.00  0.00    +0.000 C 
ATOM      9  C   UNL     1      46.631   9.158  13.146  0.00  0.00    +0.000 C 
ATOM     10  N   UNL     1      47.673   9.188  12.120  0.00  0.00    +0.000 NA
ATOM     11  C   UNL     1      48.379   7.905  12.071  0.00  0.00    +0.000 C 
ATOM     12  C   UNL     1      47.431   6.765  11.706  0.00  0.00    +0.000 C 
ATOM     13  H   UNL     1      48.342   9.924  12.348  0.00  0.00    +0.000 HD
BRANCH   7  14
ATOM     14  O   UNL     1      46.757   6.305  13.959  0.00  0.00    +0.000 OA
ATOM     15  H   UNL     1      47.507   5.706  13.792  0.00  0.00    +0.000 HD
ENDBRANCH   7  14
ENDBRANCH   1   7
BRANCH   5  16
ATOM     16  O   UNL     1      43.970   4.160   9.077  0.00  0.00    +0.000 OA
BRANCH  16  17
ATOM     17  C   UNL     1      45.027   3.497   8.460  0.00  0.00    +0.000 A 
ATOM     18  C   UNL     1      45.202   2.162   8.796  0.00  0.00    +0.000 A 
ATOM     19  C   UNL     1      46.240   1.461   8.185  0.00  0.00    +0.000 A 
ATOM     20  C   UNL     1      47.061   2.117   7.273  0.00  0.00    +0.000 A 
ATOM     21  C   UNL     1      46.823   3.457   7.020  0.00  0.00    +0.000 A 
ATOM     22  N   UNL     1      45.833   4.162   7.602  0.00  0.00    +0.000 NA
ENDBRANCH  16  17
ENDBRANCH   5  16
TORSDOF 4
ENDMDL
MODEL 3
REMARK VINA RESULT:    -6.572      1.686      2.178
REMARK INTER + INTRA:          -8.597
REMARK INTER:                  -7.998
REMARK INTRA:                  -0.599
REMARK UNBOUND:                -0.680
REMARK  Name = 
REMARK  4 active torsions:
REMARK  status: ('A' for Active; 'I' for Inactive)
REMARK    1  A    between atoms: O_1  and  C_2
REMARK    2  A    between atoms: C_2  and  C_3
REMARK    3  A    between atoms: C_7  and  O_8
REMARK    4  A    between atoms: O_8  and  C_9
REMARK                            x       y       z     vdW  Elec       q    Type
REMARK                         _______ _______ _______ _____ _____    ______ ____
ROOT
ATOM      1  C   UNL     1      45.549   4.773  12.772  0.00  0.00    +0.000 A 
ATOM      2  C   UNL     1      44.528   5.728  12.948  0.00  0.00    +0.000 A 
ATOM      3  C   UNL     1      43.371   5.710  12.168  0.00  0.00    +0.000 A 
ATOM      4  C   UNL     1      43.216   4.742  11.181  0.00  0.00    +0.000 A 
ATOM      5  C   UNL     1      44.242   3.829  10.936  0.00  0.00    +0.000 A 
ATOM      6  C   UNL     1      45.388   3.828  11.741  0.00  0.00    +0.000 A 
ENDROOT
BRANCH   1   7
ATOM      7  C   UNL     1      46.786   4.799  13.680  0.00  0.00    +0.000 C 
ATOM      8  C   UNL     1      46.436   4.333  15.109  0.00  0.00    +0.000 C 
ATOM      9  C   UNL     1      47.608   4.521  16.071  0.00  0.00    +0.000 C 
ATOM     10  N   UNL     1      48.070   5.909  16.073  0.00  0.00    +0.000 NA
ATOM     11  C   UNL     1      48.539   6.294  14.739  0.00  0.00    +0.000 C 
ATOM     12  C   UNL     1      47.414   6.204  13.711  0.00  0.00    +0.000 C 
ATOM     13  H   UNL     1      48.843   6.000  16.733  0.00  0.00    +0.000 HD
BRANCH   7  14
ATOM     14  O   UNL     1      47.787   3.899  13.172  0.00  0.00    +0.000 OA
ATOM     15  H   UNL     1      47.325   3.083  12.908  0.00  0.00    +0.000 HD
ENDBRANCH   7  14
ENDBRANCH   1   7
BRANCH   5  16
ATOM     16  O   UNL     1      44.157   2.853   9.967  0.00  0.00    +0.000 OA
BRANCH  16  17
ATOM     17  C   UNL     1      45.097   2.876   8.941  0.00  0.00    +0.000 A 
ATOM     18  C   UNL     1      45.750   1.682   8.671  0.00  0.00    +0.000 A 
ATOM     19  C   UNL     1      46.686   1.663   7.639  0.00  0.00    +0.000 A 
ATOM     20  C   UNL     1      46.939   2.831   6.927  0.00  0.00    +0.000 A 
ATOM     21  C   UNL     1      46.255   3.981   7.285  0.00  0.00    +0.000 A 
ATOM     22  N   UNL     1      45.351   4.030   8.283  0.00  0.00    +0.000 NA
ENDBRANCH  16  17
ENDBRANCH   5  16
TORSDOF 4
ENDMDL
MODEL 4
REMARK VINA RESULT:    -6.517      1.156      5.762
REMARK INTER + INTRA:          -8.531
REMARK INTER:                  -7.887
REMARK INTRA:                  -0.644
REMARK UNBOUND:                -0.680
REMARK  Name = 
REMARK  4 active torsions:
REMARK  status: ('A' for Active; 'I' for Inactive)
REMARK    1  A    between atoms: O_1  and  C_2
REMARK    2  A    between atoms: C_2  and  C_3
REMARK    3  A    between atoms: C_7  and  O_8
REMARK    4  A    between atoms: O_8  and  C_9
REMARK                            x       y       z     vdW  Elec       q    Type
REMARK                         _______ _______ _______ _____ _____    ______ ____
ROOT
ATOM      1  C   UNL     1      44.616   4.342  10.414  0.00  0.00    +0.000 A 
ATOM      2  C   UNL     1      43.249   4.518  10.706  0.00  0.00    +0.000 A 
ATOM      3  C   UNL     1      42.829   5.110  11.898  0.00  0.00    +0.000 A 
ATOM      4  C   UNL     1      43.771   5.525  12.834  0.00  0.00    +0.000 A 
ATOM      5  C   UNL     1      45.127   5.297  12.603  0.00  0.00    +0.000 A 
ATOM      6  C   UNL     1      45.548   4.733  11.393  0.00  0.00    +0.000 A 
ENDROOT
BRANCH   1   7
ATOM      7  C   UNL     1      45.039   3.727   9.073  0.00  0.00    +0.000 C 
ATOM      8  C   UNL     1      45.481   2.258   9.250  0.00  0.00    +0.000 C 
ATOM      9  C   UNL     1      46.073   1.684   7.965  0.00  0.00    +0.000 C 
ATOM     10  N   UNL     1      47.182   2.507   7.483  0.00  0.00    +0.000 NA
ATOM     11  C   UNL     1      46.717   3.862   7.176  0.00  0.00    +0.000 C 
ATOM     12  C   UNL     1      46.164   4.551   8.422  0.00  0.00    +0.000 C 
ATOM     13  H   UNL     1      47.560   2.088   6.632  0.00  0.00    +0.000 HD
BRANCH   7  14
ATOM     14  O   UNL     1      43.929   3.729   8.159  0.00  0.00    +0.000 OA
ATOM     15  H   UNL     1      43.359   4.479   8.408  0.00  0.00    +0.000 HD
ENDBRANCH   7  14
ENDBRANCH   1   7
BRANCH   5  16
ATOM     16  O   UNL     1      46.110   5.674  13.494  0.00  0.00    +0.000 OA
BRANCH  16  17
ATOM     17  C   UNL     1      47.101   6.537  13.036  0.00  0.00    +0.000 A 
ATOM     18  C   UNL     1      46.682   7.783  12.592  0.00  0.00    +0.000 A 
ATOM     19  C   UNL     1      47.648   8.680  12.142  0.00  0.00    +0.000 A 
ATOM     20  C   UNL     1      48.986   8.299  12.145  0.00  0.00    +0.000 A 
ATOM     21  C   UNL     1      49.306   7.026  12.584  0.00  0.00    +0.000 A 
ATOM     22  N   UNL     1      48.392   6.135  13.018  0.00  0.00    +0.000 NA
ENDBRANCH  16  17
ENDBRANCH   5  16
TORSDOF 4
ENDMDL
MODEL 5
REMARK VINA RESULT:    -6.400      2.205      2.868
REMARK INTER + INTRA:          -8.390
REMARK INTER:                  -7.826
REMARK INTRA:                  -0.564
REMARK UNBOUND:                -0.680
REMARK  Name = 
REMARK  4 active torsions:
REMARK  status: ('A' for Active; 'I' for Inactive)
REMARK    1  A    between atoms: O_1  and  C_2
REMARK    2  A    between atoms: C_2  and  C_3
REMARK    3  A    between atoms: C_7  and  O_8
REMARK    4  A    between atoms: O_8  and  C_9
REMARK                            x       y       z     vdW  Elec       q    Type
REMARK                         _______ _______ _______ _____ _____    ______ ____
ROOT
ATOM      1  C   UNL     1      46.183   7.166  12.537  0.00  0.00    +0.000 A 
ATOM      2  C   UNL     1      46.711   6.289  13.504  0.00  0.00    +0.000 A 
ATOM      3  C   UNL     1      46.511   4.910  13.425  0.00  0.00    +0.000 A 
ATOM      4  C   UNL     1      45.761   4.378  12.381  0.00  0.00    +0.000 A 
ATOM      5  C   UNL     1      45.165   5.229  11.450  0.00  0.00    +0.000 A 
ATOM      6  C   UNL     1      45.394   6.609  11.513  0.00  0.00    +0.000 A 
ENDROOT
BRANCH   1   7
ATOM      7  C   UNL     1      46.462   8.672  12.635  0.00  0.00    +0.000 C 
ATOM      8  C   UNL     1      45.376   9.487  11.901  0.00  0.00    +0.000 C 
ATOM      9  C   UNL     1      45.728  10.971  11.832  0.00  0.00    +0.000 C 
ATOM     10  N   UNL     1      47.038  11.173  11.213  0.00  0.00    +0.000 NA
ATOM     11  C   UNL     1      48.084  10.517  12.003  0.00  0.00    +0.000 C 
ATOM     12  C   UNL     1      47.856   9.008  12.075  0.00  0.00    +0.000 C 
ATOM     13  H   UNL     1      47.235  12.174  11.173  0.00  0.00    +0.000 HD
BRANCH   7  14
ATOM     14  O   UNL     1      46.448   9.086  14.012  0.00  0.00    +0.000 OA
ATOM     15  H   UNL     1      45.543   8.939  14.341  0.00  0.00    +0.000 HD
ENDBRANCH   7  14
ENDBRANCH   1   7
BRANCH   5  16
ATOM     16  O   UNL     1      44.401   4.768  10.399  0.00  0.00    +0.000 OA
BRANCH  16  17
ATOM     17  C   UNL     1      45.007   3.907   9.489  0.00  0.00    +0.000 A 
ATOM     18  C   UNL     1      45.727   4.498   8.461  0.00  0.00    +0.000 A 
ATOM     19  C   UNL     1      46.362   3.668   7.540  0.00  0.00    +0.000 A 
ATOM     20  C   UNL     1      46.249   2.288   7.676  0.00  0.00    +0.000 A 
ATOM     21  C   UNL     1      45.489   1.790   8.721  0.00  0.00    +0.000 A 
ATOM     22  N   UNL     1      44.858   2.569   9.621  0.00  0.00    +0.000 NA
ENDBRANCH  16  17
ENDBRANCH   5  16
TORSDOF 4
ENDMDL
MODEL 6
REMARK VINA RESULT:    -6.271      1.754      2.520
REMARK INTER + INTRA:          -8.234
REMARK INTER:                  -7.725
REMARK INTRA:                  -0.509
REMARK UNBOUND:                -0.680
REMARK  Name = 
REMARK  4 active torsions:
REMARK  status: ('A' for Active; 'I' for Inactive)
REMARK    1  A    between atoms: O_1  and  C_2
REMARK    2  A    between atoms: C_2  and  C_3
REMARK    3  A    between atoms: C_7  and  O_8
REMARK    4  A    between atoms: O_8  and  C_9
REMARK                            x       y       z     vdW  Elec       q    Type
REMARK                         _______ _______ _______ _____ _____    ______ ____
ROOT
ATOM      1  C   UNL     1      47.419   6.342  12.952  0.00  0.00    +0.000 A 
ATOM      2  C   UNL     1      47.254   5.446  14.026  0.00  0.00    +0.000 A 
ATOM      3  C   UNL     1      46.306   4.424  13.984  0.00  0.00    +0.000 A 
ATOM      4  C   UNL     1      45.487   4.284  12.868  0.00  0.00    +0.000 A 
ATOM      5  C   UNL     1      45.578   5.201  11.820  0.00  0.00    +0.000 A 
ATOM      6  C   UNL     1      46.552   6.206  11.851  0.00  0.00    +0.000 A 
ENDROOT
BRANCH   1   7
ATOM      7  C   UNL     1      48.503   7.426  13.018  0.00  0.00    +0.000 C 
ATOM      8  C   UNL     1      48.063   8.596  13.925  0.00  0.00    +0.000 C 
ATOM      9  C   UNL     1      49.046   9.763  13.863  0.00  0.00    +0.000 C 
ATOM     10  N   UNL     1      49.240  10.216  12.486  0.00  0.00    +0.000 NA
ATOM     11  C   UNL     1      49.798   9.137  11.666  0.00  0.00    +0.000 C 
ATOM     12  C   UNL     1      48.851   7.940  11.609  0.00  0.00    +0.000 C 
ATOM     13  H   UNL     1      49.891  11.002  12.484  0.00  0.00    +0.000 HD
BRANCH   7  14
ATOM     14  O   UNL     1      49.709   6.882  13.580  0.00  0.00    +0.000 OA
ATOM     15  H   UNL     1      49.546   5.934  13.734  0.00  0.00    +0.000 HD
ENDBRANCH   7  14
ENDBRANCH   1   7
BRANCH   5  16
ATOM     16  O   UNL     1      44.791   5.125  10.692  0.00  0.00    +0.000 OA
BRANCH  16  17
ATOM     17  C   UNL     1      45.249   4.344   9.635  0.00  0.00    +0.000 A 
ATOM     18  C   UNL     1      44.982   2.985   9.708  0.00  0.00    +0.000 A 
ATOM     19  C   UNL     1      45.411   2.174   8.659  0.00  0.00    +0.000 A 
ATOM     20  C   UNL     1      46.090   2.746   7.589  0.00  0.00    +0.000 A 
ATOM     21  C   UNL     1      46.331   4.109   7.616  0.00  0.00    +0.000 A 
ATOM     22  N   UNL     1      45.935   4.916   8.620  0.00  0.00    +0.000 NA
ENDBRANCH  16  17
ENDBRANCH   5  16
TORSDOF 4
ENDMDL
MODEL 7
REMARK VINA RESULT:    -6.203      2.277      6.802
REMARK INTER + INTRA:          -8.152
REMARK INTER:                  -7.641
REMARK INTRA:                  -0.511
REMARK UNBOUND:                -0.680
REMARK  Name = 
REMARK  4 active torsions:
REMARK  status: ('A' for Active; 'I' for Inactive)
REMARK    1  A    between atoms: O_1  and  C_2
REMARK    2  A    between atoms: C_2  and  C_3
REMARK    3  A    between atoms: C_7  and  O_8
REMARK    4  A    between atoms: O_8  and  C_9
REMARK                            x       y       z     vdW  Elec       q    Type
REMARK                         _______ _______ _______ _____ _____    ______ ____
ROOT
ATOM      1  C   UNL     1      45.367   6.124  11.960  0.00  0.00    +0.000 A 
ATOM      2  C   UNL     1      45.049   7.496  11.953  0.00  0.00    +0.000 A 
ATOM      3  C   UNL     1      45.864   8.437  12.583  0.00  0.00    +0.000 A 
ATOM      4  C   UNL     1      47.013   8.022  13.250  0.00  0.00    +0.000 A 
ATOM      5  C   UNL     1      47.314   6.663  13.336  0.00  0.00    +0.000 A 
ATOM      6  C   UNL     1      46.512   5.724  12.676  0.00  0.00    +0.000 A 
ENDROOT
BRANCH   1   7
ATOM      7  C   UNL     1      44.469   5.125  11.218  0.00  0.00    +0.000 C 
ATOM      8  C   UNL     1      44.025   3.979  12.152  0.00  0.00    +0.000 C 
ATOM      9  C   UNL     1      43.280   2.884  11.392  0.00  0.00    +0.000 C 
ATOM     10  N   UNL     1      44.085   2.371  10.283  0.00  0.00    +0.000 NA
ATOM     11  C   UNL     1      44.377   3.441   9.325  0.00  0.00    +0.000 C 
ATOM     12  C   UNL     1      45.183   4.562   9.977  0.00  0.00    +0.000 C 
ATOM     13  H   UNL     1      43.563   1.635   9.807  0.00  0.00    +0.000 HD
BRANCH   7  14
ATOM     14  O   UNL     1      43.277   5.785  10.758  0.00  0.00    +0.000 OA
ATOM     15  H   UNL     1      42.635   5.086  10.538  0.00  0.00    +0.000 HD
ENDBRANCH   7  14
ENDBRANCH   1   7
BRANCH   5  16
ATOM     16  O   UNL     1      48.429   6.185  13.990  0.00  0.00    +0.000 OA
BRANCH  16  17
ATOM     17  C   UNL     1      48.284   5.808  15.322  0.00  0.00    +0.000 A 
ATOM     18  C   UNL     1      48.793   6.681  16.272  0.00  0.00    +0.000 A 
ATOM     19  C   UNL     1      48.652   6.345  17.617  0.00  0.00    +0.000 A 
ATOM     20  C   UNL     1      48.019   5.154  17.959  0.00  0.00    +0.000 A 
ATOM     21  C   UNL     1      47.565   4.335  16.939  0.00  0.00    +0.000 A 
ATOM     22  N   UNL     1      47.695   4.631  15.631  0.00  0.00    +0.000 NA
ENDBRANCH  16  17
ENDBRANCH   5  16
TORSDOF 4
ENDMDL
MODEL 8
REMARK VINA RESULT:    -6.083      3.192      7.019
REMARK INTER + INTRA:          -8.007
REMARK INTER:                  -7.531
REMARK INTRA:                  -0.477
REMARK UNBOUND:                -0.680
REMARK  Name = 
REMARK  4 active torsions:
REMARK  status: ('A' for Active; 'I' for Inactive)
REMARK    1  A    between atoms: O_1  and  C_2
REMARK    2  A    between atoms: C_2  and  C_3
REMARK    3  A    between atoms: C_7  and  O_8
REMARK    4  A    between atoms: O_8  and  C_9
REMARK                            x       y       z     vdW  Elec       q    Type
REMARK                         _______ _______ _______ _____ _____    ______ ____
ROOT
ATOM      1  C   UNL     1      46.395   5.450  12.907  0.00  0.00    +0.000 A 
ATOM      2  C   UNL     1      47.361   6.407  12.537  0.00  0.00    +0.000 A 
ATOM      3  C   UNL     1      48.381   6.788  13.409  0.00  0.00    +0.000 A 
ATOM      4  C   UNL     1      48.447   6.231  14.682  0.00  0.00    +0.000 A 
ATOM      5  C   UNL     1      47.462   5.337  15.102  0.00  0.00    +0.000 A 
ATOM      6  C   UNL     1      46.459   4.931  14.214  0.00  0.00    +0.000 A 
ENDROOT
BRANCH   1   7
ATOM      7  C   UNL     1      45.315   5.024  11.903  0.00  0.00    +0.000 C 
ATOM      8  C   UNL     1      43.939   5.609  12.287  0.00  0.00    +0.000 C 
ATOM      9  C   UNL     1      42.821   5.054  11.407  0.00  0.00    +0.000 C 
ATOM     10  N   UNL     1      42.795   3.592  11.447  0.00  0.00    +0.000 NA
ATOM     11  C   UNL     1      44.057   3.045  10.940  0.00  0.00    +0.000 C 
ATOM     12  C   UNL     1      45.237   3.491  11.799  0.00  0.00    +0.000 C 
ATOM     13  H   UNL     1      42.031   3.258  10.859  0.00  0.00    +0.000 HD
BRANCH   7  14
ATOM     14  O   UNL     1      45.638   5.522  10.593  0.00  0.00    +0.000 OA
ATOM     15  H   UNL     1      45.196   4.937   9.952  0.00  0.00    +0.000 HD
ENDBRANCH   7  14
ENDBRANCH   1   7
BRANCH   5  16
ATOM     16  O   UNL     1      47.464   4.758  16.352  0.00  0.00    +0.000 OA
BRANCH  16  17
ATOM     17  C   UNL     1      48.558   3.971  16.699  0.00  0.00    +0.000 A 
ATOM     18  C   UNL     1      49.550   4.584  17.451  0.00  0.00    +0.000 A 
ATOM     19  C   UNL     1      50.653   3.822  17.831  0.00  0.00    +0.000 A 
ATOM     20  C   UNL     1      50.726   2.488  17.443  0.00  0.00    +0.000 A 
ATOM     21  C   UNL     1      49.699   1.970  16.673  0.00  0.00    +0.000 A 
ATOM     22  N   UNL     1      48.624   2.685  16.284  0.00  0.00    +0.000 NA
ENDBRANCH  16  17
ENDBRANCH   5  16
TORSDOF 4
ENDMDL
MODEL 9
REMARK VINA RESULT:    -5.757      1.912      6.316
REMARK INTER + INTRA:          -7.615
REMARK INTER:                  -7.098
REMARK INTRA:                  -0.517
REMARK UNBOUND:                -0.680
REMARK  Name = 
REMARK  4 active torsions:
REMARK  status: ('A' for Active; 'I' for Inactive)
REMARK    1  A    between atoms: O_1  and  C_2
REMARK    2  A    between atoms: C_2  and  C_3
REMARK    3  A    between atoms: C_7  and  O_8
REMARK    4  A    between atoms: O_8  and  C_9
REMARK                            x       y       z     vdW  Elec       q    Type
REMARK                         _______ _______ _______ _____ _____    ______ ____
ROOT
ATOM      1  C   UNL     1      45.255   6.133  11.444  0.00  0.00    +0.000 A 
ATOM      2  C   UNL     1      44.668   7.413  11.482  0.00  0.00    +0.000 A 
ATOM      3  C   UNL     1      45.265   8.468  12.175  0.00  0.00    +0.000 A 
ATOM      4  C   UNL     1      46.457   8.259  12.861  0.00  0.00    +0.000 A 
ATOM      5  C   UNL     1      47.022   6.985  12.901  0.00  0.00    +0.000 A 
ATOM      6  C   UNL     1      46.439   5.936  12.179  0.00  0.00    +0.000 A 
ENDROOT
BRANCH   1   7
ATOM      7  C   UNL     1      44.591   5.010  10.635  0.00  0.00    +0.000 C 
ATOM      8  C   UNL     1      44.446   3.728  11.481  0.00  0.00    +0.000 C 
ATOM      9  C   UNL     1      43.954   2.548  10.644  0.00  0.00    +0.000 C 
ATOM     10  N   UNL     1      44.828   2.318   9.494  0.00  0.00    +0.000 NA
ATOM     11  C   UNL     1      44.841   3.493   8.619  0.00  0.00    +0.000 C 
ATOM     12  C   UNL     1      45.385   4.719   9.349  0.00  0.00    +0.000 C 
ATOM     13  H   UNL     1      44.476   1.518   8.966  0.00  0.00    +0.000 HD
BRANCH   7  14
ATOM     14  O   UNL     1      43.268   5.409  10.235  0.00  0.00    +0.000 OA
ATOM     15  H   UNL     1      42.709   5.370  11.032  0.00  0.00    +0.000 HD
ENDBRANCH   7  14
ENDBRANCH   1   7
BRANCH   5  16
ATOM     16  O   UNL     1      48.194   6.708  13.571  0.00  0.00    +0.000 OA
BRANCH  16  17
ATOM     17  C   UNL     1      49.350   7.355  13.143  0.00  0.00    +0.000 A 
ATOM     18  C   UNL     1      50.136   7.935  14.128  0.00  0.00    +0.000 A 
ATOM     19  C   UNL     1      51.311   8.576  13.740  0.00  0.00    +0.000 A 
ATOM     20  C   UNL     1      51.649   8.620  12.391  0.00  0.00    +0.000 A 
ATOM     21  C   UNL     1      50.789   8.033  11.478  0.00  0.00    +0.000 A 
ATOM     22  N   UNL     1      49.644   7.413  11.825  0.00  0.00    +0.000 NA
ENDBRANCH  16  17
ENDBRANCH   5  16
TORSDOF 4
ENDMDL
