MODEL 1
REMARK VINA RESULT:    -7.948      0.000      0.000
REMARK INTER + INTRA:         -11.468
REMARK INTER:                 -10.504
REMARK INTRA:                  -0.964
REMARK UNBOUND:                -0.964
REMARK  Name = 
REMARK  6 active torsions:
REMARK  status: ('A' for Active; 'I' for Inactive)
REMARK    1  A    between atoms: C_2  and  C_4
REMARK    2  A    between atoms: C_8  and  C_9
REMARK    3  A    between atoms: C_9  and  C_10
REMARK    4  A    between atoms: C_10  and  C_11
REMARK    5  A    between atoms: C_16  and  N_17
REMARK    6  A    between atoms: C_21  and  N_22
REMARK                            x       y       z     vdW  Elec       q    Type
REMARK                         _______ _______ _______ _____ _____    ______ ____
ROOT
ATOM      1  C   UNL     1      44.882   4.591  12.102  0.00  0.00    +0.000 A 
ATOM      2  C   UNL     1      45.571   3.635  12.851  0.00  0.00    +0.000 A 
ATOM      3  C   UNL     1      46.662   4.016  13.626  0.00  0.00    +0.000 A 
ATOM      4  F   UNL     1      47.332   3.085  14.317  0.00  0.00    +0.000 F 
ATOM      5  C   UNL     1      47.098   5.340  13.661  0.00  0.00    +0.000 A 
ATOM      6  C   UNL     1      46.441   6.326  12.921  0.00  0.00    +0.000 A 
ATOM      7  C   UNL     1      45.307   5.926  12.189  0.00  0.00    +0.000 A 
ENDROOT
BRANCH   6   8
ATOM      8  N   UNL     1      46.932   7.615  12.833  0.00  0.00    +0.000 N 
ATOM      9  C   UNL     1      46.072   8.759  13.134  0.00  0.00    +0.000 C 
ATOM     10  C   UNL     1      46.260   9.811  12.045  0.00  0.00    +0.000 C 
ATOM     11  C   UNL     1      47.727  10.214  11.914  0.00  0.00    +0.000 C 
ATOM     12  C   UNL     1      48.624   8.986  11.675  0.00  0.00    +0.000 C 
ATOM     13  C   UNL     1      48.370   7.895  12.748  0.00  0.00    +0.000 C 
BRANCH  12  14
ATOM     14  N   UNL     1      50.031   9.411  11.631  0.00  0.00    +0.000 NA
ATOM     15  H   UNL     1      50.081  10.427  11.554  0.00  0.00    +0.000 HD
ATOM     16  H   UNL     1      50.461   9.048  10.779  0.00  0.00    +0.000 HD
ENDBRANCH  12  14
ENDBRANCH   6   8
BRANCH   1  17
ATOM     17  C   UNL     1      43.713   4.169  11.240  0.00  0.00    +0.000 C 
BRANCH  17  18
ATOM     18  C   UNL     1      43.916   2.859  10.456  0.00  0.00    +0.000 C 
BRANCH  18  23
ATOM     19  C   UNL     1      46.452   2.020   7.739  0.00  0.00    +0.000 A 
ATOM     20  C   UNL     1      46.735   3.288   7.218  0.00  0.00    +0.000 A 
ATOM     21  C   UNL     1      46.130   4.420   7.772  0.00  0.00    +0.000 A 
ATOM     22  C   UNL     1      45.234   4.287   8.834  0.00  0.00    +0.000 A 
ATOM     23  C   UNL     1      44.932   3.022   9.353  0.00  0.00    +0.000 A 
ATOM     24  C   UNL     1      45.549   1.892   8.802  0.00  0.00    +0.000 A 
BRANCH  19  26
ATOM     25  N   UNL     1      47.763   0.905   6.012  0.00  0.00    +0.000 N 
ATOM     26  C   UNL     1      47.041   0.783   7.168  0.00  0.00    +0.000 C 
ATOM     27  O   UNL     1      46.929  -0.306   7.726  0.00  0.00    +0.000 OA
ATOM     28  H   UNL     1      48.241   0.070   5.697  0.00  0.00    +0.000 HD
ATOM     29  H   UNL     1      48.100   1.794   5.678  0.00  0.00    +0.000 HD
ENDBRANCH  19  26
ENDBRANCH  18  23
ENDBRANCH  17  18
ENDBRANCH   1  17
TORSDOF 6
ENDMDL
MODEL 2
REMARK VINA RESULT:    -7.711      2.798      4.385
REMARK INTER + INTRA:         -11.155
REMARK INTER:                 -10.187
REMARK INTRA:                  -0.968
REMARK UNBOUND:                -0.964
REMARK  Name = 
REMARK  6 active torsions:
REMARK  status: ('A' for Active; 'I' for Inactive)
REMARK    1  A    between atoms: C_2  and  C_4
REMARK    2  A    between atoms: C_8  and  C_9
REMARK    3  A    between atoms: C_9  and  C_10
REMARK    4  A    between atoms: C_10  and  C_11
REMARK    5  A    between atoms: C_16  and  N_17
REMARK    6  A    between atoms: C_21  and  N_22
REMARK                            x       y       z     vdW  Elec       q    Type
REMARK                         _______ _______ _______ _____ _____    ______ ____
ROOT
ATOM      1  C   UNL     1      46.219   5.832  12.118  0.00  0.00    +0.000 A 
ATOM      2  C   UNL     1      47.081   6.765  11.537  0.00  0.00    +0.000 A 
ATOM      3  C   UNL     1      48.211   7.187  12.228  0.00  0.00    +0.000 A 
ATOM      4  F   UNL     1      49.014   8.105  11.673  0.00  0.00    +0.000 F 
ATOM      5  C   UNL     1      48.501   6.708  13.505  0.00  0.00    +0.000 A 
ATOM      6  C   UNL     1      47.661   5.779  14.124  0.00  0.00    +0.000 A 
ATOM      7  C   UNL     1      46.554   5.325  13.383  0.00  0.00    +0.000 A 
ENDROOT
BRANCH   6   8
ATOM      8  N   UNL     1      47.852   5.391  15.437  0.00  0.00    +0.000 N 
ATOM      9  C   UNL     1      48.816   6.091  16.286  0.00  0.00    +0.000 C 
ATOM     10  C   UNL     1      49.649   5.056  17.035  0.00  0.00    +0.000 C 
ATOM     11  C   UNL     1      48.761   4.107  17.836  0.00  0.00    +0.000 C 
ATOM     12  C   UNL     1      47.704   3.439  16.938  0.00  0.00    +0.000 C 
ATOM     13  C   UNL     1      46.914   4.500  16.129  0.00  0.00    +0.000 C 
BRANCH  12  14
ATOM     14  N   UNL     1      46.827   2.595  17.763  0.00  0.00    +0.000 NA
ATOM     15  H   UNL     1      47.216   2.511  18.702  0.00  0.00    +0.000 HD
ATOM     16  H   UNL     1      46.821   1.649  17.380  0.00  0.00    +0.000 HD
ENDBRANCH  12  14
ENDBRANCH   6   8
BRANCH   1  17
ATOM     17  C   UNL     1      44.976   5.395  11.375  0.00  0.00    +0.000 C 
BRANCH  17  18
ATOM     18  C   UNL     1      45.067   5.476   9.840  0.00  0.00    +0.000 C 
BRANCH  18  23
ATOM     19  C   UNL     1      46.441   2.691   7.634  0.00  0.00    +0.000 A 
ATOM     20  C   UNL     1      45.758   1.576   8.131  0.00  0.00    +0.000 A 
ATOM     21  C   UNL     1      44.823   1.733   9.159  0.00  0.00    +0.000 A 
ATOM     22  C   UNL     1      44.581   2.997   9.699  0.00  0.00    +0.000 A 
ATOM     23  C   UNL     1      45.272   4.117   9.220  0.00  0.00    +0.000 A 
ATOM     24  C   UNL     1      46.198   3.956   8.182  0.00  0.00    +0.000 A 
BRANCH  19  26
ATOM     25  N   UNL     1      47.218   3.219   5.384  0.00  0.00    +0.000 N 
ATOM     26  C   UNL     1      47.467   2.577   6.566  0.00  0.00    +0.000 C 
ATOM     27  O   UNL     1      48.520   1.970   6.741  0.00  0.00    +0.000 OA
ATOM     28  H   UNL     1      47.973   3.214   4.709  0.00  0.00    +0.000 HD
ATOM     29  H   UNL     1      46.513   3.933   5.296  0.00  0.00    +0.000 HD
ENDBRANCH  19  26
ENDBRANCH  18  23
ENDBRANCH  17  18
ENDBRANCH   1  17
TORSDOF 6
ENDMDL
MODEL 3
REMARK VINA RESULT:    -7.467      3.042      7.065
REMARK INTER + INTRA:         -10.832
REMARK INTER:                  -9.857
REMARK INTRA:                  -0.975
REMARK UNBOUND:                -0.964
REMARK  Name = 
REMARK  6 active torsions:
REMARK  status: ('A' for Active; 'I' for Inactive)
REMARK    1  A    between atoms: C_2  and  C_4
REMARK    2  A    between atoms: C_8  and  C_9
REMARK    3  A    between atoms: C_9  and  C_10
REMARK    4  A    between atoms: C_10  and  C_11
REMARK    5  A    between atoms: C_16  and  N_17
REMARK    6  A    between atoms: C_21  and  N_22
REMARK                            x       y       z     vdW  Elec       q    Type
REMARK                         _______ _______ _______ _____ _____    ______ ____
ROOT
ATOM      1  C   UNL     1      45.532   6.530  12.006  0.00  0.00    +0.000 A 
ATOM      2  C   UNL     1      44.454   6.269  12.854  0.00  0.00    +0.000 A 
ATOM      3  C   UNL     1      43.628   5.178  12.610  0.00  0.00    +0.000 A 
ATOM      4  F   UNL     1      42.579   4.956  13.414  0.00  0.00    +0.000 F 
ATOM      5  C   UNL     1      43.843   4.336  11.519  0.00  0.00    +0.000 A 
ATOM      6  C   UNL     1      44.906   4.565  10.642  0.00  0.00    +0.000 A 
ATOM      7  C   UNL     1      45.761   5.643  10.942  0.00  0.00    +0.000 A 
ENDROOT
BRANCH   6   8
ATOM      8  N   UNL     1      45.061   3.829   9.483  0.00  0.00    +0.000 N 
ATOM      9  C   UNL     1      44.538   2.466   9.393  0.00  0.00    +0.000 C 
ATOM     10  C   UNL     1      45.608   1.573   8.771  0.00  0.00    +0.000 C 
ATOM     11  C   UNL     1      46.053   2.108   7.412  0.00  0.00    +0.000 C 
ATOM     12  C   UNL     1      46.526   3.569   7.515  0.00  0.00    +0.000 C 
ATOM     13  C   UNL     1      45.459   4.451   8.214  0.00  0.00    +0.000 C 
BRANCH  12  14
ATOM     14  N   UNL     1      46.873   4.065   6.175  0.00  0.00    +0.000 NA
ATOM     15  H   UNL     1      46.971   5.079   6.198  0.00  0.00    +0.000 HD
ATOM     16  H   UNL     1      46.096   3.876   5.540  0.00  0.00    +0.000 HD
ENDBRANCH  12  14
ENDBRANCH   6   8
BRANCH   1  17
ATOM     17  C   UNL     1      46.413   7.733  12.259  0.00  0.00    +0.000 C 
BRANCH  17  18
ATOM     18  C   UNL     1      47.895   7.414  12.529  0.00  0.00    +0.000 C 
BRANCH  18  23
ATOM     19  C   UNL     1      47.957   5.139  15.584  0.00  0.00    +0.000 A 
ATOM     20  C   UNL     1      48.614   5.944  16.521  0.00  0.00    +0.000 A 
ATOM     21  C   UNL     1      49.005   7.240  16.173  0.00  0.00    +0.000 A 
ATOM     22  C   UNL     1      48.755   7.727  14.889  0.00  0.00    +0.000 A 
ATOM     23  C   UNL     1      48.112   6.924  13.938  0.00  0.00    +0.000 A 
ATOM     24  C   UNL     1      47.712   5.630  14.295  0.00  0.00    +0.000 A 
BRANCH  19  26
ATOM     25  N   UNL     1      46.880   3.528  17.064  0.00  0.00    +0.000 N 
ATOM     26  C   UNL     1      47.548   3.745  15.890  0.00  0.00    +0.000 C 
ATOM     27  O   UNL     1      47.757   2.821  15.107  0.00  0.00    +0.000 OA
ATOM     28  H   UNL     1      46.522   2.592  17.204  0.00  0.00    +0.000 HD
ATOM     29  H   UNL     1      46.460   4.277  17.592  0.00  0.00    +0.000 HD
ENDBRANCH  19  26
ENDBRANCH  18  23
ENDBRANCH  17  18
ENDBRANCH   1  17
TORSDOF 6
ENDMDL
MODEL 4
REMARK VINA RESULT:    -7.363      2.557      3.951
REMARK INTER + INTRA:         -10.694
REMARK INTER:                  -9.821
REMARK INTRA:                  -0.873
REMARK UNBOUND:                -0.964
REMARK  Name = 
REMARK  6 active torsions:
REMARK  status: ('A' for Active; 'I' for Inactive)
REMARK    1  A    between atoms: C_2  and  C_4
REMARK    2  A    between atoms: C_8  and  C_9
REMARK    3  A    between atoms: C_9  and  C_10
REMARK    4  A    between atoms: C_10  and  C_11
REMARK    5  A    between atoms: C_16  and  N_17
REMARK    6  A    between atoms: C_21  and  N_22
REMARK                            x       y       z     vdW  Elec       q    Type
REMARK                         _______ _______ _______ _____ _____    ______ ____
ROOT
ATOM      1  C   UNL     1      45.229   4.773  12.623  0.00  0.00    +0.000 A 
ATOM      2  C   UNL     1      45.794   5.797  11.860  0.00  0.00    +0.000 A 
ATOM      3  C   UNL     1      46.982   6.392  12.270  0.00  0.00    +0.000 A 
ATOM      4  F   UNL     1      47.498   7.394  11.545  0.00  0.00    +0.000 F 
ATOM      5  C   UNL     1      47.623   5.998  13.444  0.00  0.00    +0.000 A 
ATOM      6  C   UNL     1      47.087   4.982  14.240  0.00  0.00    +0.000 A 
ATOM      7  C   UNL     1      45.915   4.357  13.775  0.00  0.00    +0.000 A 
ENDROOT
BRANCH   6   8
ATOM      8  N   UNL     1      47.628   4.665  15.472  0.00  0.00    +0.000 N 
ATOM      9  C   UNL     1      47.677   3.275  15.926  0.00  0.00    +0.000 C 
ATOM     10  C   UNL     1      47.200   3.217  17.373  0.00  0.00    +0.000 C 
ATOM     11  C   UNL     1      48.025   4.142  18.265  0.00  0.00    +0.000 C 
ATOM     12  C   UNL     1      48.023   5.585  17.726  0.00  0.00    +0.000 C 
ATOM     13  C   UNL     1      48.441   5.620  16.233  0.00  0.00    +0.000 C 
BRANCH  12  14
ATOM     14  N   UNL     1      48.887   6.421  18.571  0.00  0.00    +0.000 NA
ATOM     15  H   UNL     1      49.726   6.683  18.053  0.00  0.00    +0.000 HD
ATOM     16  H   UNL     1      49.214   5.867  19.364  0.00  0.00    +0.000 HD
ENDBRANCH  12  14
ENDBRANCH   6   8
BRANCH   1  17
ATOM     17  C   UNL     1      43.923   4.146  12.188  0.00  0.00    +0.000 C 
BRANCH  17  18
ATOM     18  C   UNL     1      44.057   2.808  11.437  0.00  0.00    +0.000 C 
BRANCH  18  23
ATOM     19  C   UNL     1      45.981   2.147   8.216  0.00  0.00    +0.000 A 
ATOM     20  C   UNL     1      45.642   3.269   7.452  0.00  0.00    +0.000 A 
ATOM     21  C   UNL     1      44.819   4.259   7.995  0.00  0.00    +0.000 A 
ATOM     22  C   UNL     1      44.322   4.124   9.292  0.00  0.00    +0.000 A 
ATOM     23  C   UNL     1      44.641   2.997  10.060  0.00  0.00    +0.000 A 
ATOM     24  C   UNL     1      45.476   2.013   9.516  0.00  0.00    +0.000 A 
BRANCH  19  26
ATOM     25  N   UNL     1      47.883   1.403   6.885  0.00  0.00    +0.000 N 
ATOM     26  C   UNL     1      46.825   1.050   7.678  0.00  0.00    +0.000 C 
ATOM     27  O   UNL     1      46.619  -0.127   7.962  0.00  0.00    +0.000 OA
ATOM     28  H   UNL     1      48.504   0.650   6.614  0.00  0.00    +0.000 HD
ATOM     29  H   UNL     1      48.241   2.344   6.850  0.00  0.00    +0.000 HD
ENDBRANCH  19  26
ENDBRANCH  18  23
ENDBRANCH  17  18
ENDBRANCH   1  17
TORSDOF 6
ENDMDL
MODEL 5
REMARK VINA RESULT:    -7.274      1.911      2.529
REMARK INTER + INTRA:         -10.576
REMARK INTER:                  -9.758
REMARK INTRA:                  -0.818
REMARK UNBOUND:                -0.964
REMARK  Name = 
REMARK  6 active torsions:
REMARK  status: ('A' for Active; 'I' for Inactive)
REMARK    1  A    between atoms: C_2  and  C_4
REMARK    2  A    between atoms: C_8  and  C_9
REMARK    3  A    between atoms: C_9  and  C_10
REMARK    4  A    between atoms: C_10  and  C_11
REMARK    5  A    between atoms: C_16  and  N_17
REMARK    6  A    between atoms: C_21  and  N_22
REMARK                            x       y       z     vdW  Elec       q    Type
REMARK                         _______ _______ _______ _____ _____    ______ ____
ROOT
ATOM      1  C   UNL     1      45.066   4.820  11.899  0.00  0.00    +0.000 A 
ATOM      2  C   UNL     1      44.283   5.922  11.547  0.00  0.00    +0.000 A 
ATOM      3  C   UNL     1      44.769   7.209  11.746  0.00  0.00    +0.000 A 
ATOM      4  F   UNL     1      43.997   8.258  11.432  0.00  0.00    +0.000 F 
ATOM      5  C   UNL     1      46.027   7.430  12.308  0.00  0.00    +0.000 A 
ATOM      6  C   UNL     1      46.838   6.356  12.680  0.00  0.00    +0.000 A 
ATOM      7  C   UNL     1      46.347   5.063  12.417  0.00  0.00    +0.000 A 
ENDROOT
BRANCH   6   8
ATOM      8  N   UNL     1      48.027   6.546  13.359  0.00  0.00    +0.000 N 
ATOM      9  C   UNL     1      48.158   6.133  14.756  0.00  0.00    +0.000 C 
ATOM     10  C   UNL     1      48.831   7.258  15.537  0.00  0.00    +0.000 C 
ATOM     11  C   UNL     1      50.177   7.631  14.919  0.00  0.00    +0.000 C 
ATOM     12  C   UNL     1      50.028   7.988  13.429  0.00  0.00    +0.000 C 
ATOM     13  C   UNL     1      49.278   6.867  12.663  0.00  0.00    +0.000 C 
BRANCH  12  14
ATOM     14  N   UNL     1      51.354   8.266  12.860  0.00  0.00    +0.000 NA
ATOM     15  H   UNL     1      51.300   8.260  11.841  0.00  0.00    +0.000 HD
ATOM     16  H   UNL     1      51.988   7.506  13.108  0.00  0.00    +0.000 HD
ENDBRANCH  12  14
ENDBRANCH   6   8
BRANCH   1  17
ATOM     17  C   UNL     1      44.523   3.421  11.706  0.00  0.00    +0.000 C 
BRANCH  17  18
ATOM     18  C   UNL     1      43.922   3.138  10.317  0.00  0.00    +0.000 C 
BRANCH  18  23
ATOM     19  C   UNL     1      46.424   1.915   7.718  0.00  0.00    +0.000 A 
ATOM     20  C   UNL     1      46.855   3.122   7.154  0.00  0.00    +0.000 A 
ATOM     21  C   UNL     1      46.362   4.335   7.642  0.00  0.00    +0.000 A 
ATOM     22  C   UNL     1      45.429   4.345   8.681  0.00  0.00    +0.000 A 
ATOM     23  C   UNL     1      44.978   3.143   9.241  0.00  0.00    +0.000 A 
ATOM     24  C   UNL     1      45.484   1.930   8.756  0.00  0.00    +0.000 A 
BRANCH  19  26
ATOM     25  N   UNL     1      47.332   0.539   5.922  0.00  0.00    +0.000 N 
ATOM     26  C   UNL     1      46.891   0.598   7.216  0.00  0.00    +0.000 C 
ATOM     27  O   UNL     1      46.927  -0.395   7.938  0.00  0.00    +0.000 OA
ATOM     28  H   UNL     1      47.741  -0.342   5.634  0.00  0.00    +0.000 HD
ATOM     29  H   UNL     1      47.569   1.363   5.395  0.00  0.00    +0.000 HD
ENDBRANCH  19  26
ENDBRANCH  18  23
ENDBRANCH  17  18
ENDBRANCH   1  17
TORSDOF 6
ENDMDL
MODEL 6
REMARK VINA RESULT:    -7.134      3.350      5.478
REMARK INTER + INTRA:         -10.392
REMARK INTER:                  -9.373
REMARK INTRA:                  -1.019
REMARK UNBOUND:                -0.964
REMARK  Name = 
REMARK  6 active torsions:
REMARK  status: ('A' for Active; 'I' for Inactive)
REMARK    1  A    between atoms: C_2  and  C_4
REMARK    2  A    between atoms: C_8  and  C_9
REMARK    3  A    between atoms: C_9  and  C_10
REMARK    4  A    between atoms: C_10  and  C_11
REMARK    5  A    between atoms: C_16  and  N_17
REMARK    6  A    between atoms: C_21  and  N_22
REMARK                            x       y       z     vdW  Elec       q    Type
REMARK                         _______ _______ _______ _____ _____    ______ ____
ROOT
ATOM      1  C   UNL     1      48.030   6.905  12.882  0.00  0.00    +0.000 A 
ATOM      2  C   UNL     1      49.114   7.776  12.757  0.00  0.00    +0.000 A 
ATOM      3  C   UNL     1      50.015   7.917  13.807  0.00  0.00    +0.000 A 
ATOM      4  F   UNL     1      51.034   8.779  13.685  0.00  0.00    +0.000 F 
ATOM      5  C   UNL     1      49.852   7.215  15.000  0.00  0.00    +0.000 A 
ATOM      6  C   UNL     1      48.778   6.338  15.169  0.00  0.00    +0.000 A 
ATOM      7  C   UNL     1      47.912   6.170  14.072  0.00  0.00    +0.000 A 
ENDROOT
BRANCH   6   8
ATOM      8  N   UNL     1      48.519   5.734  16.385  0.00  0.00    +0.000 N 
ATOM      9  C   UNL     1      49.184   6.200  17.602  0.00  0.00    +0.000 C 
ATOM     10  C   UNL     1      49.690   4.987  18.377  0.00  0.00    +0.000 C 
ATOM     11  C   UNL     1      48.554   4.012  18.680  0.00  0.00    +0.000 C 
ATOM     12  C   UNL     1      47.818   3.595  17.393  0.00  0.00    +0.000 C 
ATOM     13  C   UNL     1      47.374   4.838  16.580  0.00  0.00    +0.000 C 
BRANCH  12  14
ATOM     14  N   UNL     1      46.690   2.718  17.741  0.00  0.00    +0.000 NA
ATOM     15  H   UNL     1      46.946   1.745  17.573  0.00  0.00    +0.000 HD
ATOM     16  H   UNL     1      45.913   2.912  17.109  0.00  0.00    +0.000 HD
ENDBRANCH  12  14
ENDBRANCH   6   8
BRANCH   1  17
ATOM     17  C   UNL     1      47.038   6.772  11.748  0.00  0.00    +0.000 C 
BRANCH  17  18
ATOM     18  C   UNL     1      45.557   6.822  12.165  0.00  0.00    +0.000 C 
BRANCH  18  23
ATOM     19  C   UNL     1      44.460   3.587  10.477  0.00  0.00    +0.000 A 
ATOM     20  C   UNL     1      43.680   2.998  11.479  0.00  0.00    +0.000 A 
ATOM     21  C   UNL     1      43.480   3.667  12.690  0.00  0.00    +0.000 A 
ATOM     22  C   UNL     1      44.068   4.915  12.907  0.00  0.00    +0.000 A 
ATOM     23  C   UNL     1      44.863   5.506  11.917  0.00  0.00    +0.000 A 
ATOM     24  C   UNL     1      45.051   4.837  10.701  0.00  0.00    +0.000 A 
BRANCH  19  26
ATOM     25  N   UNL     1      44.329   3.544   8.043  0.00  0.00    +0.000 N 
ATOM     26  C   UNL     1      44.731   2.907   9.186  0.00  0.00    +0.000 C 
ATOM     27  O   UNL     1      45.331   1.837   9.130  0.00  0.00    +0.000 OA
ATOM     28  H   UNL     1      44.615   3.113   7.172  0.00  0.00    +0.000 HD
ATOM     29  H   UNL     1      44.086   4.521   8.027  0.00  0.00    +0.000 HD
ENDBRANCH  19  26
ENDBRANCH  18  23
ENDBRANCH  17  18
ENDBRANCH   1  17
TORSDOF 6
ENDMDL
MODEL 7
REMARK VINA RESULT:    -7.056      3.615      7.635
REMARK INTER + INTRA:         -10.288
REMARK INTER:                  -9.188
REMARK INTRA:                  -1.100
REMARK UNBOUND:                -0.964
REMARK  Name = 
REMARK  6 active torsions:
REMARK  status: ('A' for Active; 'I' for Inactive)
REMARK    1  A    between atoms: C_2  and  C_4
REMARK    2  A    between atoms: C_8  and  C_9
REMARK    3  A    between atoms: C_9  and  C_10
REMARK    4  A    between atoms: C_10  and  C_11
REMARK    5  A    between atoms: C_16  and  N_17
REMARK    6  A    between atoms: C_21  and  N_22
REMARK                            x       y       z     vdW  Elec       q    Type
REMARK                         _______ _______ _______ _____ _____    ______ ____
ROOT
ATOM      1  C   UNL     1      45.879   6.274  12.213  0.00  0.00    +0.000 A 
ATOM      2  C   UNL     1      44.691   6.217  12.945  0.00  0.00    +0.000 A 
ATOM      3  C   UNL     1      43.686   5.335  12.567  0.00  0.00    +0.000 A 
ATOM      4  F   UNL     1      42.539   5.311  13.259  0.00  0.00    +0.000 F 
ATOM      5  C   UNL     1      43.829   4.507  11.454  0.00  0.00    +0.000 A 
ATOM      6  C   UNL     1      44.999   4.537  10.691  0.00  0.00    +0.000 A 
ATOM      7  C   UNL     1      46.024   5.398  11.126  0.00  0.00    +0.000 A 
ENDROOT
BRANCH   6   8
ATOM      8  N   UNL     1      45.113   3.827   9.510  0.00  0.00    +0.000 N 
ATOM      9  C   UNL     1      44.551   2.482   9.395  0.00  0.00    +0.000 C 
ATOM     10  C   UNL     1      45.584   1.576   8.732  0.00  0.00    +0.000 C 
ATOM     11  C   UNL     1      46.020   2.134   7.379  0.00  0.00    +0.000 C 
ATOM     12  C   UNL     1      46.536   3.579   7.510  0.00  0.00    +0.000 C 
ATOM     13  C   UNL     1      45.506   4.470   8.251  0.00  0.00    +0.000 C 
BRANCH  12  14
ATOM     14  N   UNL     1      46.873   4.099   6.177  0.00  0.00    +0.000 NA
ATOM     15  H   UNL     1      47.577   4.831   6.261  0.00  0.00    +0.000 HD
ATOM     16  H   UNL     1      46.049   4.551   5.779  0.00  0.00    +0.000 HD
ENDBRANCH  12  14
ENDBRANCH   6   8
BRANCH   1  17
ATOM     17  C   UNL     1      46.961   7.253  12.612  0.00  0.00    +0.000 C 
BRANCH  17  18
ATOM     18  C   UNL     1      46.466   8.508  13.356  0.00  0.00    +0.000 C 
BRANCH  18  23
ATOM     19  C   UNL     1      44.348  10.904  11.287  0.00  0.00    +0.000 A 
ATOM     20  C   UNL     1      45.329  11.725  10.718  0.00  0.00    +0.000 A 
ATOM     21  C   UNL     1      46.680  11.479  10.976  0.00  0.00    +0.000 A 
ATOM     22  C   UNL     1      47.053  10.425  11.812  0.00  0.00    +0.000 A 
ATOM     23  C   UNL     1      46.079   9.607  12.400  0.00  0.00    +0.000 A 
ATOM     24  C   UNL     1      44.727   9.851  12.129  0.00  0.00    +0.000 A 
BRANCH  19  26
ATOM     25  N   UNL     1      42.084  11.095  12.171  0.00  0.00    +0.000 N 
ATOM     26  C   UNL     1      42.899  11.141  11.072  0.00  0.00    +0.000 C 
ATOM     27  O   UNL     1      42.443  11.412   9.964  0.00  0.00    +0.000 OA
ATOM     28  H   UNL     1      41.119  11.360  12.018  0.00  0.00    +0.000 HD
ATOM     29  H   UNL     1      42.443  11.145  13.111  0.00  0.00    +0.000 HD
ENDBRANCH  19  26
ENDBRANCH  18  23
ENDBRANCH  17  18
ENDBRANCH   1  17
TORSDOF 6
ENDMDL
MODEL 8
REMARK VINA RESULT:    -6.941      4.109      7.981
REMARK INTER + INTRA:         -10.137
REMARK INTER:                  -9.127
REMARK INTRA:                  -1.010
REMARK UNBOUND:                -0.964
REMARK  Name = 
REMARK  6 active torsions:
REMARK  status: ('A' for Active; 'I' for Inactive)
REMARK    1  A    between atoms: C_2  and  C_4
REMARK    2  A    between atoms: C_8  and  C_9
REMARK    3  A    between atoms: C_9  and  C_10
REMARK    4  A    between atoms: C_10  and  C_11
REMARK    5  A    between atoms: C_16  and  N_17
REMARK    6  A    between atoms: C_21  and  N_22
REMARK                            x       y       z     vdW  Elec       q    Type
REMARK                         _______ _______ _______ _____ _____    ______ ____
ROOT
ATOM      1  C   UNL     1      46.899   8.081  13.142  0.00  0.00    +0.000 A 
ATOM      2  C   UNL     1      46.144   9.165  12.690  0.00  0.00    +0.000 A 
ATOM      3  C   UNL     1      45.060   8.951  11.845  0.00  0.00    +0.000 A 
ATOM      4  F   UNL     1      44.362  10.001  11.395  0.00  0.00    +0.000 F 
ATOM      5  C   UNL     1      44.714   7.668  11.422  0.00  0.00    +0.000 A 
ATOM      6  C   UNL     1      45.448   6.557  11.845  0.00  0.00    +0.000 A 
ATOM      7  C   UNL     1      46.505   6.794  12.744  0.00  0.00    +0.000 A 
ENDROOT
BRANCH   6   8
ATOM      8  N   UNL     1      45.210   5.294  11.336  0.00  0.00    +0.000 N 
ATOM      9  C   UNL     1      45.498   4.992   9.933  0.00  0.00    +0.000 C 
ATOM     10  C   UNL     1      44.315   4.230   9.345  0.00  0.00    +0.000 C 
ATOM     11  C   UNL     1      44.013   2.970  10.153  0.00  0.00    +0.000 C 
ATOM     12  C   UNL     1      43.790   3.300  11.640  0.00  0.00    +0.000 C 
ATOM     13  C   UNL     1      44.967   4.138  12.205  0.00  0.00    +0.000 C 
BRANCH  12  14
ATOM     14  N   UNL     1      43.578   2.053  12.390  0.00  0.00    +0.000 NA
ATOM     15  H   UNL     1      43.241   1.326  11.759  0.00  0.00    +0.000 HD
ATOM     16  H   UNL     1      42.830   2.198  13.070  0.00  0.00    +0.000 HD
ENDBRANCH  12  14
ENDBRANCH   6   8
BRANCH   1  17
ATOM     17  C   UNL     1      48.093   8.319  14.040  0.00  0.00    +0.000 C 
BRANCH  17  18
ATOM     18  C   UNL     1      48.924   7.067  14.371  0.00  0.00    +0.000 C 
BRANCH  18  23
ATOM     19  C   UNL     1      48.179   5.050  17.516  0.00  0.00    +0.000 A 
ATOM     20  C   UNL     1      48.671   5.897  18.516  0.00  0.00    +0.000 A 
ATOM     21  C   UNL     1      49.212   7.139  18.172  0.00  0.00    +0.000 A 
ATOM     22  C   UNL     1      49.275   7.530  16.834  0.00  0.00    +0.000 A 
ATOM     23  C   UNL     1      48.801   6.683  15.824  0.00  0.00    +0.000 A 
ATOM     24  C   UNL     1      48.249   5.445  16.174  0.00  0.00    +0.000 A 
BRANCH  19  26
ATOM     25  N   UNL     1      48.206   3.003  18.840  0.00  0.00    +0.000 N 
ATOM     26  C   UNL     1      47.624   3.707  17.821  0.00  0.00    +0.000 C 
ATOM     27  O   UNL     1      46.654   3.254  17.220  0.00  0.00    +0.000 OA
ATOM     28  H   UNL     1      47.749   2.138  19.099  0.00  0.00    +0.000 HD
ATOM     29  H   UNL     1      48.811   3.437  19.519  0.00  0.00    +0.000 HD
ENDBRANCH  19  26
ENDBRANCH  18  23
ENDBRANCH  17  18
ENDBRANCH   1  17
TORSDOF 6
ENDMDL
MODEL 9
REMARK VINA RESULT:    -6.879      4.255      7.863
REMARK INTER + INTRA:         -10.054
REMARK INTER:                  -9.015
REMARK INTRA:                  -1.040
REMARK UNBOUND:                -0.964
REMARK  Name = 
REMARK  6 active torsions:
REMARK  status: ('A' for Active; 'I' for Inactive)
REMARK    1  A    between atoms: C_2  and  C_4
REMARK    2  A    between atoms: C_8  and  C_9
REMARK    3  A    between atoms: C_9  and  C_10
REMARK    4  A    between atoms: C_10  and  C_11
REMARK    5  A    between atoms: C_16  and  N_17
REMARK    6  A    between atoms: C_21  and  N_22
REMARK                            x       y       z     vdW  Elec       q    Type
REMARK                         _______ _______ _______ _____ _____    ______ ____
ROOT
ATOM      1  C   UNL     1      48.847   6.949  14.220  0.00  0.00    +0.000 A 
ATOM      2  C   UNL     1      49.321   7.678  13.127  0.00  0.00    +0.000 A 
ATOM      3  C   UNL     1      48.570   7.741  11.958  0.00  0.00    +0.000 A 
ATOM      4  F   UNL     1      49.050   8.419  10.907  0.00  0.00    +0.000 F 
ATOM      5  C   UNL     1      47.350   7.076  11.844  0.00  0.00    +0.000 A 
ATOM      6  C   UNL     1      46.844   6.330  12.911  0.00  0.00    +0.000 A 
ATOM      7  C   UNL     1      47.595   6.328  14.102  0.00  0.00    +0.000 A 
ENDROOT
BRANCH   6   8
ATOM      8  N   UNL     1      45.707   5.555  12.779  0.00  0.00    +0.000 N 
ATOM      9  C   UNL     1      45.778   4.102  12.933  0.00  0.00    +0.000 C 
ATOM     10  C   UNL     1      44.994   3.452  11.796  0.00  0.00    +0.000 C 
ATOM     11  C   UNL     1      43.554   3.957  11.760  0.00  0.00    +0.000 C 
ATOM     12  C   UNL     1      43.502   5.493  11.676  0.00  0.00    +0.000 C 
ATOM     13  C   UNL     1      44.361   6.139  12.794  0.00  0.00    +0.000 C 
BRANCH  12  14
ATOM     14  N   UNL     1      42.100   5.936  11.719  0.00  0.00    +0.000 NA
ATOM     15  H   UNL     1      41.589   5.537  10.932  0.00  0.00    +0.000 HD
ATOM     16  H   UNL     1      42.068   6.947  11.585  0.00  0.00    +0.000 HD
ENDBRANCH  12  14
ENDBRANCH   6   8
BRANCH   1  17
ATOM     17  C   UNL     1      49.679   6.861  15.480  0.00  0.00    +0.000 C 
BRANCH  17  18
ATOM     18  C   UNL     1      48.889   6.991  16.796  0.00  0.00    +0.000 C 
BRANCH  18  23
ATOM     19  C   UNL     1      49.303   3.299  17.637  0.00  0.00    +0.000 A 
ATOM     20  C   UNL     1      48.851   3.260  18.961  0.00  0.00    +0.000 A 
ATOM     21  C   UNL     1      48.377   4.426  19.570  0.00  0.00    +0.000 A 
ATOM     22  C   UNL     1      48.368   5.630  18.865  0.00  0.00    +0.000 A 
ATOM     23  C   UNL     1      48.833   5.684  17.545  0.00  0.00    +0.000 A 
ATOM     24  C   UNL     1      49.296   4.511  16.936  0.00  0.00    +0.000 A 
BRANCH  19  26
ATOM     25  N   UNL     1      50.833   1.401  17.595  0.00  0.00    +0.000 N 
ATOM     26  C   UNL     1      49.846   2.098  16.953  0.00  0.00    +0.000 C 
ATOM     27  O   UNL     1      49.404   1.711  15.874  0.00  0.00    +0.000 OA
ATOM     28  H   UNL     1      51.116   0.531  17.161  0.00  0.00    +0.000 HD
ATOM     29  H   UNL     1      51.029   1.523  18.575  0.00  0.00    +0.000 HD
ENDBRANCH  19  26
ENDBRANCH  18  23
ENDBRANCH  17  18
ENDBRANCH   1  17
TORSDOF 6
ENDMDL
