MODEL 1
REMARK VINA RESULT:    -7.331      0.000      0.000
REMARK INTER + INTRA:          -8.817
REMARK INTER:                  -8.617
REMARK INTRA:                  -0.200
REMARK UNBOUND:                -0.200
REMARK  Name = 
REMARK  5 active torsions:
REMARK  status: ('A' for Active; 'I' for Inactive)
REMARK    1  A    between atoms: C_1  and  C_2
REMARK    2  A    between atoms: C_2  and  C_3
REMARK    3  A    between atoms: C_2  and  N_9
REMARK    4  A    between atoms: N_9  and  C_10
REMARK    5  A    between atoms: C_11  and  C_13
REMARK                            x       y       z     vdW  Elec       q    Type
REMARK                         _______ _______ _______ _____ _____    ______ ____
ROOT
ATOM      1  N   UNL     1      45.201   5.132  12.821  0.00  0.00    +0.000 N 
ATOM      2  C   UNL     1      44.972   6.568  12.839  0.00  0.00    +0.000 C 
ATOM      3  C   UNL     1      46.360   4.524  13.358  0.00  0.00    +0.000 C 
ATOM      4  O   UNL     1      46.490   3.300  13.368  0.00  0.00    +0.000 OA
ENDROOT
BRANCH   3   5
ATOM      5  C   UNL     1      47.424   5.366  13.963  0.00  0.00    +0.000 A 
ATOM      6  C   UNL     1      48.165   6.329  13.295  0.00  0.00    +0.000 A 
ATOM      7  S   UNL     1      49.295   7.155  14.271  0.00  0.00    +0.000 S 
ATOM      8  C   UNL     1      48.712   6.388  15.669  0.00  0.00    +0.000 A 
ATOM      9  N   UNL     1      49.178   6.746  16.894  0.00  0.00    +0.000 NA
ATOM     10  C   UNL     1      48.601   6.135  17.873  0.00  0.00    +0.000 A 
ATOM     11  N   UNL     1      47.631   5.176  17.733  0.00  0.00    +0.000 N 
ATOM     12  C   UNL     1      47.219   4.695  16.505  0.00  0.00    +0.000 A 
ATOM     13  O   UNL     1      46.526   3.687  16.435  0.00  0.00    +0.000 OA
ATOM     14  C   UNL     1      47.751   5.435  15.377  0.00  0.00    +0.000 A 
ATOM     15  H   UNL     1      47.265   4.692  18.539  0.00  0.00    +0.000 HD
ENDBRANCH   3   5
BRANCH   1  17
ATOM     16  C   UNL     1      42.768   4.829  12.270  0.00  0.00    +0.000 C 
ATOM     17  C   UNL     1      44.191   4.266  12.155  0.00  0.00    +0.000 C 
BRANCH  17  18
ATOM     18  C   UNL     1      44.571   3.936  10.709  0.00  0.00    +0.000 A 
ATOM     19  C   UNL     1      45.213   4.858   9.863  0.00  0.00    +0.000 A 
ATOM     20  C   UNL     1      45.644   4.499   8.586  0.00  0.00    +0.000 A 
ATOM     21  C   UNL     1      45.374   3.228   8.097  0.00  0.00    +0.000 A 
ATOM     22  C   UNL     1      44.676   2.319   8.889  0.00  0.00    +0.000 A 
ATOM     23  C   UNL     1      44.291   2.662  10.190  0.00  0.00    +0.000 A 
ENDBRANCH  17  18
ENDBRANCH   1  17
TORSDOF 3
ENDMDL
MODEL 2
REMARK VINA RESULT:    -7.004      1.644      2.711
REMARK INTER + INTRA:          -8.433
REMARK INTER:                  -8.350
REMARK INTRA:                  -0.082
REMARK UNBOUND:                -0.200
REMARK  Name = 
REMARK  5 active torsions:
REMARK  status: ('A' for Active; 'I' for Inactive)
REMARK    1  A    between atoms: C_1  and  C_2
REMARK    2  A    between atoms: C_2  and  C_3
REMARK    3  A    between atoms: C_2  and  N_9
REMARK    4  A    between atoms: N_9  and  C_10
REMARK    5  A    between atoms: C_11  and  C_13
REMARK                            x       y       z     vdW  Elec       q    Type
REMARK                         _______ _______ _______ _____ _____    ______ ____
ROOT
ATOM      1  N   UNL     1      44.791   4.894  12.706  0.00  0.00    +0.000 N 
ATOM      2  C   UNL     1      44.511   6.282  13.041  0.00  0.00    +0.000 C 
ATOM      3  C   UNL     1      45.895   4.178  13.225  0.00  0.00    +0.000 C 
ATOM      4  O   UNL     1      46.066   2.989  12.955  0.00  0.00    +0.000 OA
ENDROOT
BRANCH   3   5
ATOM      5  C   UNL     1      46.846   4.851  14.147  0.00  0.00    +0.000 A 
ATOM      6  C   UNL     1      47.074   4.497  15.467  0.00  0.00    +0.000 A 
ATOM      7  S   UNL     1      48.252   5.443  16.260  0.00  0.00    +0.000 S 
ATOM      8  C   UNL     1      48.637   6.250  14.817  0.00  0.00    +0.000 A 
ATOM      9  N   UNL     1      49.676   7.124  14.775  0.00  0.00    +0.000 NA
ATOM     10  C   UNL     1      49.903   7.612  13.602  0.00  0.00    +0.000 A 
ATOM     11  N   UNL     1      49.164   7.331  12.482  0.00  0.00    +0.000 N 
ATOM     12  C   UNL     1      48.027   6.547  12.507  0.00  0.00    +0.000 A 
ATOM     13  O   UNL     1      47.275   6.512  11.539  0.00  0.00    +0.000 OA
ATOM     14  C   UNL     1      47.802   5.881  13.776  0.00  0.00    +0.000 A 
ATOM     15  H   UNL     1      49.356   7.797  11.607  0.00  0.00    +0.000 HD
ENDBRANCH   3   5
BRANCH   1  17
ATOM     16  C   UNL     1      42.592   4.977  11.491  0.00  0.00    +0.000 C 
ATOM     17  C   UNL     1      43.902   4.213  11.726  0.00  0.00    +0.000 C 
BRANCH  17  18
ATOM     18  C   UNL     1      44.626   3.882  10.417  0.00  0.00    +0.000 A 
ATOM     19  C   UNL     1      44.712   2.574   9.908  0.00  0.00    +0.000 A 
ATOM     20  C   UNL     1      45.284   2.313   8.662  0.00  0.00    +0.000 A 
ATOM     21  C   UNL     1      45.851   3.348   7.932  0.00  0.00    +0.000 A 
ATOM     22  C   UNL     1      45.843   4.642   8.448  0.00  0.00    +0.000 A 
ATOM     23  C   UNL     1      45.221   4.912   9.672  0.00  0.00    +0.000 A 
ENDBRANCH  17  18
ENDBRANCH   1  17
TORSDOF 3
ENDMDL
MODEL 3
REMARK VINA RESULT:    -6.499      3.607      6.556
REMARK INTER + INTRA:          -7.839
REMARK INTER:                  -7.225
REMARK INTRA:                  -0.614
REMARK UNBOUND:                -0.200
REMARK  Name = 
REMARK  5 active torsions:
REMARK  status: ('A' for Active; 'I' for Inactive)
REMARK    1  A    between atoms: C_1  and  C_2
REMARK    2  A    between atoms: C_2  and  C_3
REMARK    3  A    between atoms: C_2  and  N_9
REMARK    4  A    between atoms: N_9  and  C_10
REMARK    5  A    between atoms: C_11  and  C_13
REMARK                            x       y       z     vdW  Elec       q    Type
REMARK                         _______ _______ _______ _____ _____    ______ ____
ROOT
ATOM      1  N   UNL     1      46.723   7.316  12.425  0.00  0.00    +0.000 N 
ATOM      2  C   UNL     1      47.603   6.177  12.633  0.00  0.00    +0.000 C 
ATOM      3  C   UNL     1      45.592   7.279  11.576  0.00  0.00    +0.000 C 
ATOM      4  O   UNL     1      44.845   8.251  11.469  0.00  0.00    +0.000 OA
ENDROOT
BRANCH   3   5
ATOM      5  C   UNL     1      45.266   6.035  10.833  0.00  0.00    +0.000 A 
ATOM      6  C   UNL     1      45.768   5.687   9.588  0.00  0.00    +0.000 A 
ATOM      7  S   UNL     1      45.231   4.175   9.007  0.00  0.00    +0.000 S 
ATOM      8  C   UNL     1      44.449   3.840  10.476  0.00  0.00    +0.000 A 
ATOM      9  N   UNL     1      43.882   2.624  10.690  0.00  0.00    +0.000 NA
ATOM     10  C   UNL     1      43.384   2.479  11.873  0.00  0.00    +0.000 A 
ATOM     11  N   UNL     1      43.373   3.450  12.840  0.00  0.00    +0.000 N 
ATOM     12  C   UNL     1      43.827   4.737  12.622  0.00  0.00    +0.000 A 
ATOM     13  O   UNL     1      43.587   5.625  13.432  0.00  0.00    +0.000 OA
ATOM     14  C   UNL     1      44.503   4.912  11.351  0.00  0.00    +0.000 A 
ATOM     15  H   UNL     1      42.911   3.292  13.724  0.00  0.00    +0.000 HD
ENDBRANCH   3   5
BRANCH   1  17
ATOM     16  C   UNL     1      47.801   8.392  14.425  0.00  0.00    +0.000 C 
ATOM     17  C   UNL     1      47.064   8.600  13.095  0.00  0.00    +0.000 C 
BRANCH  17  18
ATOM     18  C   UNL     1      47.805   9.564  12.163  0.00  0.00    +0.000 A 
ATOM     19  C   UNL     1      47.202  10.715  11.627  0.00  0.00    +0.000 A 
ATOM     20  C   UNL     1      47.929  11.632  10.867  0.00  0.00    +0.000 A 
ATOM     21  C   UNL     1      49.259  11.378  10.563  0.00  0.00    +0.000 A 
ATOM     22  C   UNL     1      49.860  10.208  11.023  0.00  0.00    +0.000 A 
ATOM     23  C   UNL     1      49.146   9.315  11.830  0.00  0.00    +0.000 A 
ENDBRANCH  17  18
ENDBRANCH   1  17
TORSDOF 3
ENDMDL
MODEL 4
REMARK VINA RESULT:    -6.412      3.395      7.043
REMARK INTER + INTRA:          -7.736
REMARK INTER:                  -7.264
REMARK INTRA:                  -0.472
REMARK UNBOUND:                -0.200
REMARK  Name = 
REMARK  5 active torsions:
REMARK  status: ('A' for Active; 'I' for Inactive)
REMARK    1  A    between atoms: C_1  and  C_2
REMARK    2  A    between atoms: C_2  and  C_3
REMARK    3  A    between atoms: C_2  and  N_9
REMARK    4  A    between atoms: N_9  and  C_10
REMARK    5  A    between atoms: C_11  and  C_13
REMARK                            x       y       z     vdW  Elec       q    Type
REMARK                         _______ _______ _______ _____ _____    ______ ____
ROOT
ATOM      1  N   UNL     1      46.577   6.801  12.391  0.00  0.00    +0.000 N 
ATOM      2  C   UNL     1      47.326   5.760  13.076  0.00  0.00    +0.000 C 
ATOM      3  C   UNL     1      45.402   6.549  11.645  0.00  0.00    +0.000 C 
ATOM      4  O   UNL     1      44.771   7.468  11.123  0.00  0.00    +0.000 OA
ENDROOT
BRANCH   3   5
ATOM      5  C   UNL     1      44.889   5.160  11.521  0.00  0.00    +0.000 A 
ATOM      6  C   UNL     1      44.148   4.488  12.480  0.00  0.00    +0.000 A 
ATOM      7  S   UNL     1      43.676   2.910  12.031  0.00  0.00    +0.000 S 
ATOM      8  C   UNL     1      44.286   3.129  10.462  0.00  0.00    +0.000 A 
ATOM      9  N   UNL     1      44.091   2.178   9.511  0.00  0.00    +0.000 NA
ATOM     10  C   UNL     1      44.544   2.502   8.346  0.00  0.00    +0.000 A 
ATOM     11  N   UNL     1      45.203   3.670   8.061  0.00  0.00    +0.000 N 
ATOM     12  C   UNL     1      45.531   4.604   9.024  0.00  0.00    +0.000 A 
ATOM     13  O   UNL     1      46.314   5.511   8.766  0.00  0.00    +0.000 OA
ATOM     14  C   UNL     1      44.939   4.342  10.321  0.00  0.00    +0.000 A 
ATOM     15  H   UNL     1      45.587   3.832   7.142  0.00  0.00    +0.000 HD
ENDBRANCH   3   5
BRANCH   1  17
ATOM     16  C   UNL     1      46.538   9.003  13.603  0.00  0.00    +0.000 C 
ATOM     17  C   UNL     1      47.106   8.191  12.431  0.00  0.00    +0.000 C 
BRANCH  17  18
ATOM     18  C   UNL     1      48.636   8.233  12.382  0.00  0.00    +0.000 A 
ATOM     19  C   UNL     1      49.372   7.774  11.275  0.00  0.00    +0.000 A 
ATOM     20  C   UNL     1      50.759   7.920  11.209  0.00  0.00    +0.000 A 
ATOM     21  C   UNL     1      51.448   8.461  12.287  0.00  0.00    +0.000 A 
ATOM     22  C   UNL     1      50.748   8.857  13.424  0.00  0.00    +0.000 A 
ATOM     23  C   UNL     1      49.353   8.760  13.467  0.00  0.00    +0.000 A 
ENDBRANCH  17  18
ENDBRANCH   1  17
TORSDOF 3
ENDMDL
MODEL 5
REMARK VINA RESULT:    -5.932      4.189      6.839
REMARK INTER + INTRA:          -7.173
REMARK INTER:                  -6.321
REMARK INTRA:                  -0.851
REMARK UNBOUND:                -0.200
REMARK  Name = 
REMARK  5 active torsions:
REMARK  status: ('A' for Active; 'I' for Inactive)
REMARK    1  A    between atoms: C_1  and  C_2
REMARK    2  A    between atoms: C_2  and  C_3
REMARK    3  A    between atoms: C_2  and  N_9
REMARK    4  A    between atoms: N_9  and  C_10
REMARK    5  A    between atoms: C_11  and  C_13
REMARK                            x       y       z     vdW  Elec       q    Type
REMARK                         _______ _______ _______ _____ _____    ______ ____
ROOT
ATOM      1  N   UNL     1      48.201   8.497  12.388  0.00  0.00    +0.000 N 
ATOM      2  C   UNL     1      48.882   7.652  11.419  0.00  0.00    +0.000 C 
ATOM      3  C   UNL     1      47.114   8.052  13.177  0.00  0.00    +0.000 C 
ATOM      4  O   UNL     1      46.600   8.784  14.022  0.00  0.00    +0.000 OA
ENDROOT
BRANCH   3   5
ATOM      5  C   UNL     1      46.608   6.664  13.023  0.00  0.00    +0.000 A 
ATOM      6  C   UNL     1      47.110   5.547  13.672  0.00  0.00    +0.000 A 
ATOM      7  S   UNL     1      46.294   4.092  13.310  0.00  0.00    +0.000 S 
ATOM      8  C   UNL     1      45.119   4.925  12.411  0.00  0.00    +0.000 A 
ATOM      9  N   UNL     1      44.039   4.267  11.917  0.00  0.00    +0.000 NA
ATOM     10  C   UNL     1      43.190   5.030  11.314  0.00  0.00    +0.000 A 
ATOM     11  N   UNL     1      43.345   6.381  11.133  0.00  0.00    +0.000 N 
ATOM     12  C   UNL     1      44.485   7.065  11.509  0.00  0.00    +0.000 A 
ATOM     13  O   UNL     1      44.675   8.213  11.124  0.00  0.00    +0.000 OA
ATOM     14  C   UNL     1      45.411   6.274  12.296  0.00  0.00    +0.000 A 
ATOM     15  H   UNL     1      42.673   6.909  10.597  0.00  0.00    +0.000 HD
ENDBRANCH   3   5
BRANCH   1  17
ATOM     16  C   UNL     1      50.155  10.055  12.660  0.00  0.00    +0.000 C 
ATOM     17  C   UNL     1      48.634   9.915  12.512  0.00  0.00    +0.000 C 
BRANCH  17  18
ATOM     18  C   UNL     1      48.074  10.795  11.391  0.00  0.00    +0.000 A 
ATOM     19  C   UNL     1      46.715  11.143  11.306  0.00  0.00    +0.000 A 
ATOM     20  C   UNL     1      46.248  12.031  10.336  0.00  0.00    +0.000 A 
ATOM     21  C   UNL     1      47.122  12.531   9.380  0.00  0.00    +0.000 A 
ATOM     22  C   UNL     1      48.461  12.145   9.399  0.00  0.00    +0.000 A 
ATOM     23  C   UNL     1      48.938  11.297  10.405  0.00  0.00    +0.000 A 
ENDBRANCH  17  18
ENDBRANCH   1  17
TORSDOF 3
ENDMDL
MODEL 6
REMARK VINA RESULT:    -5.854      2.778      6.777
REMARK INTER + INTRA:          -7.080
REMARK INTER:                  -6.668
REMARK INTRA:                  -0.413
REMARK UNBOUND:                -0.200
REMARK  Name = 
REMARK  5 active torsions:
REMARK  status: ('A' for Active; 'I' for Inactive)
REMARK    1  A    between atoms: C_1  and  C_2
REMARK    2  A    between atoms: C_2  and  C_3
REMARK    3  A    between atoms: C_2  and  N_9
REMARK    4  A    between atoms: N_9  and  C_10
REMARK    5  A    between atoms: C_11  and  C_13
REMARK                            x       y       z     vdW  Elec       q    Type
REMARK                         _______ _______ _______ _____ _____    ______ ____
ROOT
ATOM      1  N   UNL     1      48.607   7.701  14.346  0.00  0.00    +0.000 N 
ATOM      2  C   UNL     1      47.823   8.807  14.875  0.00  0.00    +0.000 C 
ATOM      3  C   UNL     1      48.120   6.803  13.367  0.00  0.00    +0.000 C 
ATOM      4  O   UNL     1      48.834   5.912  12.910  0.00  0.00    +0.000 OA
ENDROOT
BRANCH   3   5
ATOM      5  C   UNL     1      46.737   6.957  12.845  0.00  0.00    +0.000 A 
ATOM      6  C   UNL     1      46.298   7.983  12.023  0.00  0.00    +0.000 A 
ATOM      7  S   UNL     1      44.658   7.868  11.564  0.00  0.00    +0.000 S 
ATOM      8  C   UNL     1      44.516   6.343  12.295  0.00  0.00    +0.000 A 
ATOM      9  N   UNL     1      43.374   5.620  12.160  0.00  0.00    +0.000 NA
ATOM     10  C   UNL     1      43.426   4.451  12.705  0.00  0.00    +0.000 A 
ATOM     11  N   UNL     1      44.500   3.961  13.401  0.00  0.00    +0.000 N 
ATOM     12  C   UNL     1      45.630   4.709  13.669  0.00  0.00    +0.000 A 
ATOM     13  O   UNL     1      46.458   4.315  14.482  0.00  0.00    +0.000 OA
ATOM     14  C   UNL     1      45.667   5.982  12.975  0.00  0.00    +0.000 A 
ATOM     15  H   UNL     1      44.451   3.062  13.858  0.00  0.00    +0.000 HD
ENDBRANCH   3   5
BRANCH   1  17
ATOM     16  C   UNL     1      50.705   8.782  15.210  0.00  0.00    +0.000 C 
ATOM     17  C   UNL     1      49.967   7.472  14.903  0.00  0.00    +0.000 C 
BRANCH  17  18
ATOM     18  C   UNL     1      49.952   6.519  16.101  0.00  0.00    +0.000 A 
ATOM     19  C   UNL     1      48.765   5.973  16.621  0.00  0.00    +0.000 A 
ATOM     20  C   UNL     1      48.785   5.025  17.645  0.00  0.00    +0.000 A 
ATOM     21  C   UNL     1      49.993   4.659  18.224  0.00  0.00    +0.000 A 
ATOM     22  C   UNL     1      51.177   5.240  17.774  0.00  0.00    +0.000 A 
ATOM     23  C   UNL     1      51.161   6.149  16.712  0.00  0.00    +0.000 A 
ENDBRANCH  17  18
ENDBRANCH   1  17
TORSDOF 3
ENDMDL
MODEL 7
REMARK VINA RESULT:    -5.330      3.657      6.776
REMARK INTER + INTRA:          -6.465
REMARK INTER:                  -5.916
REMARK INTRA:                  -0.549
REMARK UNBOUND:                -0.200
REMARK  Name = 
REMARK  5 active torsions:
REMARK  status: ('A' for Active; 'I' for Inactive)
REMARK    1  A    between atoms: C_1  and  C_2
REMARK    2  A    between atoms: C_2  and  C_3
REMARK    3  A    between atoms: C_2  and  N_9
REMARK    4  A    between atoms: N_9  and  C_10
REMARK    5  A    between atoms: C_11  and  C_13
REMARK                            x       y       z     vdW  Elec       q    Type
REMARK                         _______ _______ _______ _____ _____    ______ ____
ROOT
ATOM      1  N   UNL     1      46.882   8.723  12.203  0.00  0.00    +0.000 N 
ATOM      2  C   UNL     1      45.650   8.798  12.973  0.00  0.00    +0.000 C 
ATOM      3  C   UNL     1      47.652   7.542  12.083  0.00  0.00    +0.000 C 
ATOM      4  O   UNL     1      48.661   7.510  11.379  0.00  0.00    +0.000 OA
ENDROOT
BRANCH   3   5
ATOM      5  C   UNL     1      47.218   6.304  12.779  0.00  0.00    +0.000 A 
ATOM      6  C   UNL     1      47.583   5.933  14.064  0.00  0.00    +0.000 A 
ATOM      7  S   UNL     1      46.896   4.466  14.599  0.00  0.00    +0.000 S 
ATOM      8  C   UNL     1      45.936   4.357  13.202  0.00  0.00    +0.000 A 
ATOM      9  N   UNL     1      45.006   3.374  13.083  0.00  0.00    +0.000 NA
ATOM     10  C   UNL     1      44.299   3.449  12.005  0.00  0.00    +0.000 A 
ATOM     11  N   UNL     1      44.466   4.394  11.026  0.00  0.00    +0.000 N 
ATOM     12  C   UNL     1      45.480   5.332  11.049  0.00  0.00    +0.000 A 
ATOM     13  O   UNL     1      45.730   6.000  10.052  0.00  0.00    +0.000 OA
ATOM     14  C   UNL     1      46.222   5.363  12.295  0.00  0.00    +0.000 A 
ATOM     15  H   UNL     1      43.921   4.358  10.177  0.00  0.00    +0.000 HD
ENDBRANCH   3   5
BRANCH   1  17
ATOM     16  C   UNL     1      46.299  11.043  11.430  0.00  0.00    +0.000 C 
ATOM     17  C   UNL     1      47.385   9.966  11.557  0.00  0.00    +0.000 C 
BRANCH  17  18
ATOM     18  C   UNL     1      48.656  10.496  12.225  0.00  0.00    +0.000 A 
ATOM     19  C   UNL     1      48.762  10.682  13.615  0.00  0.00    +0.000 A 
ATOM     20  C   UNL     1      49.964  11.066  14.210  0.00  0.00    +0.000 A 
ATOM     21  C   UNL     1      51.069  11.344  13.418  0.00  0.00    +0.000 A 
ATOM     22  C   UNL     1      50.970  11.236  12.033  0.00  0.00    +0.000 A 
ATOM     23  C   UNL     1      49.780  10.800  11.440  0.00  0.00    +0.000 A 
ENDBRANCH  17  18
ENDBRANCH   1  17
TORSDOF 3
ENDMDL
MODEL 8
REMARK VINA RESULT:    -5.272      6.588      8.245
REMARK INTER + INTRA:          -6.397
REMARK INTER:                  -5.731
REMARK INTRA:                  -0.666
REMARK UNBOUND:                -0.200
REMARK  Name = 
REMARK  5 active torsions:
REMARK  status: ('A' for Active; 'I' for Inactive)
REMARK    1  A    between atoms: C_1  and  C_2
REMARK    2  A    between atoms: C_2  and  C_3
REMARK    3  A    between atoms: C_2  and  N_9
REMARK    4  A    between atoms: N_9  and  C_10
REMARK    5  A    between atoms: C_11  and  C_13
REMARK                            x       y       z     vdW  Elec       q    Type
REMARK                         _______ _______ _______ _____ _____    ______ ____
ROOT
ATOM      1  N   UNL     1      49.450   5.349  18.503  0.00  0.00    +0.000 N 
ATOM      2  C   UNL     1      49.584   4.896  19.878  0.00  0.00    +0.000 C 
ATOM      3  C   UNL     1      50.437   5.128  17.513  0.00  0.00    +0.000 C 
ATOM      4  O   UNL     1      50.260   5.484  16.348  0.00  0.00    +0.000 OA
ENDROOT
BRANCH   3   5
ATOM      5  C   UNL     1      51.692   4.415  17.866  0.00  0.00    +0.000 A 
ATOM      6  C   UNL     1      52.807   4.992  18.451  0.00  0.00    +0.000 A 
ATOM      7  S   UNL     1      54.084   3.904  18.765  0.00  0.00    +0.000 S 
ATOM      8  C   UNL     1      53.127   2.581  18.300  0.00  0.00    +0.000 A 
ATOM      9  N   UNL     1      53.590   1.313  18.450  0.00  0.00    +0.000 NA
ATOM     10  C   UNL     1      52.736   0.401  18.123  0.00  0.00    +0.000 A 
ATOM     11  N   UNL     1      51.481   0.648  17.628  0.00  0.00    +0.000 N 
ATOM     12  C   UNL     1      51.020   1.918  17.344  0.00  0.00    +0.000 A 
ATOM     13  O   UNL     1      49.992   2.074  16.694  0.00  0.00    +0.000 OA
ATOM     14  C   UNL     1      51.896   2.978  17.806  0.00  0.00    +0.000 A 
ATOM     15  H   UNL     1      50.886  -0.112  17.332  0.00  0.00    +0.000 HD
ENDBRANCH   3   5
BRANCH   1  17
ATOM     16  C   UNL     1      46.943   5.476  18.623  0.00  0.00    +0.000 C 
ATOM     17  C   UNL     1      48.241   6.134  18.135  0.00  0.00    +0.000 C 
BRANCH  17  18
ATOM     18  C   UNL     1      48.346   7.601  18.561  0.00  0.00    +0.000 A 
ATOM     19  C   UNL     1      49.516   8.360  18.383  0.00  0.00    +0.000 A 
ATOM     20  C   UNL     1      49.554   9.722  18.682  0.00  0.00    +0.000 A 
ATOM     21  C   UNL     1      48.441  10.339  19.238  0.00  0.00    +0.000 A 
ATOM     22  C   UNL     1      47.293   9.591  19.490  0.00  0.00    +0.000 A 
ATOM     23  C   UNL     1      47.238   8.238  19.141  0.00  0.00    +0.000 A 
ENDBRANCH  17  18
ENDBRANCH   1  17
TORSDOF 3
ENDMDL
MODEL 9
REMARK VINA RESULT:    -5.212      2.404      3.667
REMARK INTER + INTRA:          -6.326
REMARK INTER:                  -5.569
REMARK INTRA:                  -0.757
REMARK UNBOUND:                -0.200
REMARK  Name = 
REMARK  5 active torsions:
REMARK  status: ('A' for Active; 'I' for Inactive)
REMARK    1  A    between atoms: C_1  and  C_2
REMARK    2  A    between atoms: C_2  and  C_3
REMARK    3  A    between atoms: C_2  and  N_9
REMARK    4  A    between atoms: N_9  and  C_10
REMARK    5  A    between atoms: C_11  and  C_13
REMARK                            x       y       z     vdW  Elec       q    Type
REMARK                         _______ _______ _______ _____ _____    ______ ____
ROOT
ATOM      1  N   UNL     1      48.050   7.428  13.613  0.00  0.00    +0.000 N 
ATOM      2  C   UNL     1      48.844   6.517  12.804  0.00  0.00    +0.000 C 
ATOM      3  C   UNL     1      48.463   7.904  14.879  0.00  0.00    +0.000 C 
ATOM      4  O   UNL     1      47.783   8.715  15.507  0.00  0.00    +0.000 OA
ENDROOT
BRANCH   3   5
ATOM      5  C   UNL     1      49.761   7.457  15.449  0.00  0.00    +0.000 A 
ATOM      6  C   UNL     1      50.949   8.170  15.402  0.00  0.00    +0.000 A 
ATOM      7  S   UNL     1      52.264   7.405  16.175  0.00  0.00    +0.000 S 
ATOM      8  C   UNL     1      51.255   6.173  16.765  0.00  0.00    +0.000 A 
ATOM      9  N   UNL     1      51.742   5.239  17.623  0.00  0.00    +0.000 NA
ATOM     10  C   UNL     1      50.854   4.404  18.048  0.00  0.00    +0.000 A 
ATOM     11  N   UNL     1      49.538   4.401  17.663  0.00  0.00    +0.000 N 
ATOM     12  C   UNL     1      49.032   5.252  16.700  0.00  0.00    +0.000 A 
ATOM     13  O   UNL     1      47.918   5.061  16.226  0.00  0.00    +0.000 OA
ATOM     14  C   UNL     1      49.962   6.285  16.284  0.00  0.00    +0.000 A 
ATOM     15  H   UNL     1      48.909   3.680  17.985  0.00  0.00    +0.000 HD
ENDBRANCH   3   5
BRANCH   1  17
ATOM     16  C   UNL     1      46.784   9.037  12.154  0.00  0.00    +0.000 C 
ATOM     17  C   UNL     1      46.712   7.835  13.106  0.00  0.00    +0.000 C 
BRANCH  17  18
ATOM     18  C   UNL     1      45.937   6.660  12.502  0.00  0.00    +0.000 A 
ATOM     19  C   UNL     1      45.703   6.535  11.121  0.00  0.00    +0.000 A 
ATOM     20  C   UNL     1      45.087   5.403  10.585  0.00  0.00    +0.000 A 
ATOM     21  C   UNL     1      44.623   4.404  11.429  0.00  0.00    +0.000 A 
ATOM     22  C   UNL     1      44.779   4.538  12.807  0.00  0.00    +0.000 A 
ATOM     23  C   UNL     1      45.445   5.647  13.340  0.00  0.00    +0.000 A 
ENDBRANCH  17  18
ENDBRANCH   1  17
TORSDOF 3
ENDMDL
