MODEL 1
REMARK VINA RESULT:    -8.877      0.000      0.000
REMARK INTER + INTRA:         -12.447
REMARK INTER:                 -11.472
REMARK INTRA:                  -0.976
REMARK UNBOUND:                -0.976
REMARK  Name = 
REMARK  6 active torsions:
REMARK  status: ('A' for Active; 'I' for Inactive)
REMARK    1  A    between atoms: C_1  and  C_2
REMARK    2  A    between atoms: C_5  and  C_6
REMARK    3  A    between atoms: C_6  and  N_7
REMARK    4  A    between atoms: C_8  and  C_10
REMARK    5  A    between atoms: C_21  and  C_22
REMARK    6  A    between atoms: C_22  and  N_23
REMARK                            x       y       z     vdW  Elec       q    Type
REMARK                         _______ _______ _______ _____ _____    ______ ____
ROOT
ATOM      1  C   UNL     1      44.504   7.742  11.263  0.00  0.00    +0.000 C 
ATOM      2  C   UNL     1      45.142   6.596  12.000  0.00  0.00    +0.000 A 
ATOM      3  C   UNL     1      46.233   6.866  12.845  0.00  0.00    +0.000 A 
ATOM      4  C   UNL     1      46.853   5.848  13.572  0.00  0.00    +0.000 A 
ATOM      5  C   UNL     1      46.393   4.532  13.484  0.00  0.00    +0.000 A 
ATOM      6  C   UNL     1      45.313   4.256  12.629  0.00  0.00    +0.000 A 
ATOM      7  C   UNL     1      44.691   5.267  11.862  0.00  0.00    +0.000 A 
ENDROOT
BRANCH   5   8
ATOM      8  C   UNL     1      47.015   3.447  14.330  0.00  0.00    +0.000 C 
BRANCH   8   9
ATOM      9  N   UNL     1      47.814   3.988  15.403  0.00  0.00    +0.000 N 
ATOM     10  C   UNL     1      47.496   3.805  16.724  0.00  0.00    +0.000 C 
ATOM     11  O   UNL     1      46.520   3.151  17.079  0.00  0.00    +0.000 OA
ATOM     12  H   UNL     1      48.555   4.631  15.143  0.00  0.00    +0.000 HD
BRANCH  10  13
ATOM     13  C   UNL     1      48.419   4.383  17.710  0.00  0.00    +0.000 A 
ATOM     14  C   UNL     1      48.010   5.471  18.469  0.00  0.00    +0.000 A 
ATOM     15  S   UNL     1      49.175   6.002  19.593  0.00  0.00    +0.000 S 
ATOM     16  C   UNL     1      50.292   4.828  19.069  0.00  0.00    +0.000 A 
ATOM     17  N   UNL     1      51.533   4.753  19.620  0.00  0.00    +0.000 NA
ATOM     18  C   UNL     1      52.291   3.846  19.101  0.00  0.00    +0.000 A 
ATOM     19  N   UNL     1      51.918   3.003  18.088  0.00  0.00    +0.000 N 
ATOM     20  C   UNL     1      50.658   3.007  17.535  0.00  0.00    +0.000 A 
ATOM     21  O   UNL     1      50.331   2.185  16.685  0.00  0.00    +0.000 OA
ATOM     22  C   UNL     1      49.773   4.029  18.064  0.00  0.00    +0.000 A 
ATOM     23  H   UNL     1      52.556   2.302  17.739  0.00  0.00    +0.000 HD
ENDBRANCH  10  13
ENDBRANCH   8   9
ENDBRANCH   5   8
BRANCH   7  24
ATOM     24  C   UNL     1      43.553   4.874  10.931  0.00  0.00    +0.000 C 
BRANCH  24  25
ATOM     25  N   UNL     1      43.989   4.933   9.552  0.00  0.00    +0.000 N 
ATOM     26  C   UNL     1      44.829   3.980   9.013  0.00  0.00    +0.000 A 
ATOM     27  C   UNL     1      44.813   2.640   9.375  0.00  0.00    +0.000 A 
ATOM     28  C   UNL     1      45.638   1.730   8.706  0.00  0.00    +0.000 A 
ATOM     29  C   UNL     1      46.456   2.181   7.679  0.00  0.00    +0.000 A 
ATOM     30  C   UNL     1      46.412   3.528   7.377  0.00  0.00    +0.000 A 
ATOM     31  N   UNL     1      45.630   4.424   8.024  0.00  0.00    +0.000 NA
ATOM     32  H   UNL     1      44.288   5.846   9.224  0.00  0.00    +0.000 HD
ENDBRANCH  24  25
ENDBRANCH   7  24
TORSDOF 5
ENDMDL
MODEL 2
REMARK VINA RESULT:    -8.604      2.227      3.356
REMARK INTER + INTRA:         -12.095
REMARK INTER:                 -11.135
REMARK INTRA:                  -0.960
REMARK UNBOUND:                -0.976
REMARK  Name = 
REMARK  6 active torsions:
REMARK  status: ('A' for Active; 'I' for Inactive)
REMARK    1  A    between atoms: C_1  and  C_2
REMARK    2  A    between atoms: C_5  and  C_6
REMARK    3  A    between atoms: C_6  and  N_7
REMARK    4  A    between atoms: C_8  and  C_10
REMARK    5  A    between atoms: C_21  and  C_22
REMARK    6  A    between atoms: C_22  and  N_23
REMARK                            x       y       z     vdW  Elec       q    Type
REMARK                         _______ _______ _______ _____ _____    ______ ____
ROOT
ATOM      1  C   UNL     1      43.198   2.410  11.430  0.00  0.00    +0.000 C 
ATOM      2  C   UNL     1      43.967   3.684  11.646  0.00  0.00    +0.000 A 
ATOM      3  C   UNL     1      43.960   4.264  12.926  0.00  0.00    +0.000 A 
ATOM      4  C   UNL     1      44.673   5.434  13.195  0.00  0.00    +0.000 A 
ATOM      5  C   UNL     1      45.423   6.052  12.192  0.00  0.00    +0.000 A 
ATOM      6  C   UNL     1      45.422   5.484  10.907  0.00  0.00    +0.000 A 
ATOM      7  C   UNL     1      44.683   4.317  10.607  0.00  0.00    +0.000 A 
ENDROOT
BRANCH   5   8
ATOM      8  C   UNL     1      46.256   7.273  12.503  0.00  0.00    +0.000 C 
BRANCH   8   9
ATOM      9  N   UNL     1      46.905   7.173  13.788  0.00  0.00    +0.000 N 
ATOM     10  C   UNL     1      48.109   6.539  13.958  0.00  0.00    +0.000 C 
ATOM     11  O   UNL     1      48.722   6.034  13.023  0.00  0.00    +0.000 OA
ATOM     12  H   UNL     1      46.371   7.472  14.597  0.00  0.00    +0.000 HD
BRANCH  10  13
ATOM     13  C   UNL     1      48.670   6.544  15.316  0.00  0.00    +0.000 A 
ATOM     14  C   UNL     1      49.558   7.548  15.682  0.00  0.00    +0.000 A 
ATOM     15  S   UNL     1      50.091   7.438  17.296  0.00  0.00    +0.000 S 
ATOM     16  C   UNL     1      49.194   6.014  17.551  0.00  0.00    +0.000 A 
ATOM     17  N   UNL     1      49.231   5.373  18.750  0.00  0.00    +0.000 NA
ATOM     18  C   UNL     1      48.538   4.284  18.793  0.00  0.00    +0.000 A 
ATOM     19  N   UNL     1      47.806   3.784  17.749  0.00  0.00    +0.000 N 
ATOM     20  C   UNL     1      47.698   4.422  16.535  0.00  0.00    +0.000 A 
ATOM     21  O   UNL     1      46.970   3.988  15.648  0.00  0.00    +0.000 OA
ATOM     22  C   UNL     1      48.482   5.639  16.425  0.00  0.00    +0.000 A 
ATOM     23  H   UNL     1      47.272   2.933  17.855  0.00  0.00    +0.000 HD
ENDBRANCH  10  13
ENDBRANCH   8   9
ENDBRANCH   5   8
BRANCH   7  24
ATOM     24  C   UNL     1      44.704   3.792   9.180  0.00  0.00    +0.000 C 
BRANCH  24  25
ATOM     25  N   UNL     1      45.741   2.794   9.027  0.00  0.00    +0.000 N 
ATOM     26  C   UNL     1      46.231   2.438   7.787  0.00  0.00    +0.000 A 
ATOM     27  C   UNL     1      46.360   3.321   6.723  0.00  0.00    +0.000 A 
ATOM     28  C   UNL     1      46.955   2.893   5.533  0.00  0.00    +0.000 A 
ATOM     29  C   UNL     1      47.420   1.589   5.436  0.00  0.00    +0.000 A 
ATOM     30  C   UNL     1      47.258   0.773   6.538  0.00  0.00    +0.000 A 
ATOM     31  N   UNL     1      46.671   1.168   7.693  0.00  0.00    +0.000 NA
ATOM     32  H   UNL     1      45.624   1.950   9.579  0.00  0.00    +0.000 HD
ENDBRANCH  24  25
ENDBRANCH   7  24
TORSDOF 5
ENDMDL
MODEL 3
REMARK VINA RESULT:    -8.530      1.537      1.899
REMARK INTER + INTRA:         -11.999
REMARK INTER:                 -10.916
REMARK INTRA:                  -1.083
REMARK UNBOUND:                -0.976
REMARK  Name = 
REMARK  6 active torsions:
REMARK  status: ('A' for Active; 'I' for Inactive)
REMARK    1  A    between atoms: C_1  and  C_2
REMARK    2  A    between atoms: C_5  and  C_6
REMARK    3  A    between atoms: C_6  and  N_7
REMARK    4  A    between atoms: C_8  and  C_10
REMARK    5  A    between atoms: C_21  and  C_22
REMARK    6  A    between atoms: C_22  and  N_23
REMARK                            x       y       z     vdW  Elec       q    Type
REMARK                         _______ _______ _______ _____ _____    ______ ____
ROOT
ATOM      1  C   UNL     1      44.210   7.517  11.019  0.00  0.00    +0.000 C 
ATOM      2  C   UNL     1      44.916   6.426  11.776  0.00  0.00    +0.000 A 
ATOM      3  C   UNL     1      45.934   6.783  12.677  0.00  0.00    +0.000 A 
ATOM      4  C   UNL     1      46.611   5.818  13.424  0.00  0.00    +0.000 A 
ATOM      5  C   UNL     1      46.282   4.466  13.300  0.00  0.00    +0.000 A 
ATOM      6  C   UNL     1      45.274   4.103  12.391  0.00  0.00    +0.000 A 
ATOM      7  C   UNL     1      44.598   5.062  11.603  0.00  0.00    +0.000 A 
ENDROOT
BRANCH   5   8
ATOM      8  C   UNL     1      46.960   3.431  14.165  0.00  0.00    +0.000 C 
BRANCH   8   9
ATOM      9  N   UNL     1      47.358   3.971  15.444  0.00  0.00    +0.000 N 
ATOM     10  C   UNL     1      48.268   3.347  16.256  0.00  0.00    +0.000 C 
ATOM     11  O   UNL     1      48.820   2.296  15.939  0.00  0.00    +0.000 OA
ATOM     12  H   UNL     1      46.835   4.769  15.787  0.00  0.00    +0.000 HD
BRANCH  10  13
ATOM     13  C   UNL     1      48.606   4.028  17.513  0.00  0.00    +0.000 A 
ATOM     14  C   UNL     1      48.362   3.387  18.722  0.00  0.00    +0.000 A 
ATOM     15  S   UNL     1      48.841   4.288  20.085  0.00  0.00    +0.000 S 
ATOM     16  C   UNL     1      49.344   5.592  19.114  0.00  0.00    +0.000 A 
ATOM     17  N   UNL     1      49.845   6.725  19.674  0.00  0.00    +0.000 NA
ATOM     18  C   UNL     1      50.149   7.649  18.825  0.00  0.00    +0.000 A 
ATOM     19  N   UNL     1      50.004   7.539  17.467  0.00  0.00    +0.000 N 
ATOM     20  C   UNL     1      49.551   6.395  16.852  0.00  0.00    +0.000 A 
ATOM     21  O   UNL     1      49.509   6.301  15.629  0.00  0.00    +0.000 OA
ATOM     22  C   UNL     1      49.168   5.333  17.765  0.00  0.00    +0.000 A 
ATOM     23  H   UNL     1      50.278   8.295  16.857  0.00  0.00    +0.000 HD
ENDBRANCH  10  13
ENDBRANCH   8   9
ENDBRANCH   5   8
BRANCH   7  24
ATOM     24  C   UNL     1      43.549   4.578  10.613  0.00  0.00    +0.000 C 
BRANCH  24  25
ATOM     25  N   UNL     1      44.044   4.696   9.258  0.00  0.00    +0.000 N 
ATOM     26  C   UNL     1      44.961   3.805   8.739  0.00  0.00    +0.000 A 
ATOM     27  C   UNL     1      45.005   2.457   9.070  0.00  0.00    +0.000 A 
ATOM     28  C   UNL     1      45.909   1.611   8.422  0.00  0.00    +0.000 A 
ATOM     29  C   UNL     1      46.747   2.132   7.446  0.00  0.00    +0.000 A 
ATOM     30  C   UNL     1      46.642   3.481   7.172  0.00  0.00    +0.000 A 
ATOM     31  N   UNL     1      45.781   4.317   7.800  0.00  0.00    +0.000 NA
ATOM     32  H   UNL     1      44.305   5.632   8.965  0.00  0.00    +0.000 HD
ENDBRANCH  24  25
ENDBRANCH   7  24
TORSDOF 5
ENDMDL
MODEL 4
REMARK VINA RESULT:    -8.116      1.770      2.092
REMARK INTER + INTRA:         -11.464
REMARK INTER:                 -10.765
REMARK INTRA:                  -0.699
REMARK UNBOUND:                -0.976
REMARK  Name = 
REMARK  6 active torsions:
REMARK  status: ('A' for Active; 'I' for Inactive)
REMARK    1  A    between atoms: C_1  and  C_2
REMARK    2  A    between atoms: C_5  and  C_6
REMARK    3  A    between atoms: C_6  and  N_7
REMARK    4  A    between atoms: C_8  and  C_10
REMARK    5  A    between atoms: C_21  and  C_22
REMARK    6  A    between atoms: C_22  and  N_23
REMARK                            x       y       z     vdW  Elec       q    Type
REMARK                         _______ _______ _______ _____ _____    ______ ____
ROOT
ATOM      1  C   UNL     1      44.309   7.871  11.065  0.00  0.00    +0.000 C 
ATOM      2  C   UNL     1      45.089   6.915  11.925  0.00  0.00    +0.000 A 
ATOM      3  C   UNL     1      46.089   7.432  12.766  0.00  0.00    +0.000 A 
ATOM      4  C   UNL     1      46.832   6.598  13.605  0.00  0.00    +0.000 A 
ATOM      5  C   UNL     1      46.587   5.223  13.635  0.00  0.00    +0.000 A 
ATOM      6  C   UNL     1      45.597   4.701  12.786  0.00  0.00    +0.000 A 
ATOM      7  C   UNL     1      44.855   5.524  11.908  0.00  0.00    +0.000 A 
ENDROOT
BRANCH   5   8
ATOM      8  C   UNL     1      47.336   4.334  14.598  0.00  0.00    +0.000 C 
BRANCH   8   9
ATOM      9  N   UNL     1      47.441   4.925  15.911  0.00  0.00    +0.000 N 
ATOM     10  C   UNL     1      48.520   5.675  16.298  0.00  0.00    +0.000 C 
ATOM     11  O   UNL     1      49.460   5.910  15.544  0.00  0.00    +0.000 OA
ATOM     12  H   UNL     1      46.742   4.651  16.593  0.00  0.00    +0.000 HD
BRANCH  10  13
ATOM     13  C   UNL     1      48.477   6.244  17.652  0.00  0.00    +0.000 A 
ATOM     14  C   UNL     1      48.445   7.624  17.809  0.00  0.00    +0.000 A 
ATOM     15  S   UNL     1      48.357   8.127  19.435  0.00  0.00    +0.000 S 
ATOM     16  C   UNL     1      48.413   6.519  19.991  0.00  0.00    +0.000 A 
ATOM     17  N   UNL     1      48.399   6.242  21.323  0.00  0.00    +0.000 NA
ATOM     18  C   UNL     1      48.487   4.985  21.605  0.00  0.00    +0.000 A 
ATOM     19  N   UNL     1      48.580   3.981  20.677  0.00  0.00    +0.000 N 
ATOM     20  C   UNL     1      48.546   4.209  19.322  0.00  0.00    +0.000 A 
ATOM     21  O   UNL     1      48.550   3.281  18.518  0.00  0.00    +0.000 OA
ATOM     22  C   UNL     1      48.476   5.610  18.949  0.00  0.00    +0.000 A 
ATOM     23  H   UNL     1      48.629   3.015  20.967  0.00  0.00    +0.000 HD
ENDBRANCH  10  13
ENDBRANCH   8   9
ENDBRANCH   5   8
BRANCH   7  24
ATOM     24  C   UNL     1      43.831   4.870  10.993  0.00  0.00    +0.000 C 
BRANCH  24  25
ATOM     25  N   UNL     1      44.233   5.006   9.609  0.00  0.00    +0.000 N 
ATOM     26  C   UNL     1      45.039   4.072   8.991  0.00  0.00    +0.000 A 
ATOM     27  C   UNL     1      45.003   2.712   9.269  0.00  0.00    +0.000 A 
ATOM     28  C   UNL     1      45.791   1.830   8.525  0.00  0.00    +0.000 A 
ATOM     29  C   UNL     1      46.593   2.327   7.507  0.00  0.00    +0.000 A 
ATOM     30  C   UNL     1      46.571   3.691   7.290  0.00  0.00    +0.000 A 
ATOM     31  N   UNL     1      45.825   4.560   8.010  0.00  0.00    +0.000 NA
ATOM     32  H   UNL     1      44.543   5.931   9.330  0.00  0.00    +0.000 HD
ENDBRANCH  24  25
ENDBRANCH   7  24
TORSDOF 5
ENDMDL
MODEL 5
REMARK VINA RESULT:    -7.884      4.837      6.029
REMARK INTER + INTRA:         -11.164
REMARK INTER:                  -9.743
REMARK INTRA:                  -1.421
REMARK UNBOUND:                -0.976
REMARK  Name = 
REMARK  6 active torsions:
REMARK  status: ('A' for Active; 'I' for Inactive)
REMARK    1  A    between atoms: C_1  and  C_2
REMARK    2  A    between atoms: C_5  and  C_6
REMARK    3  A    between atoms: C_6  and  N_7
REMARK    4  A    between atoms: C_8  and  C_10
REMARK    5  A    between atoms: C_21  and  C_22
REMARK    6  A    between atoms: C_22  and  N_23
REMARK                            x       y       z     vdW  Elec       q    Type
REMARK                         _______ _______ _______ _____ _____    ______ ____
ROOT
ATOM      1  C   UNL     1      45.405   3.041  12.519  0.00  0.00    +0.000 C 
ATOM      2  C   UNL     1      45.478   4.543  12.475  0.00  0.00    +0.000 A 
ATOM      3  C   UNL     1      46.353   5.199  13.358  0.00  0.00    +0.000 A 
ATOM      4  C   UNL     1      46.482   6.589  13.350  0.00  0.00    +0.000 A 
ATOM      5  C   UNL     1      45.746   7.363  12.449  0.00  0.00    +0.000 A 
ATOM      6  C   UNL     1      44.860   6.713  11.575  0.00  0.00    +0.000 A 
ATOM      7  C   UNL     1      44.693   5.309  11.588  0.00  0.00    +0.000 A 
ENDROOT
BRANCH   5   8
ATOM      8  C   UNL     1      45.944   8.859  12.389  0.00  0.00    +0.000 C 
BRANCH   8   9
ATOM      9  N   UNL     1      47.233   9.214  11.844  0.00  0.00    +0.000 N 
ATOM     10  C   UNL     1      48.214   9.804  12.597  0.00  0.00    +0.000 C 
ATOM     11  O   UNL     1      48.067  10.051  13.790  0.00  0.00    +0.000 OA
ATOM     12  H   UNL     1      47.343   9.133  10.839  0.00  0.00    +0.000 HD
BRANCH  10  13
ATOM     13  C   UNL     1      49.489  10.077  11.920  0.00  0.00    +0.000 A 
ATOM     14  C   UNL     1      49.866  11.394  11.684  0.00  0.00    +0.000 A 
ATOM     15  S   UNL     1      51.384  11.547  10.927  0.00  0.00    +0.000 S 
ATOM     16  C   UNL     1      51.571   9.858  10.838  0.00  0.00    +0.000 A 
ATOM     17  N   UNL     1      52.674   9.308  10.262  0.00  0.00    +0.000 NA
ATOM     18  C   UNL     1      52.667   8.018  10.225  0.00  0.00    +0.000 A 
ATOM     19  N   UNL     1      51.662   7.228  10.719  0.00  0.00    +0.000 N 
ATOM     20  C   UNL     1      50.553   7.736  11.354  0.00  0.00    +0.000 A 
ATOM     21  O   UNL     1      49.711   6.999  11.857  0.00  0.00    +0.000 OA
ATOM     22  C   UNL     1      50.497   9.186  11.398  0.00  0.00    +0.000 A 
ATOM     23  H   UNL     1      51.729   6.221  10.673  0.00  0.00    +0.000 HD
ENDBRANCH  10  13
ENDBRANCH   8   9
ENDBRANCH   5   8
BRANCH   7  24
ATOM     24  C   UNL     1      43.682   4.690  10.635  0.00  0.00    +0.000 C 
BRANCH  24  25
ATOM     25  N   UNL     1      44.152   4.787   9.270  0.00  0.00    +0.000 N 
ATOM     26  C   UNL     1      45.034   3.869   8.738  0.00  0.00    +0.000 A 
ATOM     27  C   UNL     1      45.047   2.522   9.075  0.00  0.00    +0.000 A 
ATOM     28  C   UNL     1      45.915   1.648   8.414  0.00  0.00    +0.000 A 
ATOM     29  C   UNL     1      46.748   2.141   7.418  0.00  0.00    +0.000 A 
ATOM     30  C   UNL     1      46.674   3.491   7.139  0.00  0.00    +0.000 A 
ATOM     31  N   UNL     1      45.849   4.353   7.779  0.00  0.00    +0.000 NA
ATOM     32  H   UNL     1      44.434   5.714   8.966  0.00  0.00    +0.000 HD
ENDBRANCH  24  25
ENDBRANCH   7  24
TORSDOF 5
ENDMDL
MODEL 6
REMARK VINA RESULT:    -7.704      3.641      8.468
REMARK INTER + INTRA:         -10.931
REMARK INTER:                  -9.520
REMARK INTRA:                  -1.412
REMARK UNBOUND:                -0.976
REMARK  Name = 
REMARK  6 active torsions:
REMARK  status: ('A' for Active; 'I' for Inactive)
REMARK    1  A    between atoms: C_1  and  C_2
REMARK    2  A    between atoms: C_5  and  C_6
REMARK    3  A    between atoms: C_6  and  N_7
REMARK    4  A    between atoms: C_8  and  C_10
REMARK    5  A    between atoms: C_21  and  C_22
REMARK    6  A    between atoms: C_22  and  N_23
REMARK                            x       y       z     vdW  Elec       q    Type
REMARK                         _______ _______ _______ _____ _____    ______ ____
ROOT
ATOM      1  C   UNL     1      51.814   7.707  16.185  0.00  0.00    +0.000 C 
ATOM      2  C   UNL     1      50.773   7.821  15.105  0.00  0.00    +0.000 A 
ATOM      3  C   UNL     1      51.195   8.089  13.791  0.00  0.00    +0.000 A 
ATOM      4  C   UNL     1      50.279   8.184  12.742  0.00  0.00    +0.000 A 
ATOM      5  C   UNL     1      48.913   8.004  12.975  0.00  0.00    +0.000 A 
ATOM      6  C   UNL     1      48.486   7.751  14.289  0.00  0.00    +0.000 A 
ATOM      7  C   UNL     1      49.394   7.680  15.370  0.00  0.00    +0.000 A 
ENDROOT
BRANCH   5   8
ATOM      8  C   UNL     1      47.932   8.031  11.828  0.00  0.00    +0.000 C 
BRANCH   8   9
ATOM      9  N   UNL     1      47.129   6.833  11.774  0.00  0.00    +0.000 N 
ATOM     10  C   UNL     1      45.759   6.863  11.779  0.00  0.00    +0.000 C 
ATOM     11  O   UNL     1      45.126   7.915  11.809  0.00  0.00    +0.000 OA
ATOM     12  H   UNL     1      47.618   5.949  11.870  0.00  0.00    +0.000 HD
BRANCH  10  13
ATOM     13  C   UNL     1      45.070   5.569  11.685  0.00  0.00    +0.000 A 
ATOM     14  C   UNL     1      44.381   5.083  12.789  0.00  0.00    +0.000 A 
ATOM     15  S   UNL     1      43.605   3.592  12.512  0.00  0.00    +0.000 S 
ATOM     16  C   UNL     1      44.207   3.514  10.922  0.00  0.00    +0.000 A 
ATOM     17  N   UNL     1      43.928   2.449  10.123  0.00  0.00    +0.000 NA
ATOM     18  C   UNL     1      44.481   2.498   8.958  0.00  0.00    +0.000 A 
ATOM     19  N   UNL     1      45.280   3.521   8.516  0.00  0.00    +0.000 N 
ATOM     20  C   UNL     1      45.548   4.641   9.268  0.00  0.00    +0.000 A 
ATOM     21  O   UNL     1      46.202   5.574   8.813  0.00  0.00    +0.000 OA
ATOM     22  C   UNL     1      44.972   4.622  10.600  0.00  0.00    +0.000 A 
ATOM     23  H   UNL     1      45.668   3.505   7.584  0.00  0.00    +0.000 HD
ENDBRANCH  10  13
ENDBRANCH   8   9
ENDBRANCH   5   8
BRANCH   7  24
ATOM     24  C   UNL     1      48.842   7.443  16.767  0.00  0.00    +0.000 C 
BRANCH  24  25
ATOM     25  N   UNL     1      48.085   6.210  16.806  0.00  0.00    +0.000 N 
ATOM     26  C   UNL     1      48.704   4.979  16.888  0.00  0.00    +0.000 A 
ATOM     27  C   UNL     1      49.885   4.751  17.582  0.00  0.00    +0.000 A 
ATOM     28  C   UNL     1      50.387   3.450  17.689  0.00  0.00    +0.000 A 
ATOM     29  C   UNL     1      49.689   2.402  17.106  0.00  0.00    +0.000 A 
ATOM     30  C   UNL     1      48.522   2.710  16.436  0.00  0.00    +0.000 A 
ATOM     31  N   UNL     1      48.029   3.965  16.311  0.00  0.00    +0.000 NA
ATOM     32  H   UNL     1      47.322   6.141  16.140  0.00  0.00    +0.000 HD
ENDBRANCH  24  25
ENDBRANCH   7  24
TORSDOF 5
ENDMDL
MODEL 7
REMARK VINA RESULT:    -7.542      3.959      4.888
REMARK INTER + INTRA:         -10.722
REMARK INTER:                  -9.569
REMARK INTRA:                  -1.153
REMARK UNBOUND:                -0.976
REMARK  Name = 
REMARK  6 active torsions:
REMARK  status: ('A' for Active; 'I' for Inactive)
REMARK    1  A    between atoms: C_1  and  C_2
REMARK    2  A    between atoms: C_5  and  C_6
REMARK    3  A    between atoms: C_6  and  N_7
REMARK    4  A    between atoms: C_8  and  C_10
REMARK    5  A    between atoms: C_21  and  C_22
REMARK    6  A    between atoms: C_22  and  N_23
REMARK                            x       y       z     vdW  Elec       q    Type
REMARK                         _______ _______ _______ _____ _____    ______ ____
ROOT
ATOM      1  C   UNL     1      45.455   3.121  12.494  0.00  0.00    +0.000 C 
ATOM      2  C   UNL     1      45.439   4.623  12.424  0.00  0.00    +0.000 A 
ATOM      3  C   UNL     1      46.268   5.345  13.301  0.00  0.00    +0.000 A 
ATOM      4  C   UNL     1      46.314   6.741  13.269  0.00  0.00    +0.000 A 
ATOM      5  C   UNL     1      45.539   7.454  12.351  0.00  0.00    +0.000 A 
ATOM      6  C   UNL     1      44.698   6.737  11.484  0.00  0.00    +0.000 A 
ATOM      7  C   UNL     1      44.615   5.327  11.520  0.00  0.00    +0.000 A 
ENDROOT
BRANCH   5   8
ATOM      8  C   UNL     1      45.647   8.958  12.266  0.00  0.00    +0.000 C 
BRANCH   8   9
ATOM      9  N   UNL     1      46.697   9.474  13.111  0.00  0.00    +0.000 N 
ATOM     10  C   UNL     1      47.973   9.683  12.657  0.00  0.00    +0.000 C 
ATOM     11  O   UNL     1      48.300   9.464  11.494  0.00  0.00    +0.000 OA
ATOM     12  H   UNL     1      46.491   9.551  14.101  0.00  0.00    +0.000 HD
BRANCH  10  13
ATOM     13  C   UNL     1      48.931  10.246  13.618  0.00  0.00    +0.000 A 
ATOM     14  C   UNL     1      48.959  11.620  13.825  0.00  0.00    +0.000 A 
ATOM     15  S   UNL     1      50.095  12.114  14.995  0.00  0.00    +0.000 S 
ATOM     16  C   UNL     1      50.628  10.515  15.231  0.00  0.00    +0.000 A 
ATOM     17  N   UNL     1      51.630  10.236  16.107  0.00  0.00    +0.000 NA
ATOM     18  C   UNL     1      51.963   8.990  16.157  0.00  0.00    +0.000 A 
ATOM     19  N   UNL     1      51.378   7.996  15.416  0.00  0.00    +0.000 N 
ATOM     20  C   UNL     1      50.329   8.221  14.556  0.00  0.00    +0.000 A 
ATOM     21  O   UNL     1      49.775   7.297  13.968  0.00  0.00    +0.000 OA
ATOM     22  C   UNL     1      49.933   9.613  14.442  0.00  0.00    +0.000 A 
ATOM     23  H   UNL     1      51.676   7.037  15.516  0.00  0.00    +0.000 HD
ENDBRANCH  10  13
ENDBRANCH   8   9
ENDBRANCH   5   8
BRANCH   7  24
ATOM     24  C   UNL     1      43.648   4.632  10.573  0.00  0.00    +0.000 C 
BRANCH  24  25
ATOM     25  N   UNL     1      44.124   4.728   9.210  0.00  0.00    +0.000 N 
ATOM     26  C   UNL     1      45.024   3.821   8.688  0.00  0.00    +0.000 A 
ATOM     27  C   UNL     1      45.058   2.476   9.035  0.00  0.00    +0.000 A 
ATOM     28  C   UNL     1      45.943   1.613   8.383  0.00  0.00    +0.000 A 
ATOM     29  C   UNL     1      46.773   2.113   7.389  0.00  0.00    +0.000 A 
ATOM     30  C   UNL     1      46.678   3.460   7.100  0.00  0.00    +0.000 A 
ATOM     31  N   UNL     1      45.836   4.312   7.731  0.00  0.00    +0.000 NA
ATOM     32  H   UNL     1      44.392   5.657   8.901  0.00  0.00    +0.000 HD
ENDBRANCH  24  25
ENDBRANCH   7  24
TORSDOF 5
ENDMDL
MODEL 8
REMARK VINA RESULT:    -7.350      3.780      4.528
REMARK INTER + INTRA:         -10.474
REMARK INTER:                  -9.474
REMARK INTRA:                  -1.000
REMARK UNBOUND:                -0.976
REMARK  Name = 
REMARK  6 active torsions:
REMARK  status: ('A' for Active; 'I' for Inactive)
REMARK    1  A    between atoms: C_1  and  C_2
REMARK    2  A    between atoms: C_5  and  C_6
REMARK    3  A    between atoms: C_6  and  N_7
REMARK    4  A    between atoms: C_8  and  C_10
REMARK    5  A    between atoms: C_21  and  C_22
REMARK    6  A    between atoms: C_22  and  N_23
REMARK                            x       y       z     vdW  Elec       q    Type
REMARK                         _______ _______ _______ _____ _____    ______ ____
ROOT
ATOM      1  C   UNL     1      43.484   2.488  12.359  0.00  0.00    +0.000 C 
ATOM      2  C   UNL     1      44.277   3.746  12.129  0.00  0.00    +0.000 A 
ATOM      3  C   UNL     1      44.572   4.565  13.232  0.00  0.00    +0.000 A 
ATOM      4  C   UNL     1      45.322   5.733  13.086  0.00  0.00    +0.000 A 
ATOM      5  C   UNL     1      45.811   6.110  11.833  0.00  0.00    +0.000 A 
ATOM      6  C   UNL     1      45.507   5.301  10.725  0.00  0.00    +0.000 A 
ATOM      7  C   UNL     1      44.723   4.131  10.847  0.00  0.00    +0.000 A 
ENDROOT
BRANCH   5   8
ATOM      8  C   UNL     1      46.687   7.331  11.689  0.00  0.00    +0.000 C 
BRANCH   8   9
ATOM      9  N   UNL     1      47.859   7.258  12.528  0.00  0.00    +0.000 N 
ATOM     10  C   UNL     1      47.998   8.006  13.668  0.00  0.00    +0.000 C 
ATOM     11  O   UNL     1      47.123   8.772  14.061  0.00  0.00    +0.000 OA
ATOM     12  H   UNL     1      48.647   6.727  12.170  0.00  0.00    +0.000 HD
BRANCH  10  13
ATOM     13  C   UNL     1      49.229   7.803  14.444  0.00  0.00    +0.000 A 
ATOM     14  C   UNL     1      49.140   7.381  15.764  0.00  0.00    +0.000 A 
ATOM     15  S   UNL     1      50.652   7.155  16.516  0.00  0.00    +0.000 S 
ATOM     16  C   UNL     1      51.482   7.665  15.120  0.00  0.00    +0.000 A 
ATOM     17  N   UNL     1      52.840   7.732  15.103  0.00  0.00    +0.000 NA
ATOM     18  C   UNL     1      53.337   8.173  13.997  0.00  0.00    +0.000 A 
ATOM     19  N   UNL     1      52.600   8.546  12.904  0.00  0.00    +0.000 N 
ATOM     20  C   UNL     1      51.229   8.449  12.856  0.00  0.00    +0.000 A 
ATOM     21  O   UNL     1      50.604   8.715  11.834  0.00  0.00    +0.000 OA
ATOM     22  C   UNL     1      50.616   7.983  14.087  0.00  0.00    +0.000 A 
ATOM     23  H   UNL     1      53.054   8.868  12.061  0.00  0.00    +0.000 HD
ENDBRANCH  10  13
ENDBRANCH   8   9
ENDBRANCH   5   8
BRANCH   7  24
ATOM     24  C   UNL     1      44.407   3.335   9.589  0.00  0.00    +0.000 C 
BRANCH  24  25
ATOM     25  N   UNL     1      45.345   2.243   9.437  0.00  0.00    +0.000 N 
ATOM     26  C   UNL     1      46.027   2.030   8.256  0.00  0.00    +0.000 A 
ATOM     27  C   UNL     1      46.451   3.048   7.412  0.00  0.00    +0.000 A 
ATOM     28  C   UNL     1      47.219   2.741   6.285  0.00  0.00    +0.000 A 
ATOM     29  C   UNL     1      47.556   1.418   6.031  0.00  0.00    +0.000 A 
ATOM     30  C   UNL     1      47.098   0.465   6.919  0.00  0.00    +0.000 A 
ATOM     31  N   UNL     1      46.342   0.743   8.007  0.00  0.00    +0.000 NA
ATOM     32  H   UNL     1      45.035   1.345   9.794  0.00  0.00    +0.000 HD
ENDBRANCH  24  25
ENDBRANCH   7  24
TORSDOF 5
ENDMDL
MODEL 9
REMARK VINA RESULT:    -7.237      3.303      8.331
REMARK INTER + INTRA:         -10.329
REMARK INTER:                  -9.079
REMARK INTRA:                  -1.249
REMARK UNBOUND:                -0.976
REMARK  Name = 
REMARK  6 active torsions:
REMARK  status: ('A' for Active; 'I' for Inactive)
REMARK    1  A    between atoms: C_1  and  C_2
REMARK    2  A    between atoms: C_5  and  C_6
REMARK    3  A    between atoms: C_6  and  N_7
REMARK    4  A    between atoms: C_8  and  C_10
REMARK    5  A    between atoms: C_21  and  C_22
REMARK    6  A    between atoms: C_22  and  N_23
REMARK                            x       y       z     vdW  Elec       q    Type
REMARK                         _______ _______ _______ _____ _____    ______ ____
ROOT
ATOM      1  C   UNL     1      47.390   8.226  21.659  0.00  0.00    +0.000 C 
ATOM      2  C   UNL     1      47.633   8.477  20.196  0.00  0.00    +0.000 A 
ATOM      3  C   UNL     1      47.245   9.714  19.653  0.00  0.00    +0.000 A 
ATOM      4  C   UNL     1      47.464  10.015  18.308  0.00  0.00    +0.000 A 
ATOM      5  C   UNL     1      48.087   9.089  17.467  0.00  0.00    +0.000 A 
ATOM      6  C   UNL     1      48.464   7.846  18.002  0.00  0.00    +0.000 A 
ATOM      7  C   UNL     1      48.224   7.511  19.354  0.00  0.00    +0.000 A 
ENDROOT
BRANCH   5   8
ATOM      8  C   UNL     1      48.393   9.445  16.032  0.00  0.00    +0.000 C 
BRANCH   8   9
ATOM      9  N   UNL     1      47.447   8.857  15.115  0.00  0.00    +0.000 N 
ATOM     10  C   UNL     1      47.832   8.060  14.068  0.00  0.00    +0.000 C 
ATOM     11  O   UNL     1      49.008   7.778  13.856  0.00  0.00    +0.000 OA
ATOM     12  H   UNL     1      46.484   9.166  15.190  0.00  0.00    +0.000 HD
BRANCH  10  13
ATOM     13  C   UNL     1      46.759   7.500  13.236  0.00  0.00    +0.000 A 
ATOM     14  C   UNL     1      45.972   8.356  12.475  0.00  0.00    +0.000 A 
ATOM     15  S   UNL     1      44.797   7.554  11.536  0.00  0.00    +0.000 S 
ATOM     16  C   UNL     1      45.262   6.038  12.153  0.00  0.00    +0.000 A 
ATOM     17  N   UNL     1      44.621   4.902  11.766  0.00  0.00    +0.000 NA
ATOM     18  C   UNL     1      45.047   3.828  12.341  0.00  0.00    +0.000 A 
ATOM     19  N   UNL     1      46.062   3.786  13.262  0.00  0.00    +0.000 N 
ATOM     20  C   UNL     1      46.773   4.899  13.645  0.00  0.00    +0.000 A 
ATOM     21  O   UNL     1      47.728   4.815  14.410  0.00  0.00    +0.000 OA
ATOM     22  C   UNL     1      46.314   6.140  13.047  0.00  0.00    +0.000 A 
ATOM     23  H   UNL     1      46.358   2.907  13.661  0.00  0.00    +0.000 HD
ENDBRANCH  10  13
ENDBRANCH   8   9
ENDBRANCH   5   8
BRANCH   7  24
ATOM     24  C   UNL     1      48.627   6.127  19.841  0.00  0.00    +0.000 C 
BRANCH  24  25
ATOM     25  N   UNL     1      49.632   5.560  18.967  0.00  0.00    +0.000 N 
ATOM     26  C   UNL     1      49.424   4.372  18.296  0.00  0.00    +0.000 A 
ATOM     27  C   UNL     1      48.189   3.961  17.812  0.00  0.00    +0.000 A 
ATOM     28  C   UNL     1      48.093   2.786  17.061  0.00  0.00    +0.000 A 
ATOM     29  C   UNL     1      49.241   2.050  16.800  0.00  0.00    +0.000 A 
ATOM     30  C   UNL     1      50.431   2.526  17.313  0.00  0.00    +0.000 A 
ATOM     31  N   UNL     1      50.539   3.654  18.054  0.00  0.00    +0.000 NA
ATOM     32  H   UNL     1      50.580   5.561  19.329  0.00  0.00    +0.000 HD
ENDBRANCH  24  25
ENDBRANCH   7  24
TORSDOF 5
ENDMDL
