MODEL 1
REMARK VINA RESULT:    -7.517      0.000      0.000
REMARK INTER + INTRA:          -9.391
REMARK INTER:                  -8.835
REMARK INTRA:                  -0.556
REMARK UNBOUND:                -0.556
REMARK  Name = 
REMARK  3 active torsions:
REMARK  status: ('A' for Active; 'I' for Inactive)
REMARK    1  A    between atoms: N_6  and  C_7
REMARK    2  A    between atoms: C_7  and  C_8
REMARK    3  A    between atoms: C_12  and  N_13
REMARK                            x       y       z     vdW  Elec       q    Type
REMARK                         _______ _______ _______ _____ _____    ______ ____
ROOT
ATOM      1  C   UNL     1      44.544   4.710  12.119  0.00  0.00    +0.000 C 
ATOM      2  C   UNL     1      43.300   4.918  12.984  0.00  0.00    +0.000 C 
ATOM      3  C   UNL     1      43.539   5.809  11.816  0.00  0.00    +0.000 C 
ENDROOT
BRANCH   1   9
ATOM      4 CL   UNL     1      46.696   3.055   5.852  0.00  0.00    +0.000 Cl
ATOM      5  C   UNL     1      46.043   3.151   7.432  0.00  0.00    +0.000 A 
ATOM      6  C   UNL     1      45.618   2.010   8.099  0.00  0.00    +0.000 A 
ATOM      7  C   UNL     1      45.132   2.140   9.403  0.00  0.00    +0.000 A 
ATOM      8  C   UNL     1      45.093   3.394  10.020  0.00  0.00    +0.000 A 
ATOM      9  N   UNL     1      44.624   3.438  11.360  0.00  0.00    +0.000 N 
ATOM     10  N   UNL     1      45.471   4.505   9.358  0.00  0.00    +0.000 NA
ATOM     11  C   UNL     1      45.933   4.362   8.093  0.00  0.00    +0.000 A 
ATOM     12  H   UNL     1      45.164   2.743  11.871  0.00  0.00    +0.000 HD
ENDBRANCH   1   9
BRANCH   1  13
ATOM     13  C   UNL     1      45.869   5.151  12.731  0.00  0.00    +0.000 A 
ATOM     14  C   UNL     1      46.604   6.196  12.161  0.00  0.00    +0.000 A 
ATOM     15  C   UNL     1      47.649   6.782  12.863  0.00  0.00    +0.000 A 
ATOM     16  C   UNL     1      47.968   6.323  14.142  0.00  0.00    +0.000 A 
ATOM     17  C   UNL     1      47.312   5.227  14.723  0.00  0.00    +0.000 A 
ATOM     18  C   UNL     1      46.312   4.619  13.961  0.00  0.00    +0.000 A 
BRANCH  17  19
ATOM     19  N   UNL     1      47.611   4.822  16.012  0.00  0.00    +0.000 N 
ATOM     20  C   UNL     1      48.489   5.592  16.896  0.00  0.00    +0.000 C 
ATOM     21  C   UNL     1      49.794   4.848  17.171  0.00  0.00    +0.000 C 
ATOM     22  C   UNL     1      49.526   3.428  17.661  0.00  0.00    +0.000 C 
ATOM     23  C   UNL     1      48.648   2.681  16.665  0.00  0.00    +0.000 C 
ATOM     24  C   UNL     1      47.344   3.430  16.386  0.00  0.00    +0.000 C 
ENDBRANCH  17  19
ENDBRANCH   1  13
TORSDOF 3
ENDMDL
MODEL 2
REMARK VINA RESULT:    -7.345      2.138      3.688
REMARK INTER + INTRA:          -9.189
REMARK INTER:                  -8.431
REMARK INTRA:                  -0.758
REMARK UNBOUND:                -0.556
REMARK  Name = 
REMARK  3 active torsions:
REMARK  status: ('A' for Active; 'I' for Inactive)
REMARK    1  A    between atoms: N_6  and  C_7
REMARK    2  A    between atoms: C_7  and  C_8
REMARK    3  A    between atoms: C_12  and  N_13
REMARK                            x       y       z     vdW  Elec       q    Type
REMARK                         _______ _______ _______ _____ _____    ______ ____
ROOT
ATOM      1  C   UNL     1      44.081   4.798  11.609  0.00  0.00    +0.000 C 
ATOM      2  C   UNL     1      42.692   5.017  12.213  0.00  0.00    +0.000 C 
ATOM      3  C   UNL     1      43.119   5.828  11.039  0.00  0.00    +0.000 C 
ENDROOT
BRANCH   1   9
ATOM      4 CL   UNL     1      47.189   2.790   5.869  0.00  0.00    +0.000 Cl
ATOM      5  C   UNL     1      46.312   2.970   7.329  0.00  0.00    +0.000 A 
ATOM      6  C   UNL     1      45.858   1.860   8.030  0.00  0.00    +0.000 A 
ATOM      7  C   UNL     1      45.185   2.063   9.238  0.00  0.00    +0.000 A 
ATOM      8  C   UNL     1      44.992   3.357   9.731  0.00  0.00    +0.000 A 
ATOM      9  N   UNL     1      44.335   3.477  10.984  0.00  0.00    +0.000 N 
ATOM     10  N   UNL     1      45.401   4.434   9.032  0.00  0.00    +0.000 NA
ATOM     11  C   UNL     1      46.045   4.219   7.860  0.00  0.00    +0.000 A 
ATOM     12  H   UNL     1      44.833   2.862  11.624  0.00  0.00    +0.000 HD
ENDBRANCH   1   9
BRANCH   1  13
ATOM     13  C   UNL     1      45.256   5.340  12.415  0.00  0.00    +0.000 A 
ATOM     14  C   UNL     1      45.772   4.617  13.496  0.00  0.00    +0.000 A 
ATOM     15  C   UNL     1      47.000   4.961  14.046  0.00  0.00    +0.000 A 
ATOM     16  C   UNL     1      47.719   6.034  13.519  0.00  0.00    +0.000 A 
ATOM     17  C   UNL     1      47.207   6.838  12.489  0.00  0.00    +0.000 A 
ATOM     18  C   UNL     1      45.941   6.504  12.004  0.00  0.00    +0.000 A 
BRANCH  17  19
ATOM     19  N   UNL     1      47.960   7.866  11.948  0.00  0.00    +0.000 N 
ATOM     20  C   UNL     1      49.335   7.673  11.482  0.00  0.00    +0.000 C 
ATOM     21  C   UNL     1      50.332   8.424  12.362  0.00  0.00    +0.000 C 
ATOM     22  C   UNL     1      49.937   9.890  12.516  0.00  0.00    +0.000 C 
ATOM     23  C   UNL     1      48.514  10.002  13.049  0.00  0.00    +0.000 C 
ATOM     24  C   UNL     1      47.518   9.245  12.170  0.00  0.00    +0.000 C 
ENDBRANCH  17  19
ENDBRANCH   1  13
TORSDOF 3
ENDMDL
MODEL 3
REMARK VINA RESULT:    -6.476      3.454      7.251
REMARK INTER + INTRA:          -8.169
REMARK INTER:                  -7.471
REMARK INTRA:                  -0.697
REMARK UNBOUND:                -0.556
REMARK  Name = 
REMARK  3 active torsions:
REMARK  status: ('A' for Active; 'I' for Inactive)
REMARK    1  A    between atoms: N_6  and  C_7
REMARK    2  A    between atoms: C_7  and  C_8
REMARK    3  A    between atoms: C_12  and  N_13
REMARK                            x       y       z     vdW  Elec       q    Type
REMARK                         _______ _______ _______ _____ _____    ______ ____
ROOT
ATOM      1  C   UNL     1      46.019   7.713  12.041  0.00  0.00    +0.000 C 
ATOM      2  C   UNL     1      44.990   8.668  11.436  0.00  0.00    +0.000 C 
ATOM      3  C   UNL     1      45.117   8.568  12.916  0.00  0.00    +0.000 C 
ENDROOT
BRANCH   1   9
ATOM      4 CL   UNL     1      51.695   7.379  15.826  0.00  0.00    +0.000 Cl
ATOM      5  C   UNL     1      50.470   7.622  14.654  0.00  0.00    +0.000 A 
ATOM      6  C   UNL     1      50.784   8.061  13.374  0.00  0.00    +0.000 A 
ATOM      7  C   UNL     1      49.750   8.203  12.444  0.00  0.00    +0.000 A 
ATOM      8  C   UNL     1      48.435   7.891  12.798  0.00  0.00    +0.000 A 
ATOM      9  N   UNL     1      47.447   8.021  11.785  0.00  0.00    +0.000 N 
ATOM     10  N   UNL     1      48.127   7.500  14.050  0.00  0.00    +0.000 NA
ATOM     11  C   UNL     1      49.139   7.375  14.940  0.00  0.00    +0.000 A 
ATOM     12  H   UNL     1      47.794   7.498  10.984  0.00  0.00    +0.000 HD
ENDBRANCH   1   9
BRANCH   1  13
ATOM     13  C   UNL     1      45.682   6.228  11.966  0.00  0.00    +0.000 A 
ATOM     14  C   UNL     1      45.183   5.553  13.085  0.00  0.00    +0.000 A 
ATOM     15  C   UNL     1      44.616   4.293  12.947  0.00  0.00    +0.000 A 
ATOM     16  C   UNL     1      44.547   3.697  11.687  0.00  0.00    +0.000 A 
ATOM     17  C   UNL     1      45.105   4.300  10.549  0.00  0.00    +0.000 A 
ATOM     18  C   UNL     1      45.726   5.537  10.735  0.00  0.00    +0.000 A 
BRANCH  17  19
ATOM     19  N   UNL     1      44.979   3.714   9.301  0.00  0.00    +0.000 N 
ATOM     20  C   UNL     1      44.718   2.284   9.125  0.00  0.00    +0.000 C 
ATOM     21  C   UNL     1      45.916   1.572   8.500  0.00  0.00    +0.000 C 
ATOM     22  C   UNL     1      46.370   2.273   7.222  0.00  0.00    +0.000 C 
ATOM     23  C   UNL     1      46.666   3.742   7.501  0.00  0.00    +0.000 C 
ATOM     24  C   UNL     1      45.467   4.452   8.132  0.00  0.00    +0.000 C 
ENDBRANCH  17  19
ENDBRANCH   1  13
TORSDOF 3
ENDMDL
MODEL 4
REMARK VINA RESULT:    -6.442      5.324      7.815
REMARK INTER + INTRA:          -8.128
REMARK INTER:                  -7.529
REMARK INTRA:                  -0.599
REMARK UNBOUND:                -0.556
REMARK  Name = 
REMARK  3 active torsions:
REMARK  status: ('A' for Active; 'I' for Inactive)
REMARK    1  A    between atoms: N_6  and  C_7
REMARK    2  A    between atoms: C_7  and  C_8
REMARK    3  A    between atoms: C_12  and  N_13
REMARK                            x       y       z     vdW  Elec       q    Type
REMARK                         _______ _______ _______ _____ _____    ______ ____
ROOT
ATOM      1  C   UNL     1      43.953  10.636  10.839  0.00  0.00    +0.000 C 
ATOM      2  C   UNL     1      44.895  11.524  10.024  0.00  0.00    +0.000 C 
ATOM      3  C   UNL     1      43.819  10.764   9.330  0.00  0.00    +0.000 C 
ENDROOT
BRANCH   1   9
ATOM      4 CL   UNL     1      37.223  10.494  11.991  0.00  0.00    +0.000 Cl
ATOM      5  C   UNL     1      38.909  10.789  11.920  0.00  0.00    +0.000 A 
ATOM      6  C   UNL     1      39.523  11.644  12.826  0.00  0.00    +0.000 A 
ATOM      7  C   UNL     1      40.908  11.816  12.750  0.00  0.00    +0.000 A 
ATOM      8  C   UNL     1      41.653  11.125  11.791  0.00  0.00    +0.000 A 
ATOM      9  N   UNL     1      43.060  11.321  11.804  0.00  0.00    +0.000 N 
ATOM     10  N   UNL     1      41.052  10.323  10.890  0.00  0.00    +0.000 NA
ATOM     11  C   UNL     1      39.708  10.174  10.973  0.00  0.00    +0.000 A 
ATOM     12  H   UNL     1      43.360  11.150  12.761  0.00  0.00    +0.000 HD
ENDBRANCH   1   9
BRANCH   1  13
ATOM     13  C   UNL     1      44.545   9.331  11.359  0.00  0.00    +0.000 A 
ATOM     14  C   UNL     1      45.613   9.343  12.262  0.00  0.00    +0.000 A 
ATOM     15  C   UNL     1      45.963   8.186  12.946  0.00  0.00    +0.000 A 
ATOM     16  C   UNL     1      45.248   7.008  12.730  0.00  0.00    +0.000 A 
ATOM     17  C   UNL     1      44.221   6.927  11.776  0.00  0.00    +0.000 A 
ATOM     18  C   UNL     1      43.940   8.091  11.058  0.00  0.00    +0.000 A 
BRANCH  17  19
ATOM     19  N   UNL     1      43.492   5.761  11.614  0.00  0.00    +0.000 N 
ATOM     20  C   UNL     1      42.891   5.046  12.741  0.00  0.00    +0.000 C 
ATOM     21  C   UNL     1      43.567   3.695  12.967  0.00  0.00    +0.000 C 
ATOM     22  C   UNL     1      43.612   2.878  11.678  0.00  0.00    +0.000 C 
ATOM     23  C   UNL     1      44.293   3.675  10.571  0.00  0.00    +0.000 C 
ATOM     24  C   UNL     1      43.619   5.030  10.351  0.00  0.00    +0.000 C 
ENDBRANCH  17  19
ENDBRANCH   1  13
TORSDOF 3
ENDMDL
MODEL 5
REMARK VINA RESULT:    -6.108      2.973      4.433
REMARK INTER + INTRA:          -7.736
REMARK INTER:                  -7.061
REMARK INTRA:                  -0.675
REMARK UNBOUND:                -0.556
REMARK  Name = 
REMARK  3 active torsions:
REMARK  status: ('A' for Active; 'I' for Inactive)
REMARK    1  A    between atoms: N_6  and  C_7
REMARK    2  A    between atoms: C_7  and  C_8
REMARK    3  A    between atoms: C_12  and  N_13
REMARK                            x       y       z     vdW  Elec       q    Type
REMARK                         _______ _______ _______ _____ _____    ______ ____
ROOT
ATOM      1  C   UNL     1      48.217   7.736  13.392  0.00  0.00    +0.000 C 
ATOM      2  C   UNL     1      49.110   8.620  12.520  0.00  0.00    +0.000 C 
ATOM      3  C   UNL     1      49.280   7.141  12.482  0.00  0.00    +0.000 C 
ENDROOT
BRANCH   1   9
ATOM      4 CL   UNL     1      43.577   2.809  12.472  0.00  0.00    +0.000 Cl
ATOM      5  C   UNL     1      44.495   4.250  12.591  0.00  0.00    +0.000 A 
ATOM      6  C   UNL     1      43.892   5.494  12.461  0.00  0.00    +0.000 A 
ATOM      7  C   UNL     1      44.681   6.638  12.609  0.00  0.00    +0.000 A 
ATOM      8  C   UNL     1      46.043   6.524  12.899  0.00  0.00    +0.000 A 
ATOM      9  N   UNL     1      46.768   7.732  13.075  0.00  0.00    +0.000 N 
ATOM     10  N   UNL     1      46.635   5.316  12.990  0.00  0.00    +0.000 NA
ATOM     11  C   UNL     1      45.857   4.218  12.836  0.00  0.00    +0.000 A 
ATOM     12  H   UNL     1      46.246   8.278  13.757  0.00  0.00    +0.000 HD
ENDBRANCH   1   9
BRANCH   1  13
ATOM     13  C   UNL     1      48.525   7.736  14.885  0.00  0.00    +0.000 A 
ATOM     14  C   UNL     1      48.422   8.914  15.633  0.00  0.00    +0.000 A 
ATOM     15  C   UNL     1      48.425   8.864  17.021  0.00  0.00    +0.000 A 
ATOM     16  C   UNL     1      48.533   7.634  17.671  0.00  0.00    +0.000 A 
ATOM     17  C   UNL     1      48.719   6.435  16.965  0.00  0.00    +0.000 A 
ATOM     18  C   UNL     1      48.778   6.530  15.573  0.00  0.00    +0.000 A 
BRANCH  17  19
ATOM     19  N   UNL     1      48.773   5.221  17.628  0.00  0.00    +0.000 N 
ATOM     20  C   UNL     1      50.009   4.699  18.214  0.00  0.00    +0.000 C 
ATOM     21  C   UNL     1      50.492   3.453  17.474  0.00  0.00    +0.000 C 
ATOM     22  C   UNL     1      49.381   2.413  17.361  0.00  0.00    +0.000 C 
ATOM     23  C   UNL     1      48.151   3.023  16.700  0.00  0.00    +0.000 C 
ATOM     24  C   UNL     1      47.672   4.273  17.438  0.00  0.00    +0.000 C 
ENDBRANCH  17  19
ENDBRANCH   1  13
TORSDOF 3
ENDMDL
MODEL 6
REMARK VINA RESULT:    -6.038      2.144      3.062
REMARK INTER + INTRA:          -7.653
REMARK INTER:                  -6.932
REMARK INTRA:                  -0.721
REMARK UNBOUND:                -0.556
REMARK  Name = 
REMARK  3 active torsions:
REMARK  status: ('A' for Active; 'I' for Inactive)
REMARK    1  A    between atoms: N_6  and  C_7
REMARK    2  A    between atoms: C_7  and  C_8
REMARK    3  A    between atoms: C_12  and  N_13
REMARK                            x       y       z     vdW  Elec       q    Type
REMARK                         _______ _______ _______ _____ _____    ______ ____
ROOT
ATOM      1  C   UNL     1      45.763   7.599  12.497  0.00  0.00    +0.000 C 
ATOM      2  C   UNL     1      45.192   8.951  12.928  0.00  0.00    +0.000 C 
ATOM      3  C   UNL     1      45.360   8.654  11.479  0.00  0.00    +0.000 C 
ENDROOT
BRANCH   1   9
ATOM      4 CL   UNL     1      44.340   1.834   9.122  0.00  0.00    +0.000 Cl
ATOM      5  C   UNL     1      44.459   3.172  10.185  0.00  0.00    +0.000 A 
ATOM      6  C   UNL     1      43.838   3.155  11.427  0.00  0.00    +0.000 A 
ATOM      7  C   UNL     1      44.004   4.255  12.272  0.00  0.00    +0.000 A 
ATOM      8  C   UNL     1      44.792   5.339  11.874  0.00  0.00    +0.000 A 
ATOM      9  N   UNL     1      44.945   6.401  12.805  0.00  0.00    +0.000 N 
ATOM     10  N   UNL     1      45.364   5.370  10.654  0.00  0.00    +0.000 NA
ATOM     11  C   UNL     1      45.188   4.298   9.846  0.00  0.00    +0.000 A 
ATOM     12  H   UNL     1      45.245   5.970  13.677  0.00  0.00    +0.000 HD
ENDBRANCH   1   9
BRANCH   1  13
ATOM     13  C   UNL     1      47.259   7.401  12.714  0.00  0.00    +0.000 A 
ATOM     14  C   UNL     1      48.166   7.633  11.675  0.00  0.00    +0.000 A 
ATOM     15  C   UNL     1      49.525   7.729  11.942  0.00  0.00    +0.000 A 
ATOM     16  C   UNL     1      49.987   7.592  13.251  0.00  0.00    +0.000 A 
ATOM     17  C   UNL     1      49.125   7.279  14.314  0.00  0.00    +0.000 A 
ATOM     18  C   UNL     1      47.774   7.124  13.999  0.00  0.00    +0.000 A 
BRANCH  17  19
ATOM     19  N   UNL     1      49.598   7.197  15.612  0.00  0.00    +0.000 N 
ATOM     20  C   UNL     1      50.959   7.595  15.980  0.00  0.00    +0.000 C 
ATOM     21  C   UNL     1      51.795   6.390  16.405  0.00  0.00    +0.000 C 
ATOM     22  C   UNL     1      51.083   5.576  17.482  0.00  0.00    +0.000 C 
ATOM     23  C   UNL     1      49.697   5.162  17.002  0.00  0.00    +0.000 C 
ATOM     24  C   UNL     1      48.862   6.370  16.571  0.00  0.00    +0.000 C 
ENDBRANCH  17  19
ENDBRANCH   1  13
TORSDOF 3
ENDMDL
MODEL 7
REMARK VINA RESULT:    -5.977      4.023      7.636
REMARK INTER + INTRA:          -7.581
REMARK INTER:                  -6.809
REMARK INTRA:                  -0.772
REMARK UNBOUND:                -0.556
REMARK  Name = 
REMARK  3 active torsions:
REMARK  status: ('A' for Active; 'I' for Inactive)
REMARK    1  A    between atoms: N_6  and  C_7
REMARK    2  A    between atoms: C_7  and  C_8
REMARK    3  A    between atoms: C_12  and  N_13
REMARK                            x       y       z     vdW  Elec       q    Type
REMARK                         _______ _______ _______ _____ _____    ______ ____
ROOT
ATOM      1  C   UNL     1      48.663   8.023  12.681  0.00  0.00    +0.000 C 
ATOM      2  C   UNL     1      49.547   7.891  11.439  0.00  0.00    +0.000 C 
ATOM      3  C   UNL     1      49.539   9.170  12.201  0.00  0.00    +0.000 C 
ENDROOT
BRANCH   1   9
ATOM      4 CL   UNL     1      48.127   8.732  19.452  0.00  0.00    +0.000 Cl
ATOM      5  C   UNL     1      48.438   8.276  17.831  0.00  0.00    +0.000 A 
ATOM      6  C   UNL     1      48.967   7.027  17.530  0.00  0.00    +0.000 A 
ATOM      7  C   UNL     1      49.162   6.690  16.187  0.00  0.00    +0.000 A 
ATOM      8  C   UNL     1      48.813   7.590  15.176  0.00  0.00    +0.000 A 
ATOM      9  N   UNL     1      49.003   7.158  13.836  0.00  0.00    +0.000 N 
ATOM     10  N   UNL     1      48.334   8.814  15.471  0.00  0.00    +0.000 NA
ATOM     11  C   UNL     1      48.158   9.127  16.777  0.00  0.00    +0.000 A 
ATOM     12  H   UNL     1      48.540   6.255  13.763  0.00  0.00    +0.000 HD
ENDBRANCH   1   9
BRANCH   1  13
ATOM     13  C   UNL     1      47.166   8.161  12.428  0.00  0.00    +0.000 A 
ATOM     14  C   UNL     1      46.592   9.419  12.216  0.00  0.00    +0.000 A 
ATOM     15  C   UNL     1      45.303   9.524  11.712  0.00  0.00    +0.000 A 
ATOM     16  C   UNL     1      44.577   8.369  11.417  0.00  0.00    +0.000 A 
ATOM     17  C   UNL     1      45.080   7.086  11.687  0.00  0.00    +0.000 A 
ATOM     18  C   UNL     1      46.353   7.020  12.256  0.00  0.00    +0.000 A 
BRANCH  17  19
ATOM     19  N   UNL     1      44.362   5.955  11.340  0.00  0.00    +0.000 N 
ATOM     20  C   UNL     1      42.989   5.723  11.793  0.00  0.00    +0.000 C 
ATOM     21  C   UNL     1      42.914   4.548  12.765  0.00  0.00    +0.000 C 
ATOM     22  C   UNL     1      43.584   3.306  12.182  0.00  0.00    +0.000 C 
ATOM     23  C   UNL     1      45.020   3.619  11.781  0.00  0.00    +0.000 C 
ATOM     24  C   UNL     1      45.094   4.800  10.812  0.00  0.00    +0.000 C 
ENDBRANCH  17  19
ENDBRANCH   1  13
TORSDOF 3
ENDMDL
MODEL 8
REMARK VINA RESULT:    -5.799      1.835      2.991
REMARK INTER + INTRA:          -7.373
REMARK INTER:                  -7.112
REMARK INTRA:                  -0.261
REMARK UNBOUND:                -0.556
REMARK  Name = 
REMARK  3 active torsions:
REMARK  status: ('A' for Active; 'I' for Inactive)
REMARK    1  A    between atoms: N_6  and  C_7
REMARK    2  A    between atoms: C_7  and  C_8
REMARK    3  A    between atoms: C_12  and  N_13
REMARK                            x       y       z     vdW  Elec       q    Type
REMARK                         _______ _______ _______ _____ _____    ______ ____
ROOT
ATOM      1  C   UNL     1      46.843   7.459  13.161  0.00  0.00    +0.000 C 
ATOM      2  C   UNL     1      46.258   8.856  13.370  0.00  0.00    +0.000 C 
ATOM      3  C   UNL     1      46.937   8.530  12.086  0.00  0.00    +0.000 C 
ENDROOT
BRANCH   1   9
ATOM      4 CL   UNL     1      44.562   3.370   8.188  0.00  0.00    +0.000 Cl
ATOM      5  C   UNL     1      44.891   4.250   9.620  0.00  0.00    +0.000 A 
ATOM      6  C   UNL     1      44.308   3.890  10.829  0.00  0.00    +0.000 A 
ATOM      7  C   UNL     1      44.644   4.616  11.975  0.00  0.00    +0.000 A 
ATOM      8  C   UNL     1      45.560   5.669  11.900  0.00  0.00    +0.000 A 
ATOM      9  N   UNL     1      45.880   6.332  13.115  0.00  0.00    +0.000 N 
ATOM     10  N   UNL     1      46.097   6.040  10.721  0.00  0.00    +0.000 NA
ATOM     11  C   UNL     1      45.755   5.330   9.620  0.00  0.00    +0.000 A 
ATOM     12  H   UNL     1      46.143   5.602  13.774  0.00  0.00    +0.000 HD
ENDBRANCH   1   9
BRANCH   1  13
ATOM     13  C   UNL     1      48.127   7.148  13.923  0.00  0.00    +0.000 A 
ATOM     14  C   UNL     1      49.300   7.863  13.664  0.00  0.00    +0.000 A 
ATOM     15  C   UNL     1      50.377   7.782  14.536  0.00  0.00    +0.000 A 
ATOM     16  C   UNL     1      50.288   6.980  15.675  0.00  0.00    +0.000 A 
ATOM     17  C   UNL     1      49.162   6.182  15.936  0.00  0.00    +0.000 A 
ATOM     18  C   UNL     1      48.125   6.238  15.002  0.00  0.00    +0.000 A 
BRANCH  17  19
ATOM     19  N   UNL     1      49.076   5.434  17.097  0.00  0.00    +0.000 N 
ATOM     20  C   UNL     1      50.196   4.643  17.609  0.00  0.00    +0.000 C 
ATOM     21  C   UNL     1      49.905   3.146  17.525  0.00  0.00    +0.000 C 
ATOM     22  C   UNL     1      48.568   2.806  18.176  0.00  0.00    +0.000 C 
ATOM     23  C   UNL     1      47.451   3.636  17.555  0.00  0.00    +0.000 C 
ATOM     24  C   UNL     1      47.746   5.135  17.636  0.00  0.00    +0.000 C 
ENDBRANCH  17  19
ENDBRANCH   1  13
TORSDOF 3
ENDMDL
MODEL 9
REMARK VINA RESULT:    -5.612      3.144      6.928
REMARK INTER + INTRA:          -7.152
REMARK INTER:                  -7.613
REMARK INTRA:                   0.461
REMARK UNBOUND:                -0.556
REMARK  Name = 
REMARK  3 active torsions:
REMARK  status: ('A' for Active; 'I' for Inactive)
REMARK    1  A    between atoms: N_6  and  C_7
REMARK    2  A    between atoms: C_7  and  C_8
REMARK    3  A    between atoms: C_12  and  N_13
REMARK                            x       y       z     vdW  Elec       q    Type
REMARK                         _______ _______ _______ _____ _____    ______ ____
ROOT
ATOM      1  C   UNL     1      48.642   7.780  13.254  0.00  0.00    +0.000 C 
ATOM      2  C   UNL     1      49.457   6.916  12.289  0.00  0.00    +0.000 C 
ATOM      3  C   UNL     1      49.647   8.393  12.291  0.00  0.00    +0.000 C 
ENDROOT
BRANCH   1   9
ATOM      4 CL   UNL     1      47.353   2.740  17.679  0.00  0.00    +0.000 Cl
ATOM      5  C   UNL     1      47.766   4.178  16.846  0.00  0.00    +0.000 A 
ATOM      6  C   UNL     1      48.433   5.211  17.491  0.00  0.00    +0.000 A 
ATOM      7  C   UNL     1      48.783   6.345  16.753  0.00  0.00    +0.000 A 
ATOM      8  C   UNL     1      48.478   6.422  15.391  0.00  0.00    +0.000 A 
ATOM      9  N   UNL     1      48.903   7.589  14.701  0.00  0.00    +0.000 N 
ATOM     10  N   UNL     1      47.799   5.435  14.775  0.00  0.00    +0.000 NA
ATOM     11  C   UNL     1      47.462   4.347  15.506  0.00  0.00    +0.000 A 
ATOM     12  H   UNL     1      49.893   7.695  14.909  0.00  0.00    +0.000 HD
ENDBRANCH   1   9
BRANCH   1  13
ATOM     13  C   UNL     1      47.169   7.966  12.908  0.00  0.00    +0.000 A 
ATOM     14  C   UNL     1      46.705   9.185  12.403  0.00  0.00    +0.000 A 
ATOM     15  C   UNL     1      45.444   9.270  11.828  0.00  0.00    +0.000 A 
ATOM     16  C   UNL     1      44.636   8.134  11.758  0.00  0.00    +0.000 A 
ATOM     17  C   UNL     1      45.026   6.909  12.321  0.00  0.00    +0.000 A 
ATOM     18  C   UNL     1      46.272   6.877  12.950  0.00  0.00    +0.000 A 
BRANCH  17  19
ATOM     19  N   UNL     1      44.230   5.784  12.195  0.00  0.00    +0.000 N 
ATOM     20  C   UNL     1      44.442   4.575  12.994  0.00  0.00    +0.000 C 
ATOM     21  C   UNL     1      44.913   3.410  12.127  0.00  0.00    +0.000 C 
ATOM     22  C   UNL     1      43.984   3.199  10.933  0.00  0.00    +0.000 C 
ATOM     23  C   UNL     1      43.856   4.488  10.130  0.00  0.00    +0.000 C 
ATOM     24  C   UNL     1      43.390   5.655  11.001  0.00  0.00    +0.000 C 
ENDBRANCH  17  19
ENDBRANCH   1  13
TORSDOF 3
ENDMDL
