MODEL 1
REMARK VINA RESULT:    -8.350      0.000      0.000
REMARK INTER + INTRA:         -11.699
REMARK INTER:                 -10.790
REMARK INTRA:                  -0.909
REMARK UNBOUND:                -0.909
REMARK  Name = 
REMARK  5 active torsions:
REMARK  status: ('A' for Active; 'I' for Inactive)
REMARK    1  A    between atoms: C_2  and  C_4
REMARK    2  A    between atoms: N_8  and  C_9
REMARK    3  A    between atoms: C_9  and  C_10
REMARK    4  A    between atoms: C_10  and  C_11
REMARK    5  A    between atoms: C_16  and  N_17
REMARK                            x       y       z     vdW  Elec       q    Type
REMARK                         _______ _______ _______ _____ _____    ______ ____
ROOT
ATOM      1  C   UNL     1      43.165   4.494  10.921  0.00  0.00    +0.000 C 
ENDROOT
BRANCH   1   6
ATOM      2  C   UNL     1      46.527   2.507   7.626  0.00  0.00    +0.000 A 
ATOM      3  C   UNL     1      45.764   1.928   8.631  0.00  0.00    +0.000 A 
ATOM      4  C   UNL     1      44.932   2.739   9.402  0.00  0.00    +0.000 A 
ATOM      5  C   UNL     1      44.868   4.109   9.161  0.00  0.00    +0.000 A 
ATOM      6  N   UNL     1      44.060   4.954   9.881  0.00  0.00    +0.000 N 
ATOM      7  N   UNL     1      45.619   4.681   8.199  0.00  0.00    +0.000 NA
ATOM      8  C   UNL     1      46.440   3.880   7.462  0.00  0.00    +0.000 A 
ATOM      9  H   UNL     1      44.081   5.920   9.576  0.00  0.00    +0.000 HD
BRANCH   2  11
ATOM     10  N   UNL     1      48.550   2.343   6.299  0.00  0.00    +0.000 N 
ATOM     11  C   UNL     1      47.425   1.716   6.762  0.00  0.00    +0.000 C 
ATOM     12  O   UNL     1      47.192   0.545   6.497  0.00  0.00    +0.000 OA
ATOM     13  H   UNL     1      49.209   1.772   5.788  0.00  0.00    +0.000 HD
ATOM     14  H   UNL     1      48.889   3.212   6.686  0.00  0.00    +0.000 HD
ENDBRANCH   2  11
ENDBRANCH   1   6
BRANCH   1  15
ATOM     15  C   UNL     1      43.238   5.349  12.187  0.00  0.00    +0.000 C 
BRANCH  15  16
ATOM     16  C   UNL     1      44.663   5.389  12.694  0.00  0.00    +0.000 A 
ATOM     17  C   UNL     1      45.291   4.224  13.137  0.00  0.00    +0.000 A 
ATOM     18  C   UNL     1      46.624   4.274  13.515  0.00  0.00    +0.000 A 
ATOM     19  F   UNL     1      47.238   3.151  13.914  0.00  0.00    +0.000 F 
ATOM     20  C   UNL     1      47.350   5.460  13.454  0.00  0.00    +0.000 A 
ATOM     21  C   UNL     1      46.764   6.650  13.003  0.00  0.00    +0.000 A 
ATOM     22  C   UNL     1      45.407   6.585  12.635  0.00  0.00    +0.000 A 
BRANCH  21  23
ATOM     23  N   UNL     1      47.511   7.802  12.867  0.00  0.00    +0.000 N 
ATOM     24  C   UNL     1      46.942   9.152  12.998  0.00  0.00    +0.000 C 
ATOM     25  C   UNL     1      47.553  10.059  11.913  0.00  0.00    +0.000 C 
ATOM     26  O   UNL     1      48.990  10.061  11.953  0.00  0.00    +0.000 OA
ATOM     27  C   UNL     1      49.499   8.727  11.775  0.00  0.00    +0.000 C 
ATOM     28  C   UNL     1      48.985   7.787  12.877  0.00  0.00    +0.000 C 
ENDBRANCH  21  23
ENDBRANCH  15  16
ENDBRANCH   1  15
TORSDOF 5
ENDMDL
MODEL 2
REMARK VINA RESULT:    -8.172      2.737      3.721
REMARK INTER + INTRA:         -11.469
REMARK INTER:                 -10.602
REMARK INTRA:                  -0.867
REMARK UNBOUND:                -0.909
REMARK  Name = 
REMARK  5 active torsions:
REMARK  status: ('A' for Active; 'I' for Inactive)
REMARK    1  A    between atoms: C_2  and  C_4
REMARK    2  A    between atoms: N_8  and  C_9
REMARK    3  A    between atoms: C_9  and  C_10
REMARK    4  A    between atoms: C_10  and  C_11
REMARK    5  A    between atoms: C_16  and  N_17
REMARK                            x       y       z     vdW  Elec       q    Type
REMARK                         _______ _______ _______ _____ _____    ______ ____
ROOT
ATOM      1  C   UNL     1      43.435   4.869  10.901  0.00  0.00    +0.000 C 
ENDROOT
BRANCH   1   6
ATOM      2  C   UNL     1      46.495   2.590   7.503  0.00  0.00    +0.000 A 
ATOM      3  C   UNL     1      46.178   3.925   7.711  0.00  0.00    +0.000 A 
ATOM      4  C   UNL     1      45.275   4.257   8.721  0.00  0.00    +0.000 A 
ATOM      5  C   UNL     1      44.707   3.259   9.509  0.00  0.00    +0.000 A 
ATOM      6  N   UNL     1      43.820   3.526  10.524  0.00  0.00    +0.000 N 
ATOM      7  N   UNL     1      44.997   1.959   9.302  0.00  0.00    +0.000 NA
ATOM      8  C   UNL     1      45.869   1.647   8.301  0.00  0.00    +0.000 A 
ATOM      9  H   UNL     1      43.515   2.712  11.043  0.00  0.00    +0.000 HD
BRANCH   2  11
ATOM     10  N   UNL     1      47.090   2.396   5.160  0.00  0.00    +0.000 N 
ATOM     11  C   UNL     1      47.448   2.160   6.460  0.00  0.00    +0.000 C 
ATOM     12  O   UNL     1      48.519   1.644   6.743  0.00  0.00    +0.000 OA
ATOM     13  H   UNL     1      47.784   2.188   4.455  0.00  0.00    +0.000 HD
ATOM     14  H   UNL     1      46.340   3.023   4.905  0.00  0.00    +0.000 HD
ENDBRANCH   2  11
ENDBRANCH   1   6
BRANCH   1  15
ATOM     15  C   UNL     1      43.637   5.147  12.391  0.00  0.00    +0.000 C 
BRANCH  15  16
ATOM     16  C   UNL     1      45.102   5.401  12.669  0.00  0.00    +0.000 A 
ATOM     17  C   UNL     1      45.860   6.195  11.809  0.00  0.00    +0.000 A 
ATOM     18  C   UNL     1      47.178   6.482  12.133  0.00  0.00    +0.000 A 
ATOM     19  F   UNL     1      47.899   7.269  11.322  0.00  0.00    +0.000 F 
ATOM     20  C   UNL     1      47.755   5.999  13.304  0.00  0.00    +0.000 A 
ATOM     21  C   UNL     1      47.028   5.209  14.203  0.00  0.00    +0.000 A 
ATOM     22  C   UNL     1      45.697   4.917  13.853  0.00  0.00    +0.000 A 
BRANCH  21  23
ATOM     23  N   UNL     1      47.582   4.804  15.400  0.00  0.00    +0.000 N 
ATOM     24  C   UNL     1      47.570   3.407  15.861  0.00  0.00    +0.000 C 
ATOM     25  C   UNL     1      47.266   3.382  17.372  0.00  0.00    +0.000 C 
ATOM     26  O   UNL     1      48.177   4.202  18.122  0.00  0.00    +0.000 OA
ATOM     27  C   UNL     1      48.118   5.565  17.665  0.00  0.00    +0.000 C 
ATOM     28  C   UNL     1      48.488   5.667  16.177  0.00  0.00    +0.000 C 
ENDBRANCH  21  23
ENDBRANCH  15  16
ENDBRANCH   1  15
TORSDOF 5
ENDMDL
MODEL 3
REMARK VINA RESULT:    -7.616      2.296      2.870
REMARK INTER + INTRA:         -10.751
REMARK INTER:                  -9.912
REMARK INTRA:                  -0.838
REMARK UNBOUND:                -0.909
REMARK  Name = 
REMARK  5 active torsions:
REMARK  status: ('A' for Active; 'I' for Inactive)
REMARK    1  A    between atoms: C_2  and  C_4
REMARK    2  A    between atoms: N_8  and  C_9
REMARK    3  A    between atoms: C_9  and  C_10
REMARK    4  A    between atoms: C_10  and  C_11
REMARK    5  A    between atoms: C_16  and  N_17
REMARK                            x       y       z     vdW  Elec       q    Type
REMARK                         _______ _______ _______ _____ _____    ______ ____
ROOT
ATOM      1  C   UNL     1      43.628   3.684  11.285  0.00  0.00    +0.000 C 
ENDROOT
BRANCH   1   6
ATOM      2  C   UNL     1      46.491   2.673   7.176  0.00  0.00    +0.000 A 
ATOM      3  C   UNL     1      45.997   3.865   7.687  0.00  0.00    +0.000 A 
ATOM      4  C   UNL     1      45.208   3.833   8.837  0.00  0.00    +0.000 A 
ATOM      5  C   UNL     1      44.928   2.620   9.462  0.00  0.00    +0.000 A 
ATOM      6  N   UNL     1      44.166   2.529  10.601  0.00  0.00    +0.000 N 
ATOM      7  N   UNL     1      45.390   1.457   8.962  0.00  0.00    +0.000 NA
ATOM      8  C   UNL     1      46.147   1.500   7.828  0.00  0.00    +0.000 A 
ATOM      9  H   UNL     1      44.074   1.591  10.973  0.00  0.00    +0.000 HD
BRANCH   2  11
ATOM     10  N   UNL     1      48.695   2.635   6.164  0.00  0.00    +0.000 N 
ATOM     11  C   UNL     1      47.340   2.624   5.969  0.00  0.00    +0.000 C 
ATOM     12  O   UNL     1      46.857   2.548   4.848  0.00  0.00    +0.000 OA
ATOM     13  H   UNL     1      49.271   2.505   5.343  0.00  0.00    +0.000 HD
ATOM     14  H   UNL     1      49.118   2.456   7.063  0.00  0.00    +0.000 HD
ENDBRANCH   2  11
ENDBRANCH   1   6
BRANCH   1  15
ATOM     15  C   UNL     1      44.417   4.048  12.544  0.00  0.00    +0.000 C 
BRANCH  15  16
ATOM     16  C   UNL     1      44.983   5.445  12.406  0.00  0.00    +0.000 A 
ATOM     17  C   UNL     1      44.329   6.402  11.631  0.00  0.00    +0.000 A 
ATOM     18  C   UNL     1      44.823   7.697  11.591  0.00  0.00    +0.000 A 
ATOM     19  F   UNL     1      44.179   8.626  10.871  0.00  0.00    +0.000 F 
ATOM     20  C   UNL     1      45.954   8.062  12.316  0.00  0.00    +0.000 A 
ATOM     21  C   UNL     1      46.635   7.137  13.118  0.00  0.00    +0.000 A 
ATOM     22  C   UNL     1      46.129   5.825  13.137  0.00  0.00    +0.000 A 
BRANCH  21  23
ATOM     23  N   UNL     1      47.706   7.525  13.896  0.00  0.00    +0.000 N 
ATOM     24  C   UNL     1      48.534   6.579  14.659  0.00  0.00    +0.000 C 
ATOM     25  C   UNL     1      48.850   7.189  16.038  0.00  0.00    +0.000 C 
ATOM     26  O   UNL     1      49.456   8.488  15.931  0.00  0.00    +0.000 OA
ATOM     27  C   UNL     1      48.589   9.389  15.218  0.00  0.00    +0.000 C 
ATOM     28  C   UNL     1      48.298   8.872  13.800  0.00  0.00    +0.000 C 
ENDBRANCH  21  23
ENDBRANCH  15  16
ENDBRANCH   1  15
TORSDOF 5
ENDMDL
MODEL 4
REMARK VINA RESULT:    -7.574      3.161      7.342
REMARK INTER + INTRA:         -10.697
REMARK INTER:                  -9.921
REMARK INTRA:                  -0.775
REMARK UNBOUND:                -0.909
REMARK  Name = 
REMARK  5 active torsions:
REMARK  status: ('A' for Active; 'I' for Inactive)
REMARK    1  A    between atoms: C_2  and  C_4
REMARK    2  A    between atoms: N_8  and  C_9
REMARK    3  A    between atoms: C_9  and  C_10
REMARK    4  A    between atoms: C_10  and  C_11
REMARK    5  A    between atoms: C_16  and  N_17
REMARK                            x       y       z     vdW  Elec       q    Type
REMARK                         _______ _______ _______ _____ _____    ______ ____
ROOT
ATOM      1  C   UNL     1      47.807   7.036  11.851  0.00  0.00    +0.000 C 
ENDROOT
BRANCH   1   6
ATOM      2  C   UNL     1      47.602   4.554  16.313  0.00  0.00    +0.000 A 
ATOM      3  C   UNL     1      46.925   4.362  15.117  0.00  0.00    +0.000 A 
ATOM      4  C   UNL     1      47.174   5.227  14.051  0.00  0.00    +0.000 A 
ATOM      5  C   UNL     1      48.093   6.264  14.190  0.00  0.00    +0.000 A 
ATOM      6  N   UNL     1      48.387   7.140  13.173  0.00  0.00    +0.000 N 
ATOM      7  N   UNL     1      48.742   6.468  15.354  0.00  0.00    +0.000 NA
ATOM      8  C   UNL     1      48.478   5.625  16.393  0.00  0.00    +0.000 A 
ATOM      9  H   UNL     1      49.102   7.821  13.396  0.00  0.00    +0.000 HD
BRANCH   2  11
ATOM     10  N   UNL     1      48.121   3.972  18.610  0.00  0.00    +0.000 N 
ATOM     11  C   UNL     1      47.400   3.677  17.483  0.00  0.00    +0.000 C 
ATOM     12  O   UNL     1      46.604   2.750  17.459  0.00  0.00    +0.000 OA
ATOM     13  H   UNL     1      47.910   3.429  19.436  0.00  0.00    +0.000 HD
ATOM     14  H   UNL     1      48.594   4.854  18.740  0.00  0.00    +0.000 HD
ENDBRANCH   2  11
ENDBRANCH   1   6
BRANCH   1  15
ATOM     15  C   UNL     1      46.397   7.625  11.775  0.00  0.00    +0.000 C 
BRANCH  15  16
ATOM     16  C   UNL     1      45.420   6.554  11.339  0.00  0.00    +0.000 A 
ATOM     17  C   UNL     1      44.101   6.571  11.792  0.00  0.00    +0.000 A 
ATOM     18  C   UNL     1      43.205   5.629  11.309  0.00  0.00    +0.000 A 
ATOM     19  F   UNL     1      41.930   5.661  11.721  0.00  0.00    +0.000 F 
ATOM     20  C   UNL     1      43.596   4.672  10.376  0.00  0.00    +0.000 A 
ATOM     21  C   UNL     1      44.906   4.626   9.884  0.00  0.00    +0.000 A 
ATOM     22  C   UNL     1      45.805   5.581  10.393  0.00  0.00    +0.000 A 
BRANCH  21  23
ATOM     23  N   UNL     1      45.263   3.728   8.900  0.00  0.00    +0.000 N 
ATOM     24  C   UNL     1      44.754   2.349   8.843  0.00  0.00    +0.000 C 
ATOM     25  C   UNL     1      45.907   1.407   8.446  0.00  0.00    +0.000 C 
ATOM     26  O   UNL     1      46.541   1.810   7.221  0.00  0.00    +0.000 OA
ATOM     27  C   UNL     1      47.062   3.146   7.342  0.00  0.00    +0.000 C 
ATOM     28  C   UNL     1      45.943   4.150   7.662  0.00  0.00    +0.000 C 
ENDBRANCH  21  23
ENDBRANCH  15  16
ENDBRANCH   1  15
TORSDOF 5
ENDMDL
MODEL 5
REMARK VINA RESULT:    -7.201      2.010      2.393
REMARK INTER + INTRA:         -10.214
REMARK INTER:                  -9.864
REMARK INTRA:                  -0.349
REMARK UNBOUND:                -0.909
REMARK  Name = 
REMARK  5 active torsions:
REMARK  status: ('A' for Active; 'I' for Inactive)
REMARK    1  A    between atoms: C_2  and  C_4
REMARK    2  A    between atoms: N_8  and  C_9
REMARK    3  A    between atoms: C_9  and  C_10
REMARK    4  A    between atoms: C_10  and  C_11
REMARK    5  A    between atoms: C_16  and  N_17
REMARK                            x       y       z     vdW  Elec       q    Type
REMARK                         _______ _______ _______ _____ _____    ______ ____
ROOT
ATOM      1  C   UNL     1      43.330   3.659  11.244  0.00  0.00    +0.000 C 
ENDROOT
BRANCH   1   6
ATOM      2  C   UNL     1      46.538   2.613   7.408  0.00  0.00    +0.000 A 
ATOM      3  C   UNL     1      45.961   1.804   8.376  0.00  0.00    +0.000 A 
ATOM      4  C   UNL     1      45.124   2.382   9.331  0.00  0.00    +0.000 A 
ATOM      5  C   UNL     1      44.872   3.751   9.304  0.00  0.00    +0.000 A 
ATOM      6  N   UNL     1      44.048   4.374  10.211  0.00  0.00    +0.000 N 
ATOM      7  N   UNL     1      45.442   4.546   8.378  0.00  0.00    +0.000 NA
ATOM      8  C   UNL     1      46.271   3.971   7.460  0.00  0.00    +0.000 A 
ATOM      9  H   UNL     1      43.921   5.366  10.054  0.00  0.00    +0.000 HD
BRANCH   2  11
ATOM     10  N   UNL     1      46.889   1.920   5.110  0.00  0.00    +0.000 N 
ATOM     11  C   UNL     1      47.428   2.075   6.359  0.00  0.00    +0.000 C 
ATOM     12  O   UNL     1      48.599   1.810   6.586  0.00  0.00    +0.000 OA
ATOM     13  H   UNL     1      47.524   1.643   4.374  0.00  0.00    +0.000 HD
ATOM     14  H   UNL     1      46.016   2.346   4.835  0.00  0.00    +0.000 HD
ENDBRANCH   2  11
ENDBRANCH   1   6
BRANCH   1  15
ATOM     15  C   UNL     1      43.529   4.268  12.633  0.00  0.00    +0.000 C 
BRANCH  15  16
ATOM     16  C   UNL     1      44.585   5.350  12.570  0.00  0.00    +0.000 A 
ATOM     17  C   UNL     1      45.933   5.037  12.749  0.00  0.00    +0.000 A 
ATOM     18  C   UNL     1      46.886   6.033  12.601  0.00  0.00    +0.000 A 
ATOM     19  F   UNL     1      48.184   5.730  12.744  0.00  0.00    +0.000 F 
ATOM     20  C   UNL     1      46.525   7.336  12.269  0.00  0.00    +0.000 A 
ATOM     21  C   UNL     1      45.185   7.692  12.067  0.00  0.00    +0.000 A 
ATOM     22  C   UNL     1      44.230   6.672  12.234  0.00  0.00    +0.000 A 
BRANCH  21  23
ATOM     23  N   UNL     1      44.843   8.964  11.658  0.00  0.00    +0.000 N 
ATOM     24  C   UNL     1      43.580   9.278  10.973  0.00  0.00    +0.000 C 
ATOM     25  C   UNL     1      43.862  10.287   9.843  0.00  0.00    +0.000 C 
ATOM     26  O   UNL     1      44.537  11.463  10.321  0.00  0.00    +0.000 OA
ATOM     27  C   UNL     1      45.785  11.108  10.942  0.00  0.00    +0.000 C 
ATOM     28  C   UNL     1      45.563  10.160  12.131  0.00  0.00    +0.000 C 
ENDBRANCH  21  23
ENDBRANCH  15  16
ENDBRANCH   1  15
TORSDOF 5
ENDMDL
MODEL 6
REMARK VINA RESULT:    -6.887      4.216      8.396
REMARK INTER + INTRA:          -9.808
REMARK INTER:                  -9.320
REMARK INTRA:                  -0.488
REMARK UNBOUND:                -0.909
REMARK  Name = 
REMARK  5 active torsions:
REMARK  status: ('A' for Active; 'I' for Inactive)
REMARK    1  A    between atoms: C_2  and  C_4
REMARK    2  A    between atoms: N_8  and  C_9
REMARK    3  A    between atoms: C_9  and  C_10
REMARK    4  A    between atoms: C_10  and  C_11
REMARK    5  A    between atoms: C_16  and  N_17
REMARK                            x       y       z     vdW  Elec       q    Type
REMARK                         _______ _______ _______ _____ _____    ______ ____
ROOT
ATOM      1  C   UNL     1      47.209   4.459  13.749  0.00  0.00    +0.000 C 
ENDROOT
BRANCH   1   6
ATOM      2  C   UNL     1      48.427   4.459  18.712  0.00  0.00    +0.000 A 
ATOM      3  C   UNL     1      48.682   5.372  17.697  0.00  0.00    +0.000 A 
ATOM      4  C   UNL     1      48.237   5.091  16.406  0.00  0.00    +0.000 A 
ATOM      5  C   UNL     1      47.543   3.912  16.144  0.00  0.00    +0.000 A 
ATOM      6  N   UNL     1      47.072   3.587  14.895  0.00  0.00    +0.000 N 
ATOM      7  N   UNL     1      47.306   3.013  17.120  0.00  0.00    +0.000 NA
ATOM      8  C   UNL     1      47.760   3.293  18.375  0.00  0.00    +0.000 A 
ATOM      9  H   UNL     1      46.551   2.720  14.853  0.00  0.00    +0.000 HD
BRANCH   2  11
ATOM     10  N   UNL     1      50.146   4.348  20.419  0.00  0.00    +0.000 N 
ATOM     11  C   UNL     1      48.857   4.688  20.105  0.00  0.00    +0.000 C 
ATOM     12  O   UNL     1      48.110   5.187  20.934  0.00  0.00    +0.000 OA
ATOM     13  H   UNL     1      50.466   4.594  21.345  0.00  0.00    +0.000 HD
ATOM     14  H   UNL     1      50.848   4.164  19.716  0.00  0.00    +0.000 HD
ENDBRANCH   2  11
ENDBRANCH   1   6
BRANCH   1  15
ATOM     15  C   UNL     1      46.121   5.533  13.689  0.00  0.00    +0.000 C 
BRANCH  15  16
ATOM     16  C   UNL     1      45.087   5.153  12.650  0.00  0.00    +0.000 A 
ATOM     17  C   UNL     1      43.769   5.594  12.767  0.00  0.00    +0.000 A 
ATOM     18  C   UNL     1      42.864   5.303  11.758  0.00  0.00    +0.000 A 
ATOM     19  F   UNL     1      41.604   5.751  11.854  0.00  0.00    +0.000 F 
ATOM     20  C   UNL     1      43.247   4.587  10.627  0.00  0.00    +0.000 A 
ATOM     21  C   UNL     1      44.563   4.137  10.462  0.00  0.00    +0.000 A 
ATOM     22  C   UNL     1      45.465   4.429  11.501  0.00  0.00    +0.000 A 
BRANCH  21  23
ATOM     23  N   UNL     1      44.954   3.500   9.302  0.00  0.00    +0.000 N 
ATOM     24  C   UNL     1      44.769   2.059   9.071  0.00  0.00    +0.000 C 
ATOM     25  C   UNL     1      46.027   1.497   8.383  0.00  0.00    +0.000 C 
ATOM     26  O   UNL     1      46.352   2.210   7.178  0.00  0.00    +0.000 OA
ATOM     27  C   UNL     1      46.568   3.603   7.463  0.00  0.00    +0.000 C 
ATOM     28  C   UNL     1      45.316   4.244   8.082  0.00  0.00    +0.000 C 
ENDBRANCH  21  23
ENDBRANCH  15  16
ENDBRANCH   1  15
TORSDOF 5
ENDMDL
MODEL 7
REMARK VINA RESULT:    -6.468      3.612      7.521
REMARK INTER + INTRA:          -9.267
REMARK INTER:                  -8.514
REMARK INTRA:                  -0.754
REMARK UNBOUND:                -0.909
REMARK  Name = 
REMARK  5 active torsions:
REMARK  status: ('A' for Active; 'I' for Inactive)
REMARK    1  A    between atoms: C_2  and  C_4
REMARK    2  A    between atoms: N_8  and  C_9
REMARK    3  A    between atoms: C_9  and  C_10
REMARK    4  A    between atoms: C_10  and  C_11
REMARK    5  A    between atoms: C_16  and  N_17
REMARK                            x       y       z     vdW  Elec       q    Type
REMARK                         _______ _______ _______ _____ _____    ______ ____
ROOT
ATOM      1  C   UNL     1      49.577   7.449  12.448  0.00  0.00    +0.000 C 
ENDROOT
BRANCH   1   6
ATOM      2  C   UNL     1      47.910   4.950  16.581  0.00  0.00    +0.000 A 
ATOM      3  C   UNL     1      47.423   5.017  15.282  0.00  0.00    +0.000 A 
ATOM      4  C   UNL     1      48.087   5.815  14.351  0.00  0.00    +0.000 A 
ATOM      5  C   UNL     1      49.224   6.528  14.723  0.00  0.00    +0.000 A 
ATOM      6  N   UNL     1      49.925   7.321  13.846  0.00  0.00    +0.000 N 
ATOM      7  N   UNL     1      49.693   6.482  15.985  0.00  0.00    +0.000 NA
ATOM      8  C   UNL     1      49.025   5.710  16.890  0.00  0.00    +0.000 A 
ATOM      9  H   UNL     1      50.754   7.752  14.237  0.00  0.00    +0.000 HD
BRANCH   2  11
ATOM     10  N   UNL     1      47.380   4.557  18.915  0.00  0.00    +0.000 N 
ATOM     11  C   UNL     1      47.268   4.122  17.621  0.00  0.00    +0.000 C 
ATOM     12  O   UNL     1      46.640   3.112  17.340  0.00  0.00    +0.000 OA
ATOM     13  H   UNL     1      46.860   4.042  19.612  0.00  0.00    +0.000 HD
ATOM     14  H   UNL     1      47.676   5.493  19.152  0.00  0.00    +0.000 HD
ENDBRANCH   2  11
ENDBRANCH   1   6
BRANCH   1  15
ATOM     15  C   UNL     1      48.814   8.739  12.143  0.00  0.00    +0.000 C 
BRANCH  15  16
ATOM     16  C   UNL     1      47.335   8.441  12.024  0.00  0.00    +0.000 A 
ATOM     17  C   UNL     1      46.397   9.472  12.075  0.00  0.00    +0.000 A 
ATOM     18  C   UNL     1      45.055   9.181  11.878  0.00  0.00    +0.000 A 
ATOM     19  F   UNL     1      44.156  10.174  11.898  0.00  0.00    +0.000 F 
ATOM     20  C   UNL     1      44.628   7.881  11.623  0.00  0.00    +0.000 A 
ATOM     21  C   UNL     1      45.537   6.817  11.549  0.00  0.00    +0.000 A 
ATOM     22  C   UNL     1      46.892   7.128  11.764  0.00  0.00    +0.000 A 
BRANCH  21  23
ATOM     23  N   UNL     1      45.115   5.546  11.215  0.00  0.00    +0.000 N 
ATOM     24  C   UNL     1      45.363   4.934   9.901  0.00  0.00    +0.000 C 
ATOM     25  C   UNL     1      44.100   4.172   9.457  0.00  0.00    +0.000 C 
ATOM     26  O   UNL     1      43.671   3.214  10.439  0.00  0.00    +0.000 OA
ATOM     27  C   UNL     1      43.398   3.866  11.691  0.00  0.00    +0.000 C 
ATOM     28  C   UNL     1      44.647   4.583  12.227  0.00  0.00    +0.000 C 
ENDBRANCH  21  23
ENDBRANCH  15  16
ENDBRANCH   1  15
TORSDOF 5
ENDMDL
MODEL 8
REMARK VINA RESULT:    -6.396      4.050      5.948
REMARK INTER + INTRA:          -9.175
REMARK INTER:                  -8.426
REMARK INTRA:                  -0.748
REMARK UNBOUND:                -0.909
REMARK  Name = 
REMARK  5 active torsions:
REMARK  status: ('A' for Active; 'I' for Inactive)
REMARK    1  A    between atoms: C_2  and  C_4
REMARK    2  A    between atoms: N_8  and  C_9
REMARK    3  A    between atoms: C_9  and  C_10
REMARK    4  A    between atoms: C_10  and  C_11
REMARK    5  A    between atoms: C_16  and  N_17
REMARK                            x       y       z     vdW  Elec       q    Type
REMARK                         _______ _______ _______ _____ _____    ______ ____
ROOT
ATOM      1  C   UNL     1      46.925   8.489  12.603  0.00  0.00    +0.000 C 
ENDROOT
BRANCH   1   6
ATOM      2  C   UNL     1      44.477   4.134  11.533  0.00  0.00    +0.000 A 
ATOM      3  C   UNL     1      45.374   4.895  10.796  0.00  0.00    +0.000 A 
ATOM      4  C   UNL     1      45.873   6.075  11.347  0.00  0.00    +0.000 A 
ATOM      5  C   UNL     1      45.478   6.476  12.621  0.00  0.00    +0.000 A 
ATOM      6  N   UNL     1      45.945   7.621  13.219  0.00  0.00    +0.000 N 
ATOM      7  N   UNL     1      44.595   5.751  13.336  0.00  0.00    +0.000 NA
ATOM      8  C   UNL     1      44.102   4.608  12.779  0.00  0.00    +0.000 A 
ATOM      9  H   UNL     1      45.606   7.773  14.162  0.00  0.00    +0.000 HD
BRANCH   2  11
ATOM     10  N   UNL     1      44.575   2.268   9.987  0.00  0.00    +0.000 N 
ATOM     11  C   UNL     1      43.911   2.870  11.022  0.00  0.00    +0.000 C 
ATOM     12  O   UNL     1      42.913   2.367  11.518  0.00  0.00    +0.000 OA
ATOM     13  H   UNL     1      44.240   1.357   9.704  0.00  0.00    +0.000 HD
ATOM     14  H   UNL     1      45.515   2.523   9.720  0.00  0.00    +0.000 HD
ENDBRANCH   2  11
ENDBRANCH   1   6
BRANCH   1  15
ATOM     15  C   UNL     1      48.363   8.099  12.952  0.00  0.00    +0.000 C 
BRANCH  15  16
ATOM     16  C   UNL     1      48.519   8.017  14.455  0.00  0.00    +0.000 A 
ATOM     17  C   UNL     1      48.357   9.153  15.248  0.00  0.00    +0.000 A 
ATOM     18  C   UNL     1      48.422   9.032  16.628  0.00  0.00    +0.000 A 
ATOM     19  F   UNL     1      48.237  10.117  17.393  0.00  0.00    +0.000 F 
ATOM     20  C   UNL     1      48.637   7.799  17.236  0.00  0.00    +0.000 A 
ATOM     21  C   UNL     1      48.792   6.630  16.480  0.00  0.00    +0.000 A 
ATOM     22  C   UNL     1      48.737   6.772  15.081  0.00  0.00    +0.000 A 
BRANCH  21  23
ATOM     23  N   UNL     1      48.923   5.401  17.092  0.00  0.00    +0.000 N 
ATOM     24  C   UNL     1      50.127   4.993  17.831  0.00  0.00    +0.000 C 
ATOM     25  C   UNL     1      50.441   3.520  17.501  0.00  0.00    +0.000 C 
ATOM     26  O   UNL     1      49.320   2.657  17.754  0.00  0.00    +0.000 OA
ATOM     27  C   UNL     1      48.183   3.069  16.975  0.00  0.00    +0.000 C 
ATOM     28  C   UNL     1      47.771   4.510  17.316  0.00  0.00    +0.000 C 
ENDBRANCH  21  23
ENDBRANCH  15  16
ENDBRANCH   1  15
TORSDOF 5
ENDMDL
MODEL 9
REMARK VINA RESULT:    -6.324      5.320      8.562
REMARK INTER + INTRA:          -9.081
REMARK INTER:                  -8.456
REMARK INTRA:                  -0.625
REMARK UNBOUND:                -0.909
REMARK  Name = 
REMARK  5 active torsions:
REMARK  status: ('A' for Active; 'I' for Inactive)
REMARK    1  A    between atoms: C_2  and  C_4
REMARK    2  A    between atoms: N_8  and  C_9
REMARK    3  A    between atoms: C_9  and  C_10
REMARK    4  A    between atoms: C_10  and  C_11
REMARK    5  A    between atoms: C_16  and  N_17
REMARK                            x       y       z     vdW  Elec       q    Type
REMARK                         _______ _______ _______ _____ _____    ______ ____
ROOT
ATOM      1  C   UNL     1      43.826  10.225  11.229  0.00  0.00    +0.000 C 
ENDROOT
BRANCH   1   6
ATOM      2  C   UNL     1      38.835  11.069  11.929  0.00  0.00    +0.000 A 
ATOM      3  C   UNL     1      39.520  10.267  11.026  0.00  0.00    +0.000 A 
ATOM      4  C   UNL     1      40.914  10.252  11.054  0.00  0.00    +0.000 A 
ATOM      5  C   UNL     1      41.604  11.030  11.980  0.00  0.00    +0.000 A 
ATOM      6  N   UNL     1      42.976  11.048  12.061  0.00  0.00    +0.000 N 
ATOM      7  N   UNL     1      40.948  11.824  12.849  0.00  0.00    +0.000 NA
ATOM      8  C   UNL     1      39.585  11.841  12.800  0.00  0.00    +0.000 A 
ATOM      9  H   UNL     1      43.347  11.626  12.805  0.00  0.00    +0.000 HD
BRANCH   2  11
ATOM     10  N   UNL     1      36.688  10.497  10.958  0.00  0.00    +0.000 N 
ATOM     11  C   UNL     1      37.361  11.132  11.967  0.00  0.00    +0.000 C 
ATOM     12  O   UNL     1      36.767  11.698  12.873  0.00  0.00    +0.000 OA
ATOM     13  H   UNL     1      35.681  10.461  11.039  0.00  0.00    +0.000 HD
ATOM     14  H   UNL     1      37.130   9.830  10.342  0.00  0.00    +0.000 HD
ENDBRANCH   2  11
ENDBRANCH   1   6
BRANCH   1  15
ATOM     15  C   UNL     1      45.281  10.209  11.701  0.00  0.00    +0.000 C 
BRANCH  15  16
ATOM     16  C   UNL     1      45.675   8.802  12.093  0.00  0.00    +0.000 A 
ATOM     17  C   UNL     1      46.775   8.577  12.920  0.00  0.00    +0.000 A 
ATOM     18  C   UNL     1      47.062   7.285  13.334  0.00  0.00    +0.000 A 
ATOM     19  F   UNL     1      48.102   7.071  14.152  0.00  0.00    +0.000 F 
ATOM     20  C   UNL     1      46.268   6.209  12.946  0.00  0.00    +0.000 A 
ATOM     21  C   UNL     1      45.145   6.390  12.127  0.00  0.00    +0.000 A 
ATOM     22  C   UNL     1      44.876   7.705  11.706  0.00  0.00    +0.000 A 
BRANCH  21  23
ATOM     23  N   UNL     1      44.318   5.332  11.815  0.00  0.00    +0.000 N 
ATOM     24  C   UNL     1      43.473   4.648  12.807  0.00  0.00    +0.000 C 
ATOM     25  C   UNL     1      43.521   3.131  12.544  0.00  0.00    +0.000 C 
ATOM     26  O   UNL     1      43.159   2.802  11.193  0.00  0.00    +0.000 OA
ATOM     27  C   UNL     1      44.040   3.457  10.263  0.00  0.00    +0.000 C 
ATOM     28  C   UNL     1      43.979   4.984  10.423  0.00  0.00    +0.000 C 
ENDBRANCH  21  23
ENDBRANCH  15  16
ENDBRANCH   1  15
TORSDOF 5
ENDMDL
