MODEL 1
REMARK VINA RESULT:    -8.170      0.000      0.000
REMARK INTER + INTRA:         -11.864
REMARK INTER:                 -10.797
REMARK INTRA:                  -1.067
REMARK UNBOUND:                -1.067
REMARK  Name = 
REMARK  6 active torsions:
REMARK  status: ('A' for Active; 'I' for Inactive)
REMARK    1  A    between atoms: N_1  and  C_2
REMARK    2  A    between atoms: C_6  and  C_7
REMARK    3  A    between atoms: C_7  and  C_8
REMARK    4  A    between atoms: C_11  and  C_12
REMARK    5  A    between atoms: C_12  and  N_13
REMARK    6  A    between atoms: C_14  and  C_16
REMARK                            x       y       z     vdW  Elec       q    Type
REMARK                         _______ _______ _______ _____ _____    ______ ____
ROOT
ATOM      1  C   UNL     1      44.791   4.466   9.627  0.00  0.00    +0.000 A 
ATOM      2  C   UNL     1      44.162   4.579  10.874  0.00  0.00    +0.000 A 
ATOM      3  C   UNL     1      44.562   5.559  11.788  0.00  0.00    +0.000 A 
ATOM      4  C   UNL     1      45.589   6.455  11.467  0.00  0.00    +0.000 A 
ATOM      5  C   UNL     1      46.260   6.302  10.247  0.00  0.00    +0.000 A 
ATOM      6  C   UNL     1      45.858   5.324   9.332  0.00  0.00    +0.000 A 
ENDROOT
BRANCH   1   7
ATOM      7  C   UNL     1      44.308   3.457   8.609  0.00  0.00    +0.000 C 
BRANCH   7  12
ATOM      8  C   UNL     1      47.137   2.442   6.235  0.00  0.00    +0.000 A 
ATOM      9  C   UNL     1      47.532   1.229   6.800  0.00  0.00    +0.000 A 
ATOM     10  C   UNL     1      46.838   0.694   7.887  0.00  0.00    +0.000 A 
ATOM     11  C   UNL     1      45.776   1.398   8.455  0.00  0.00    +0.000 A 
ATOM     12  C   UNL     1      45.415   2.657   7.958  0.00  0.00    +0.000 A 
ATOM     13  C   UNL     1      46.113   3.169   6.850  0.00  0.00    +0.000 A 
BRANCH   8  14
ATOM     14  N   UNL     1      47.907   3.031   5.221  0.00  0.00    +0.000 N 
ATOM     15  H   UNL     1      47.782   4.036   5.150  0.00  0.00    +0.000 HD
ATOM     16  H   UNL     1      48.888   2.771   5.260  0.00  0.00    +0.000 HD
ENDBRANCH   8  14
ENDBRANCH   7  12
ENDBRANCH   1   7
BRANCH   4  17
ATOM     17  C   UNL     1      45.976   7.560  12.415  0.00  0.00    +0.000 C 
BRANCH  17  18
ATOM     18  N   UNL     1      46.615   7.045  13.594  0.00  0.00    +0.000 N 
ATOM     19  C   UNL     1      47.977   6.889  13.655  0.00  0.00    +0.000 C 
ATOM     20  O   UNL     1      48.714   7.219  12.730  0.00  0.00    +0.000 OA
ATOM     21  H   UNL     1      46.026   6.551  14.258  0.00  0.00    +0.000 HD
BRANCH  19  22
ATOM     22  C   UNL     1      48.517   6.370  14.917  0.00  0.00    +0.000 A 
ATOM     23  C   UNL     1      49.611   6.989  15.508  0.00  0.00    +0.000 A 
ATOM     24  S   UNL     1      50.053   6.309  17.008  0.00  0.00    +0.000 S 
ATOM     25  C   UNL     1      48.835   5.126  16.893  0.00  0.00    +0.000 A 
ATOM     26  N   UNL     1      48.672   4.191  17.869  0.00  0.00    +0.000 NA
ATOM     27  C   UNL     1      47.735   3.335  17.633  0.00  0.00    +0.000 A 
ATOM     28  N   UNL     1      46.947   3.325  16.511  0.00  0.00    +0.000 N 
ATOM     29  C   UNL     1      47.055   4.266  15.515  0.00  0.00    +0.000 A 
ATOM     30  O   UNL     1      46.306   4.254  14.543  0.00  0.00    +0.000 OA
ATOM     31  C   UNL     1      48.097   5.253  15.730  0.00  0.00    +0.000 A 
ATOM     32  H   UNL     1      46.229   2.628  16.389  0.00  0.00    +0.000 HD
ENDBRANCH  19  22
ENDBRANCH  17  18
ENDBRANCH   4  17
TORSDOF 6
ENDMDL
MODEL 2
REMARK VINA RESULT:    -7.901      1.258      1.784
REMARK INTER + INTRA:         -11.508
REMARK INTER:                 -10.477
REMARK INTRA:                  -1.031
REMARK UNBOUND:                -1.067
REMARK  Name = 
REMARK  6 active torsions:
REMARK  status: ('A' for Active; 'I' for Inactive)
REMARK    1  A    between atoms: N_1  and  C_2
REMARK    2  A    between atoms: C_6  and  C_7
REMARK    3  A    between atoms: C_7  and  C_8
REMARK    4  A    between atoms: C_11  and  C_12
REMARK    5  A    between atoms: C_12  and  N_13
REMARK    6  A    between atoms: C_14  and  C_16
REMARK                            x       y       z     vdW  Elec       q    Type
REMARK                         _______ _______ _______ _____ _____    ______ ____
ROOT
ATOM      1  C   UNL     1      44.673   5.608  11.177  0.00  0.00    +0.000 A 
ATOM      2  C   UNL     1      44.343   6.952  11.403  0.00  0.00    +0.000 A 
ATOM      3  C   UNL     1      45.166   7.765  12.189  0.00  0.00    +0.000 A 
ATOM      4  C   UNL     1      46.344   7.256  12.751  0.00  0.00    +0.000 A 
ATOM      5  C   UNL     1      46.641   5.898  12.576  0.00  0.00    +0.000 A 
ATOM      6  C   UNL     1      45.819   5.085  11.789  0.00  0.00    +0.000 A 
ENDROOT
BRANCH   1   7
ATOM      7  C   UNL     1      43.825   4.750  10.266  0.00  0.00    +0.000 C 
BRANCH   7  12
ATOM      8  C   UNL     1      46.242   3.431   7.604  0.00  0.00    +0.000 A 
ATOM      9  C   UNL     1      46.169   2.057   7.840  0.00  0.00    +0.000 A 
ATOM     10  C   UNL     1      45.282   1.547   8.791  0.00  0.00    +0.000 A 
ATOM     11  C   UNL     1      44.501   2.414   9.555  0.00  0.00    +0.000 A 
ATOM     12  C   UNL     1      44.619   3.801   9.395  0.00  0.00    +0.000 A 
ATOM     13  C   UNL     1      45.503   4.293   8.419  0.00  0.00    +0.000 A 
BRANCH   8  14
ATOM     14  N   UNL     1      47.216   3.945   6.734  0.00  0.00    +0.000 N 
ATOM     15  H   UNL     1      46.842   4.598   6.052  0.00  0.00    +0.000 HD
ATOM     16  H   UNL     1      48.027   4.319   7.216  0.00  0.00    +0.000 HD
ENDBRANCH   8  14
ENDBRANCH   7  12
ENDBRANCH   1   7
BRANCH   4  17
ATOM     17  C   UNL     1      47.273   8.144  13.536  0.00  0.00    +0.000 C 
BRANCH  17  18
ATOM     18  N   UNL     1      47.677   7.527  14.769  0.00  0.00    +0.000 N 
ATOM     19  C   UNL     1      48.916   6.955  14.908  0.00  0.00    +0.000 C 
ATOM     20  O   UNL     1      49.750   6.980  14.006  0.00  0.00    +0.000 OA
ATOM     21  H   UNL     1      46.939   7.284  15.425  0.00  0.00    +0.000 HD
BRANCH  19  22
ATOM     22  C   UNL     1      49.222   6.371  16.218  0.00  0.00    +0.000 A 
ATOM     23  C   UNL     1      50.162   6.975  17.042  0.00  0.00    +0.000 A 
ATOM     24  S   UNL     1      50.331   6.214  18.559  0.00  0.00    +0.000 S 
ATOM     25  C   UNL     1      49.196   5.015  18.145  0.00  0.00    +0.000 A 
ATOM     26  N   UNL     1      48.880   4.019  19.018  0.00  0.00    +0.000 NA
ATOM     27  C   UNL     1      48.034   3.160  18.558  0.00  0.00    +0.000 A 
ATOM     28  N   UNL     1      47.476   3.202  17.307  0.00  0.00    +0.000 N 
ATOM     29  C   UNL     1      47.741   4.205  16.405  0.00  0.00    +0.000 A 
ATOM     30  O   UNL     1      47.192   4.236  15.308  0.00  0.00    +0.000 OA
ATOM     31  C   UNL     1      48.691   5.197  16.871  0.00  0.00    +0.000 A 
ATOM     32  H   UNL     1      46.817   2.499  17.010  0.00  0.00    +0.000 HD
ENDBRANCH  19  22
ENDBRANCH  17  18
ENDBRANCH   4  17
TORSDOF 6
ENDMDL
MODEL 3
REMARK VINA RESULT:    -7.849      1.425      2.026
REMARK INTER + INTRA:         -11.439
REMARK INTER:                 -10.452
REMARK INTRA:                  -0.987
REMARK UNBOUND:                -1.067
REMARK  Name = 
REMARK  6 active torsions:
REMARK  status: ('A' for Active; 'I' for Inactive)
REMARK    1  A    between atoms: N_1  and  C_2
REMARK    2  A    between atoms: C_6  and  C_7
REMARK    3  A    between atoms: C_7  and  C_8
REMARK    4  A    between atoms: C_11  and  C_12
REMARK    5  A    between atoms: C_12  and  N_13
REMARK    6  A    between atoms: C_14  and  C_16
REMARK                            x       y       z     vdW  Elec       q    Type
REMARK                         _______ _______ _______ _____ _____    ______ ____
ROOT
ATOM      1  C   UNL     1      44.924   4.384   9.495  0.00  0.00    +0.000 A 
ATOM      2  C   UNL     1      44.387   4.135  10.765  0.00  0.00    +0.000 A 
ATOM      3  C   UNL     1      44.747   4.929  11.859  0.00  0.00    +0.000 A 
ATOM      4  C   UNL     1      45.639   5.997  11.701  0.00  0.00    +0.000 A 
ATOM      5  C   UNL     1      46.222   6.207  10.445  0.00  0.00    +0.000 A 
ATOM      6  C   UNL     1      45.861   5.415   9.351  0.00  0.00    +0.000 A 
ENDROOT
BRANCH   1   7
ATOM      7  C   UNL     1      44.477   3.575   8.298  0.00  0.00    +0.000 C 
BRANCH   7  12
ATOM      8  C   UNL     1      47.330   2.306   6.081  0.00  0.00    +0.000 A 
ATOM      9  C   UNL     1      47.612   1.083   6.690  0.00  0.00    +0.000 A 
ATOM     10  C   UNL     1      46.834   0.625   7.756  0.00  0.00    +0.000 A 
ATOM     11  C   UNL     1      45.800   1.415   8.257  0.00  0.00    +0.000 A 
ATOM     12  C   UNL     1      45.552   2.684   7.717  0.00  0.00    +0.000 A 
ATOM     13  C   UNL     1      46.334   3.118   6.631  0.00  0.00    +0.000 A 
BRANCH   8  14
ATOM     14  N   UNL     1      48.185   2.814   5.091  0.00  0.00    +0.000 N 
ATOM     15  H   UNL     1      48.323   3.818   5.153  0.00  0.00    +0.000 HD
ATOM     16  H   UNL     1      49.065   2.312   5.025  0.00  0.00    +0.000 HD
ENDBRANCH   8  14
ENDBRANCH   7  12
ENDBRANCH   1   7
BRANCH   4  17
ATOM     17  C   UNL     1      45.975   6.903  12.857  0.00  0.00    +0.000 C 
BRANCH  17  18
ATOM     18  N   UNL     1      46.328   6.152  14.030  0.00  0.00    +0.000 N 
ATOM     19  C   UNL     1      47.633   5.825  14.300  0.00  0.00    +0.000 C 
ATOM     20  O   UNL     1      48.559   6.190  13.581  0.00  0.00    +0.000 OA
ATOM     21  H   UNL     1      45.580   5.644  14.494  0.00  0.00    +0.000 HD
BRANCH  19  22
ATOM     22  C   UNL     1      47.873   5.071  15.535  0.00  0.00    +0.000 A 
ATOM     23  C   UNL     1      47.434   3.759  15.642  0.00  0.00    +0.000 A 
ATOM     24  S   UNL     1      47.871   3.007  17.109  0.00  0.00    +0.000 S 
ATOM     25  C   UNL     1      48.613   4.430  17.679  0.00  0.00    +0.000 A 
ATOM     26  N   UNL     1      49.189   4.473  18.911  0.00  0.00    +0.000 NA
ATOM     27  C   UNL     1      49.679   5.625  19.227  0.00  0.00    +0.000 A 
ATOM     28  N   UNL     1      49.647   6.737  18.427  0.00  0.00    +0.000 N 
ATOM     29  C   UNL     1      49.103   6.731  17.164  0.00  0.00    +0.000 A 
ATOM     30  O   UNL     1      49.127   7.734  16.456  0.00  0.00    +0.000 OA
ATOM     31  C   UNL     1      48.534   5.460  16.759  0.00  0.00    +0.000 A 
ATOM     32  H   UNL     1      50.052   7.608  18.733  0.00  0.00    +0.000 HD
ENDBRANCH  19  22
ENDBRANCH  17  18
ENDBRANCH   4  17
TORSDOF 6
ENDMDL
MODEL 4
REMARK VINA RESULT:    -7.703      2.139      2.719
REMARK INTER + INTRA:         -11.247
REMARK INTER:                 -10.320
REMARK INTRA:                  -0.927
REMARK UNBOUND:                -1.067
REMARK  Name = 
REMARK  6 active torsions:
REMARK  status: ('A' for Active; 'I' for Inactive)
REMARK    1  A    between atoms: N_1  and  C_2
REMARK    2  A    between atoms: C_6  and  C_7
REMARK    3  A    between atoms: C_7  and  C_8
REMARK    4  A    between atoms: C_11  and  C_12
REMARK    5  A    between atoms: C_12  and  N_13
REMARK    6  A    between atoms: C_14  and  C_16
REMARK                            x       y       z     vdW  Elec       q    Type
REMARK                         _______ _______ _______ _____ _____    ______ ____
ROOT
ATOM      1  C   UNL     1      45.016   4.506  10.667  0.00  0.00    +0.000 A 
ATOM      2  C   UNL     1      45.496   5.790  10.375  0.00  0.00    +0.000 A 
ATOM      3  C   UNL     1      46.252   6.499  11.313  0.00  0.00    +0.000 A 
ATOM      4  C   UNL     1      46.558   5.931  12.557  0.00  0.00    +0.000 A 
ATOM      5  C   UNL     1      46.027   4.674  12.872  0.00  0.00    +0.000 A 
ATOM      6  C   UNL     1      45.272   3.965  11.934  0.00  0.00    +0.000 A 
ENDROOT
BRANCH   1   7
ATOM      7  C   UNL     1      44.263   3.709   9.625  0.00  0.00    +0.000 C 
BRANCH   7  12
ATOM      8  C   UNL     1      46.483   2.940   6.600  0.00  0.00    +0.000 A 
ATOM      9  C   UNL     1      46.881   1.635   6.892  0.00  0.00    +0.000 A 
ATOM     10  C   UNL     1      46.372   0.971   8.009  0.00  0.00    +0.000 A 
ATOM     11  C   UNL     1      45.501   1.629   8.878  0.00  0.00    +0.000 A 
ATOM     12  C   UNL     1      45.153   2.967   8.653  0.00  0.00    +0.000 A 
ATOM     13  C   UNL     1      45.661   3.611   7.511  0.00  0.00    +0.000 A 
BRANCH   8  14
ATOM     14  N   UNL     1      47.085   3.642   5.545  0.00  0.00    +0.000 N 
ATOM     15  H   UNL     1      48.099   3.577   5.545  0.00  0.00    +0.000 HD
ATOM     16  H   UNL     1      46.688   3.420   4.638  0.00  0.00    +0.000 HD
ENDBRANCH   8  14
ENDBRANCH   7  12
ENDBRANCH   1   7
BRANCH   4  17
ATOM     17  C   UNL     1      47.435   6.657  13.544  0.00  0.00    +0.000 C 
BRANCH  17  18
ATOM     18  N   UNL     1      47.473   5.983  14.812  0.00  0.00    +0.000 N 
ATOM     19  C   UNL     1      48.597   6.011  15.599  0.00  0.00    +0.000 C 
ATOM     20  O   UNL     1      49.600   6.644  15.282  0.00  0.00    +0.000 OA
ATOM     21  H   UNL     1      46.766   5.272  14.977  0.00  0.00    +0.000 HD
BRANCH  19  22
ATOM     22  C   UNL     1      48.512   5.300  16.880  0.00  0.00    +0.000 A 
ATOM     23  C   UNL     1      48.541   3.913  16.905  0.00  0.00    +0.000 A 
ATOM     24  S   UNL     1      48.519   3.255  18.478  0.00  0.00    +0.000 S 
ATOM     25  C   UNL     1      48.410   4.802  19.181  0.00  0.00    +0.000 A 
ATOM     26  N   UNL     1      48.338   4.953  20.532  0.00  0.00    +0.000 NA
ATOM     27  C   UNL     1      48.222   6.178  20.923  0.00  0.00    +0.000 A 
ATOM     28  N   UNL     1      48.169   7.265  20.090  0.00  0.00    +0.000 N 
ATOM     29  C   UNL     1      48.269   7.163  18.723  0.00  0.00    +0.000 A 
ATOM     30  O   UNL     1      48.260   8.160  18.007  0.00  0.00    +0.000 OA
ATOM     31  C   UNL     1      48.398   5.805  18.229  0.00  0.00    +0.000 A 
ATOM     32  H   UNL     1      48.080   8.199  20.461  0.00  0.00    +0.000 HD
ENDBRANCH  19  22
ENDBRANCH  17  18
ENDBRANCH   4  17
TORSDOF 6
ENDMDL
MODEL 5
REMARK VINA RESULT:    -7.552      2.603      4.175
REMARK INTER + INTRA:         -11.047
REMARK INTER:                 -10.019
REMARK INTRA:                  -1.028
REMARK UNBOUND:                -1.067
REMARK  Name = 
REMARK  6 active torsions:
REMARK  status: ('A' for Active; 'I' for Inactive)
REMARK    1  A    between atoms: N_1  and  C_2
REMARK    2  A    between atoms: C_6  and  C_7
REMARK    3  A    between atoms: C_7  and  C_8
REMARK    4  A    between atoms: C_11  and  C_12
REMARK    5  A    between atoms: C_12  and  N_13
REMARK    6  A    between atoms: C_14  and  C_16
REMARK                            x       y       z     vdW  Elec       q    Type
REMARK                         _______ _______ _______ _____ _____    ______ ____
ROOT
ATOM      1  C   UNL     1      45.150   4.516  10.141  0.00  0.00    +0.000 A 
ATOM      2  C   UNL     1      45.787   5.751  10.323  0.00  0.00    +0.000 A 
ATOM      3  C   UNL     1      46.251   6.135  11.584  0.00  0.00    +0.000 A 
ATOM      4  C   UNL     1      46.102   5.285  12.687  0.00  0.00    +0.000 A 
ATOM      5  C   UNL     1      45.411   4.078  12.519  0.00  0.00    +0.000 A 
ATOM      6  C   UNL     1      44.948   3.694  11.257  0.00  0.00    +0.000 A 
ENDROOT
BRANCH   1   7
ATOM      7  C   UNL     1      44.716   4.067   8.764  0.00  0.00    +0.000 C 
BRANCH   7  12
ATOM      8  C   UNL     1      47.427   2.399   6.633  0.00  0.00    +0.000 A 
ATOM      9  C   UNL     1      47.329   1.077   7.072  0.00  0.00    +0.000 A 
ATOM     10  C   UNL     1      46.341   0.704   7.984  0.00  0.00    +0.000 A 
ATOM     11  C   UNL     1      45.475   1.663   8.510  0.00  0.00    +0.000 A 
ATOM     12  C   UNL     1      45.607   3.010   8.149  0.00  0.00    +0.000 A 
ATOM     13  C   UNL     1      46.596   3.362   7.213  0.00  0.00    +0.000 A 
BRANCH   8  14
ATOM     14  N   UNL     1      48.493   2.791   5.810  0.00  0.00    +0.000 N 
ATOM     15  H   UNL     1      49.265   3.207   6.321  0.00  0.00    +0.000 HD
ATOM     16  H   UNL     1      48.804   2.057   5.180  0.00  0.00    +0.000 HD
ENDBRANCH   8  14
ENDBRANCH   7  12
ENDBRANCH   1   7
BRANCH   4  17
ATOM     17  C   UNL     1      46.665   5.658  14.034  0.00  0.00    +0.000 C 
BRANCH  17  18
ATOM     18  N   UNL     1      47.277   6.958  14.009  0.00  0.00    +0.000 N 
ATOM     19  C   UNL     1      48.531   7.164  14.527  0.00  0.00    +0.000 C 
ATOM     20  O   UNL     1      49.203   6.249  14.994  0.00  0.00    +0.000 OA
ATOM     21  H   UNL     1      46.663   7.753  13.856  0.00  0.00    +0.000 HD
BRANCH  19  22
ATOM     22  C   UNL     1      49.059   8.529  14.429  0.00  0.00    +0.000 A 
ATOM     23  C   UNL     1      48.975   9.383  15.521  0.00  0.00    +0.000 A 
ATOM     24  S   UNL     1      49.713  10.899  15.262  0.00  0.00    +0.000 S 
ATOM     25  C   UNL     1      50.118  10.489  13.661  0.00  0.00    +0.000 A 
ATOM     26  N   UNL     1      50.769  11.373  12.855  0.00  0.00    +0.000 NA
ATOM     27  C   UNL     1      50.978  10.943  11.656  0.00  0.00    +0.000 A 
ATOM     28  N   UNL     1      50.598   9.713  11.187  0.00  0.00    +0.000 N 
ATOM     29  C   UNL     1      49.966   8.778  11.972  0.00  0.00    +0.000 A 
ATOM     30  O   UNL     1      49.676   7.669  11.533  0.00  0.00    +0.000 OA
ATOM     31  C   UNL     1      49.703   9.212  13.331  0.00  0.00    +0.000 A 
ATOM     32  H   UNL     1      50.795   9.436  10.237  0.00  0.00    +0.000 HD
ENDBRANCH  19  22
ENDBRANCH  17  18
ENDBRANCH   4  17
TORSDOF 6
ENDMDL
MODEL 6
REMARK VINA RESULT:    -7.402      2.136      2.880
REMARK INTER + INTRA:         -10.849
REMARK INTER:                  -9.776
REMARK INTRA:                  -1.073
REMARK UNBOUND:                -1.067
REMARK  Name = 
REMARK  6 active torsions:
REMARK  status: ('A' for Active; 'I' for Inactive)
REMARK    1  A    between atoms: N_1  and  C_2
REMARK    2  A    between atoms: C_6  and  C_7
REMARK    3  A    between atoms: C_7  and  C_8
REMARK    4  A    between atoms: C_11  and  C_12
REMARK    5  A    between atoms: C_12  and  N_13
REMARK    6  A    between atoms: C_14  and  C_16
REMARK                            x       y       z     vdW  Elec       q    Type
REMARK                         _______ _______ _______ _____ _____    ______ ____
ROOT
ATOM      1  C   UNL     1      45.321   5.435  11.458  0.00  0.00    +0.000 A 
ATOM      2  C   UNL     1      45.777   6.741  11.233  0.00  0.00    +0.000 A 
ATOM      3  C   UNL     1      46.774   7.297  12.041  0.00  0.00    +0.000 A 
ATOM      4  C   UNL     1      47.345   6.553  13.081  0.00  0.00    +0.000 A 
ATOM      5  C   UNL     1      46.846   5.271  13.345  0.00  0.00    +0.000 A 
ATOM      6  C   UNL     1      45.851   4.714  12.536  0.00  0.00    +0.000 A 
ENDROOT
BRANCH   1   7
ATOM      7  C   UNL     1      44.300   4.806  10.537  0.00  0.00    +0.000 C 
BRANCH   7  12
ATOM      8  C   UNL     1      46.174   3.420   7.499  0.00  0.00    +0.000 A 
ATOM      9  C   UNL     1      46.057   2.047   7.722  0.00  0.00    +0.000 A 
ATOM     10  C   UNL     1      45.306   1.564   8.795  0.00  0.00    +0.000 A 
ATOM     11  C   UNL     1      44.711   2.454   9.689  0.00  0.00    +0.000 A 
ATOM     12  C   UNL     1      44.885   3.835   9.535  0.00  0.00    +0.000 A 
ATOM     13  C   UNL     1      45.628   4.302   8.436  0.00  0.00    +0.000 A 
BRANCH   8  14
ATOM     14  N   UNL     1      47.024   3.900   6.492  0.00  0.00    +0.000 N 
ATOM     15  H   UNL     1      46.688   4.751   6.052  0.00  0.00    +0.000 HD
ATOM     16  H   UNL     1      47.992   3.981   6.788  0.00  0.00    +0.000 HD
ENDBRANCH   8  14
ENDBRANCH   7  12
ENDBRANCH   1   7
BRANCH   4  17
ATOM     17  C   UNL     1      48.470   7.118  13.909  0.00  0.00    +0.000 C 
BRANCH  17  18
ATOM     18  N   UNL     1      48.241   6.926  15.313  0.00  0.00    +0.000 N 
ATOM     19  C   UNL     1      49.013   7.559  16.254  0.00  0.00    +0.000 C 
ATOM     20  O   UNL     1      49.903   8.347  15.945  0.00  0.00    +0.000 OA
ATOM     21  H   UNL     1      47.690   6.115  15.583  0.00  0.00    +0.000 HD
BRANCH  19  22
ATOM     22  C   UNL     1      48.674   7.299  17.658  0.00  0.00    +0.000 A 
ATOM     23  C   UNL     1      48.144   8.315  18.441  0.00  0.00    +0.000 A 
ATOM     24  S   UNL     1      47.730   7.818  20.019  0.00  0.00    +0.000 S 
ATOM     25  C   UNL     1      48.301   6.241  19.730  0.00  0.00    +0.000 A 
ATOM     26  N   UNL     1      48.253   5.290  20.702  0.00  0.00    +0.000 NA
ATOM     27  C   UNL     1      48.753   4.151  20.356  0.00  0.00    +0.000 A 
ATOM     28  N   UNL     1      49.299   3.875  19.130  0.00  0.00    +0.000 N 
ATOM     29  C   UNL     1      49.341   4.795  18.108  0.00  0.00    +0.000 A 
ATOM     30  O   UNL     1      49.799   4.503  17.007  0.00  0.00    +0.000 OA
ATOM     31  C   UNL     1      48.793   6.094  18.446  0.00  0.00    +0.000 A 
ATOM     32  H   UNL     1      49.671   2.961  18.922  0.00  0.00    +0.000 HD
ENDBRANCH  19  22
ENDBRANCH  17  18
ENDBRANCH   4  17
TORSDOF 6
ENDMDL
MODEL 7
REMARK VINA RESULT:    -6.887      4.172      9.784
REMARK INTER + INTRA:         -10.168
REMARK INTER:                  -9.173
REMARK INTRA:                  -0.994
REMARK UNBOUND:                -1.067
REMARK  Name = 
REMARK  6 active torsions:
REMARK  status: ('A' for Active; 'I' for Inactive)
REMARK    1  A    between atoms: N_1  and  C_2
REMARK    2  A    between atoms: C_6  and  C_7
REMARK    3  A    between atoms: C_7  and  C_8
REMARK    4  A    between atoms: C_11  and  C_12
REMARK    5  A    between atoms: C_12  and  N_13
REMARK    6  A    between atoms: C_14  and  C_16
REMARK                            x       y       z     vdW  Elec       q    Type
REMARK                         _______ _______ _______ _____ _____    ______ ____
ROOT
ATOM      1  C   UNL     1      47.948   7.252  19.574  0.00  0.00    +0.000 A 
ATOM      2  C   UNL     1      49.025   7.299  18.679  0.00  0.00    +0.000 A 
ATOM      3  C   UNL     1      49.109   6.393  17.617  0.00  0.00    +0.000 A 
ATOM      4  C   UNL     1      48.109   5.433  17.418  0.00  0.00    +0.000 A 
ATOM      5  C   UNL     1      47.065   5.346  18.348  0.00  0.00    +0.000 A 
ATOM      6  C   UNL     1      46.980   6.253  19.409  0.00  0.00    +0.000 A 
ENDROOT
BRANCH   1   7
ATOM      7  C   UNL     1      47.816   8.279  20.676  0.00  0.00    +0.000 C 
BRANCH   7  12
ATOM      8  C   UNL     1      47.280  11.471  18.628  0.00  0.00    +0.000 A 
ATOM      9  C   UNL     1      46.194  12.034  19.300  0.00  0.00    +0.000 A 
ATOM     10  C   UNL     1      45.689  11.438  20.457  0.00  0.00    +0.000 A 
ATOM     11  C   UNL     1      46.232  10.241  20.922  0.00  0.00    +0.000 A 
ATOM     12  C   UNL     1      47.267   9.612  20.218  0.00  0.00    +0.000 A 
ATOM     13  C   UNL     1      47.774  10.238  19.065  0.00  0.00    +0.000 A 
BRANCH   8  14
ATOM     14  N   UNL     1      47.706  12.007  17.404  0.00  0.00    +0.000 N 
ATOM     15  H   UNL     1      48.402  12.740  17.505  0.00  0.00    +0.000 HD
ATOM     16  H   UNL     1      47.993  11.300  16.734  0.00  0.00    +0.000 HD
ENDBRANCH   8  14
ENDBRANCH   7  12
ENDBRANCH   1   7
BRANCH   4  17
ATOM     17  C   UNL     1      48.154   4.502  16.234  0.00  0.00    +0.000 C 
BRANCH  17  18
ATOM     18  N   UNL     1      47.165   4.850  15.252  0.00  0.00    +0.000 N 
ATOM     19  C   UNL     1      47.488   5.608  14.155  0.00  0.00    +0.000 C 
ATOM     20  O   UNL     1      48.636   5.987  13.938  0.00  0.00    +0.000 OA
ATOM     21  H   UNL     1      46.191   4.761  15.527  0.00  0.00    +0.000 HD
BRANCH  19  22
ATOM     22  C   UNL     1      46.400   5.886  13.211  0.00  0.00    +0.000 A 
ATOM     23  C   UNL     1      46.076   7.199  12.895  0.00  0.00    +0.000 A 
ATOM     24  S   UNL     1      44.846   7.336  11.721  0.00  0.00    +0.000 S 
ATOM     25  C   UNL     1      44.662   5.646  11.637  0.00  0.00    +0.000 A 
ATOM     26  N   UNL     1      43.739   5.083  10.811  0.00  0.00    +0.000 NA
ATOM     27  C   UNL     1      43.684   3.795  10.877  0.00  0.00    +0.000 A 
ATOM     28  N   UNL     1      44.464   3.018  11.693  0.00  0.00    +0.000 N 
ATOM     29  C   UNL     1      45.429   3.540  12.520  0.00  0.00    +0.000 A 
ATOM     30  O   UNL     1      46.140   2.814  13.208  0.00  0.00    +0.000 OA
ATOM     31  C   UNL     1      45.531   4.987  12.487  0.00  0.00    +0.000 A 
ATOM     32  H   UNL     1      44.372   2.013  11.694  0.00  0.00    +0.000 HD
ENDBRANCH  19  22
ENDBRANCH  17  18
ENDBRANCH   4  17
TORSDOF 6
ENDMDL
MODEL 8
REMARK VINA RESULT:    -6.835      3.835      8.011
REMARK INTER + INTRA:         -10.099
REMARK INTER:                  -8.814
REMARK INTRA:                  -1.285
REMARK UNBOUND:                -1.067
REMARK  Name = 
REMARK  6 active torsions:
REMARK  status: ('A' for Active; 'I' for Inactive)
REMARK    1  A    between atoms: N_1  and  C_2
REMARK    2  A    between atoms: C_6  and  C_7
REMARK    3  A    between atoms: C_7  and  C_8
REMARK    4  A    between atoms: C_11  and  C_12
REMARK    5  A    between atoms: C_12  and  N_13
REMARK    6  A    between atoms: C_14  and  C_16
REMARK                            x       y       z     vdW  Elec       q    Type
REMARK                         _______ _______ _______ _____ _____    ______ ____
ROOT
ATOM      1  C   UNL     1      50.838   6.343  17.648  0.00  0.00    +0.000 A 
ATOM      2  C   UNL     1      49.644   6.912  18.113  0.00  0.00    +0.000 A 
ATOM      3  C   UNL     1      48.868   7.721  17.277  0.00  0.00    +0.000 A 
ATOM      4  C   UNL     1      49.262   7.966  15.956  0.00  0.00    +0.000 A 
ATOM      5  C   UNL     1      50.485   7.449  15.512  0.00  0.00    +0.000 A 
ATOM      6  C   UNL     1      51.260   6.638  16.346  0.00  0.00    +0.000 A 
ENDROOT
BRANCH   1   7
ATOM      7  C   UNL     1      51.638   5.407  18.526  0.00  0.00    +0.000 C 
BRANCH   7  12
ATOM      8  C   UNL     1      50.330   2.110  17.080  0.00  0.00    +0.000 A 
ATOM      9  C   UNL     1      51.447   1.290  17.243  0.00  0.00    +0.000 A 
ATOM     10  C   UNL     1      52.588   1.766  17.892  0.00  0.00    +0.000 A 
ATOM     11  C   UNL     1      52.641   3.088  18.335  0.00  0.00    +0.000 A 
ATOM     12  C   UNL     1      51.564   3.954  18.109  0.00  0.00    +0.000 A 
ATOM     13  C   UNL     1      50.417   3.449  17.471  0.00  0.00    +0.000 A 
BRANCH   8  14
ATOM     14  N   UNL     1      49.234   1.665  16.326  0.00  0.00    +0.000 N 
ATOM     15  H   UNL     1      48.747   2.414  15.842  0.00  0.00    +0.000 HD
ATOM     16  H   UNL     1      49.460   0.894  15.705  0.00  0.00    +0.000 HD
ENDBRANCH   8  14
ENDBRANCH   7  12
ENDBRANCH   1   7
BRANCH   4  17
ATOM     17  C   UNL     1      48.394   8.775  15.027  0.00  0.00    +0.000 C 
BRANCH  17  18
ATOM     18  N   UNL     1      47.381   7.964  14.410  0.00  0.00    +0.000 N 
ATOM     19  C   UNL     1      47.193   7.972  13.051  0.00  0.00    +0.000 C 
ATOM     20  O   UNL     1      47.903   8.633  12.297  0.00  0.00    +0.000 OA
ATOM     21  H   UNL     1      46.644   7.610  15.013  0.00  0.00    +0.000 HD
BRANCH  19  22
ATOM     22  C   UNL     1      46.140   7.091  12.534  0.00  0.00    +0.000 A 
ATOM     23  C   UNL     1      45.098   7.624  11.786  0.00  0.00    +0.000 A 
ATOM     24  S   UNL     1      44.011   6.450  11.194  0.00  0.00    +0.000 S 
ATOM     25  C   UNL     1      44.862   5.194  11.967  0.00  0.00    +0.000 A 
ATOM     26  N   UNL     1      44.442   3.903  11.874  0.00  0.00    +0.000 NA
ATOM     27  C   UNL     1      45.160   3.062  12.539  0.00  0.00    +0.000 A 
ATOM     28  N   UNL     1      46.258   3.391  13.289  0.00  0.00    +0.000 N 
ATOM     29  C   UNL     1      46.737   4.676  13.387  0.00  0.00    +0.000 A 
ATOM     30  O   UNL     1      47.749   4.931  14.034  0.00  0.00    +0.000 OA
ATOM     31  C   UNL     1      45.964   5.663  12.660  0.00  0.00    +0.000 A 
ATOM     32  H   UNL     1      46.779   2.683  13.784  0.00  0.00    +0.000 HD
ENDBRANCH  19  22
ENDBRANCH  17  18
ENDBRANCH   4  17
TORSDOF 6
ENDMDL
MODEL 9
REMARK VINA RESULT:    -6.815      2.893      4.086
REMARK INTER + INTRA:         -10.073
REMARK INTER:                  -8.606
REMARK INTRA:                  -1.468
REMARK UNBOUND:                -1.067
REMARK  Name = 
REMARK  6 active torsions:
REMARK  status: ('A' for Active; 'I' for Inactive)
REMARK    1  A    between atoms: N_1  and  C_2
REMARK    2  A    between atoms: C_6  and  C_7
REMARK    3  A    between atoms: C_7  and  C_8
REMARK    4  A    between atoms: C_11  and  C_12
REMARK    5  A    between atoms: C_12  and  N_13
REMARK    6  A    between atoms: C_14  and  C_16
REMARK                            x       y       z     vdW  Elec       q    Type
REMARK                         _______ _______ _______ _____ _____    ______ ____
ROOT
ATOM      1  C   UNL     1      45.926   7.446  11.830  0.00  0.00    +0.000 A 
ATOM      2  C   UNL     1      47.108   6.693  11.825  0.00  0.00    +0.000 A 
ATOM      3  C   UNL     1      48.214   7.099  12.577  0.00  0.00    +0.000 A 
ATOM      4  C   UNL     1      48.157   8.258  13.361  0.00  0.00    +0.000 A 
ATOM      5  C   UNL     1      46.998   9.043  13.317  0.00  0.00    +0.000 A 
ATOM      6  C   UNL     1      45.891   8.637  12.567  0.00  0.00    +0.000 A 
ENDROOT
BRANCH   1   7
ATOM      7  C   UNL     1      44.704   6.968  11.079  0.00  0.00    +0.000 C 
BRANCH   7  12
ATOM      8  C   UNL     1      44.059   3.201  10.822  0.00  0.00    +0.000 A 
ATOM      9  C   UNL     1      43.570   2.931  12.101  0.00  0.00    +0.000 A 
ATOM     10  C   UNL     1      43.366   3.966  13.016  0.00  0.00    +0.000 A 
ATOM     11  C   UNL     1      43.703   5.276  12.677  0.00  0.00    +0.000 A 
ATOM     12  C   UNL     1      44.274   5.561  11.430  0.00  0.00    +0.000 A 
ATOM     13  C   UNL     1      44.453   4.507  10.515  0.00  0.00    +0.000 A 
BRANCH   8  14
ATOM     14  N   UNL     1      44.373   2.148   9.950  0.00  0.00    +0.000 N 
ATOM     15  H   UNL     1      43.779   1.333  10.073  0.00  0.00    +0.000 HD
ATOM     16  H   UNL     1      44.430   2.435   8.978  0.00  0.00    +0.000 HD
ENDBRANCH   8  14
ENDBRANCH   7  12
ENDBRANCH   1   7
BRANCH   4  17
ATOM     17  C   UNL     1      49.318   8.662  14.232  0.00  0.00    +0.000 C 
BRANCH  17  18
ATOM     18  N   UNL     1      49.421   7.827  15.396  0.00  0.00    +0.000 N 
ATOM     19  C   UNL     1      48.780   8.152  16.565  0.00  0.00    +0.000 C 
ATOM     20  O   UNL     1      48.058   9.142  16.659  0.00  0.00    +0.000 OA
ATOM     21  H   UNL     1      50.185   7.157  15.416  0.00  0.00    +0.000 HD
BRANCH  19  22
ATOM     22  C   UNL     1      48.945   7.215  17.682  0.00  0.00    +0.000 A 
ATOM     23  C   UNL     1      49.395   7.677  18.911  0.00  0.00    +0.000 A 
ATOM     24  S   UNL     1      49.448   6.472  20.117  0.00  0.00    +0.000 S 
ATOM     25  C   UNL     1      48.927   5.277  19.021  0.00  0.00    +0.000 A 
ATOM     26  N   UNL     1      48.774   3.984  19.417  0.00  0.00    +0.000 NA
ATOM     27  C   UNL     1      48.410   3.180  18.475  0.00  0.00    +0.000 A 
ATOM     28  N   UNL     1      48.187   3.548  17.174  0.00  0.00    +0.000 N 
ATOM     29  C   UNL     1      48.300   4.847  16.736  0.00  0.00    +0.000 A 
ATOM     30  O   UNL     1      48.052   5.150  15.573  0.00  0.00    +0.000 OA
ATOM     31  C   UNL     1      48.710   5.792  17.756  0.00  0.00    +0.000 A 
ATOM     32  H   UNL     1      47.901   2.870  16.485  0.00  0.00    +0.000 HD
ENDBRANCH  19  22
ENDBRANCH  17  18
ENDBRANCH   4  17
TORSDOF 6
ENDMDL
