MODEL 1
REMARK VINA RESULT:    -7.015      0.000      0.000
REMARK INTER + INTRA:         -12.501
REMARK INTER:                 -11.732
REMARK INTRA:                  -0.769
REMARK UNBOUND:                -0.769
REMARK  Name = 
REMARK  13 active torsions:
REMARK  status: ('A' for Active; 'I' for Inactive)
REMARK    1  A    between atoms: C_1  and  C_2
REMARK    2  A    between atoms: C_2  and  C_3
REMARK    3  A    between atoms: C_6  and  C_7
REMARK    4  A    between atoms: C_7  and  C_8
REMARK    5  A    between atoms: C_8  and  C_9
REMARK    6  A    between atoms: C_14  and  C_15
REMARK    7  A    between atoms: C_15  and  N_16
REMARK    8  A    between atoms: N_16  and  C_17
REMARK    9  A    between atoms: C_17  and  C_18
REMARK   10  A    between atoms: C_18  and  C_19
REMARK   11  A    between atoms: C_19  and  C_20
REMARK   12  A    between atoms: C_20  and  C_21
REMARK   13  A    between atoms: C_21  and  O_22
REMARK                            x       y       z     vdW  Elec       q    Type
REMARK                         _______ _______ _______ _____ _____    ______ ____
ROOT
ATOM      1  C   UNL     1      45.443   5.526  11.794  0.00  0.00    +0.000 A 
ATOM      2  C   UNL     1      46.365   6.495  11.370  0.00  0.00    +0.000 A 
ATOM      3  C   UNL     1      47.477   6.796  12.156  0.00  0.00    +0.000 A 
ATOM      4 CL   UNL     1      48.604   7.982  11.621  0.00  0.00    +0.000 Cl
ATOM      5  C   UNL     1      47.684   6.144  13.370  0.00  0.00    +0.000 A 
ATOM      6  C   UNL     1      46.777   5.171  13.813  0.00  0.00    +0.000 A 
ATOM      7  C   UNL     1      45.666   4.865  13.012  0.00  0.00    +0.000 A 
ENDROOT
BRANCH   1   8
ATOM      8  C   UNL     1      44.246   5.184  10.934  0.00  0.00    +0.000 C 
BRANCH   8   9
ATOM      9  C   UNL     1      44.199   3.697  10.555  0.00  0.00    +0.000 C 
BRANCH   9  13
ATOM     10  C   UNL     1      46.568   2.816   7.186  0.00  0.00    +0.000 A 
ATOM     11  C   UNL     1      46.182   1.817   8.072  0.00  0.00    +0.000 A 
ATOM     12  N   UNL     1      45.412   2.053   9.160  0.00  0.00    +0.000 NA
ATOM     13  C   UNL     1      45.034   3.340   9.351  0.00  0.00    +0.000 A 
ATOM     14  C   UNL     1      45.412   4.336   8.457  0.00  0.00    +0.000 A 
ATOM     15  N   UNL     1      46.180   4.101   7.367  0.00  0.00    +0.000 NA
BRANCH  10  17
ATOM     16  C   UNL     1      47.344   1.074   5.583  0.00  0.00    +0.000 C 
ATOM     17  C   UNL     1      47.485   2.520   6.035  0.00  0.00    +0.000 C 
ENDBRANCH  10  17
ENDBRANCH   9  13
ENDBRANCH   8   9
ENDBRANCH   1   8
BRANCH   6  18
ATOM     18  C   UNL     1      47.003   4.455  15.123  0.00  0.00    +0.000 C 
BRANCH  18  19
ATOM     19  N   UNL     1      48.263   4.875  15.736  0.00  0.00    +0.000 NA
ATOM     20  H   UNL     1      48.292   5.893  15.770  0.00  0.00    +0.000 HD
BRANCH  19  21
ATOM     21  C   UNL     1      48.405   4.330  17.083  0.00  0.00    +0.000 C 
BRANCH  21  22
ATOM     22  C   UNL     1      48.112   2.827  17.064  0.00  0.00    +0.000 C 
BRANCH  22  23
ATOM     23  C   UNL     1      49.356   2.028  16.673  0.00  0.00    +0.000 C 
BRANCH  23  24
ATOM     24  C   UNL     1      50.591   2.508  17.434  0.00  0.00    +0.000 C 
BRANCH  24  25
ATOM     25  C   UNL     1      51.717   1.485  17.372  0.00  0.00    +0.000 C 
BRANCH  25  26
ATOM     26  O   UNL     1      51.362   0.331  18.120  0.00  0.00    +0.000 OA
ATOM     27  H   UNL     1      50.406   0.190  18.007  0.00  0.00    +0.000 HD
ENDBRANCH  25  26
ENDBRANCH  24  25
ENDBRANCH  23  24
ENDBRANCH  22  23
ENDBRANCH  21  22
ENDBRANCH  19  21
ENDBRANCH  18  19
ENDBRANCH   6  18
TORSDOF 12
ENDMDL
MODEL 2
REMARK VINA RESULT:    -6.921      1.500      1.976
REMARK INTER + INTRA:         -12.342
REMARK INTER:                 -11.376
REMARK INTRA:                  -0.967
REMARK UNBOUND:                -0.769
REMARK  Name = 
REMARK  13 active torsions:
REMARK  status: ('A' for Active; 'I' for Inactive)
REMARK    1  A    between atoms: C_1  and  C_2
REMARK    2  A    between atoms: C_2  and  C_3
REMARK    3  A    between atoms: C_6  and  C_7
REMARK    4  A    between atoms: C_7  and  C_8
REMARK    5  A    between atoms: C_8  and  C_9
REMARK    6  A    between atoms: C_14  and  C_15
REMARK    7  A    between atoms: C_15  and  N_16
REMARK    8  A    between atoms: N_16  and  C_17
REMARK    9  A    between atoms: C_17  and  C_18
REMARK   10  A    between atoms: C_18  and  C_19
REMARK   11  A    between atoms: C_19  and  C_20
REMARK   12  A    between atoms: C_20  and  C_21
REMARK   13  A    between atoms: C_21  and  O_22
REMARK                            x       y       z     vdW  Elec       q    Type
REMARK                         _______ _______ _______ _____ _____    ______ ____
ROOT
ATOM      1  C   UNL     1      45.210   5.177  12.066  0.00  0.00    +0.000 A 
ATOM      2  C   UNL     1      44.558   6.301  11.539  0.00  0.00    +0.000 A 
ATOM      3  C   UNL     1      45.042   7.581  11.805  0.00  0.00    +0.000 A 
ATOM      4 CL   UNL     1      44.237   8.952  11.146  0.00  0.00    +0.000 Cl
ATOM      5  C   UNL     1      46.174   7.760  12.598  0.00  0.00    +0.000 A 
ATOM      6  C   UNL     1      46.843   6.651  13.134  0.00  0.00    +0.000 A 
ATOM      7  C   UNL     1      46.357   5.365  12.854  0.00  0.00    +0.000 A 
ENDROOT
BRANCH   1   8
ATOM      8  C   UNL     1      44.698   3.785  11.763  0.00  0.00    +0.000 C 
BRANCH   8   9
ATOM      9  C   UNL     1      44.045   3.687  10.378  0.00  0.00    +0.000 C 
BRANCH   9  13
ATOM     10  C   UNL     1      46.741   2.728   7.287  0.00  0.00    +0.000 A 
ATOM     11  C   UNL     1      46.235   1.743   8.127  0.00  0.00    +0.000 A 
ATOM     12  N   UNL     1      45.357   2.005   9.125  0.00  0.00    +0.000 NA
ATOM     13  C   UNL     1      44.995   3.301   9.272  0.00  0.00    +0.000 A 
ATOM     14  C   UNL     1      45.495   4.284   8.423  0.00  0.00    +0.000 A 
ATOM     15  N   UNL     1      46.370   4.024   7.423  0.00  0.00    +0.000 NA
BRANCH  10  17
ATOM     16  C   UNL     1      47.366   1.171   5.445  0.00  0.00    +0.000 C 
ATOM     17  C   UNL     1      47.770   2.403   6.243  0.00  0.00    +0.000 C 
ENDBRANCH  10  17
ENDBRANCH   9  13
ENDBRANCH   8   9
ENDBRANCH   1   8
BRANCH   6  18
ATOM     18  C   UNL     1      48.076   6.841  13.987  0.00  0.00    +0.000 C 
BRANCH  18  19
ATOM     19  N   UNL     1      48.280   5.693  14.870  0.00  0.00    +0.000 NA
ATOM     20  H   UNL     1      48.915   5.037  14.417  0.00  0.00    +0.000 HD
BRANCH  19  21
ATOM     21  C   UNL     1      48.829   6.106  16.158  0.00  0.00    +0.000 C 
BRANCH  21  22
ATOM     22  C   UNL     1      48.152   5.317  17.282  0.00  0.00    +0.000 C 
BRANCH  22  23
ATOM     23  C   UNL     1      47.344   4.145  16.723  0.00  0.00    +0.000 C 
BRANCH  23  24
ATOM     24  C   UNL     1      47.755   2.824  17.370  0.00  0.00    +0.000 C 
BRANCH  24  25
ATOM     25  C   UNL     1      49.218   2.501  17.098  0.00  0.00    +0.000 C 
BRANCH  25  26
ATOM     26  O   UNL     1      49.329   1.732  15.909  0.00  0.00    +0.000 OA
ATOM     27  H   UNL     1      50.272   1.697  15.670  0.00  0.00    +0.000 HD
ENDBRANCH  25  26
ENDBRANCH  24  25
ENDBRANCH  23  24
ENDBRANCH  22  23
ENDBRANCH  21  22
ENDBRANCH  19  21
ENDBRANCH  18  19
ENDBRANCH   6  18
TORSDOF 12
ENDMDL
MODEL 3
REMARK VINA RESULT:    -6.831      1.858      2.493
REMARK INTER + INTRA:         -12.193
REMARK INTER:                 -11.392
REMARK INTRA:                  -0.801
REMARK UNBOUND:                -0.769
REMARK  Name = 
REMARK  13 active torsions:
REMARK  status: ('A' for Active; 'I' for Inactive)
REMARK    1  A    between atoms: C_1  and  C_2
REMARK    2  A    between atoms: C_2  and  C_3
REMARK    3  A    between atoms: C_6  and  C_7
REMARK    4  A    between atoms: C_7  and  C_8
REMARK    5  A    between atoms: C_8  and  C_9
REMARK    6  A    between atoms: C_14  and  C_15
REMARK    7  A    between atoms: C_15  and  N_16
REMARK    8  A    between atoms: N_16  and  C_17
REMARK    9  A    between atoms: C_17  and  C_18
REMARK   10  A    between atoms: C_18  and  C_19
REMARK   11  A    between atoms: C_19  and  C_20
REMARK   12  A    between atoms: C_20  and  C_21
REMARK   13  A    between atoms: C_21  and  O_22
REMARK                            x       y       z     vdW  Elec       q    Type
REMARK                         _______ _______ _______ _____ _____    ______ ____
ROOT
ATOM      1  C   UNL     1      45.494   4.791  12.210  0.00  0.00    +0.000 A 
ATOM      2  C   UNL     1      46.118   5.914  11.650  0.00  0.00    +0.000 A 
ATOM      3  C   UNL     1      47.137   6.568  12.342  0.00  0.00    +0.000 A 
ATOM      4 CL   UNL     1      47.900   7.942  11.639  0.00  0.00    +0.000 Cl
ATOM      5  C   UNL     1      47.545   6.118  13.596  0.00  0.00    +0.000 A 
ATOM      6  C   UNL     1      46.936   4.996  14.175  0.00  0.00    +0.000 A 
ATOM      7  C   UNL     1      45.918   4.336  13.469  0.00  0.00    +0.000 A 
ENDROOT
BRANCH   1   8
ATOM      8  C   UNL     1      44.400   4.068  11.453  0.00  0.00    +0.000 C 
BRANCH   8   9
ATOM      9  C   UNL     1      44.319   4.498   9.983  0.00  0.00    +0.000 C 
BRANCH   9  13
ATOM     10  C   UNL     1      46.685   2.142   7.416  0.00  0.00    +0.000 A 
ATOM     11  C   UNL     1      46.581   3.516   7.235  0.00  0.00    +0.000 A 
ATOM     12  N   UNL     1      45.842   4.313   8.043  0.00  0.00    +0.000 NA
ATOM     13  C   UNL     1      45.189   3.691   9.053  0.00  0.00    +0.000 A 
ATOM     14  C   UNL     1      45.303   2.316   9.239  0.00  0.00    +0.000 A 
ATOM     15  N   UNL     1      46.043   1.519   8.433  0.00  0.00    +0.000 NA
BRANCH  10  17
ATOM     16  C   UNL     1      47.535   1.950   5.083  0.00  0.00    +0.000 C 
ATOM     17  C   UNL     1      47.454   1.288   6.450  0.00  0.00    +0.000 C 
ENDBRANCH  10  17
ENDBRANCH   9  13
ENDBRANCH   8   9
ENDBRANCH   1   8
BRANCH   6  18
ATOM     18  C   UNL     1      47.381   4.499  15.530  0.00  0.00    +0.000 C 
BRANCH  18  19
ATOM     19  N   UNL     1      47.624   3.057  15.503  0.00  0.00    +0.000 NA
ATOM     20  H   UNL     1      48.033   2.807  14.603  0.00  0.00    +0.000 HD
BRANCH  19  21
ATOM     21  C   UNL     1      48.517   2.649  16.584  0.00  0.00    +0.000 C 
BRANCH  21  22
ATOM     22  C   UNL     1      48.957   3.880  17.380  0.00  0.00    +0.000 C 
BRANCH  22  23
ATOM     23  C   UNL     1      48.684   3.697  18.874  0.00  0.00    +0.000 C 
BRANCH  23  24
ATOM     24  C   UNL     1      48.526   5.041  19.582  0.00  0.00    +0.000 C 
BRANCH  24  25
ATOM     25  C   UNL     1      47.588   5.966  18.818  0.00  0.00    +0.000 C 
BRANCH  25  26
ATOM     26  O   UNL     1      46.279   5.414  18.793  0.00  0.00    +0.000 OA
ATOM     27  H   UNL     1      46.299   4.637  18.207  0.00  0.00    +0.000 HD
ENDBRANCH  25  26
ENDBRANCH  24  25
ENDBRANCH  23  24
ENDBRANCH  22  23
ENDBRANCH  21  22
ENDBRANCH  19  21
ENDBRANCH  18  19
ENDBRANCH   6  18
TORSDOF 12
ENDMDL
MODEL 4
REMARK VINA RESULT:    -6.544      4.322      6.410
REMARK INTER + INTRA:         -11.713
REMARK INTER:                 -10.564
REMARK INTRA:                  -1.149
REMARK UNBOUND:                -0.769
REMARK  Name = 
REMARK  13 active torsions:
REMARK  status: ('A' for Active; 'I' for Inactive)
REMARK    1  A    between atoms: C_1  and  C_2
REMARK    2  A    between atoms: C_2  and  C_3
REMARK    3  A    between atoms: C_6  and  C_7
REMARK    4  A    between atoms: C_7  and  C_8
REMARK    5  A    between atoms: C_8  and  C_9
REMARK    6  A    between atoms: C_14  and  C_15
REMARK    7  A    between atoms: C_15  and  N_16
REMARK    8  A    between atoms: N_16  and  C_17
REMARK    9  A    between atoms: C_17  and  C_18
REMARK   10  A    between atoms: C_18  and  C_19
REMARK   11  A    between atoms: C_19  and  C_20
REMARK   12  A    between atoms: C_20  and  C_21
REMARK   13  A    between atoms: C_21  and  O_22
REMARK                            x       y       z     vdW  Elec       q    Type
REMARK                         _______ _______ _______ _____ _____    ______ ____
ROOT
ATOM      1  C   UNL     1      44.894   5.645  11.778  0.00  0.00    +0.000 A 
ATOM      2  C   UNL     1      45.341   4.780  12.788  0.00  0.00    +0.000 A 
ATOM      3  C   UNL     1      46.418   5.144  13.596  0.00  0.00    +0.000 A 
ATOM      4 CL   UNL     1      46.952   4.077  14.837  0.00  0.00    +0.000 Cl
ATOM      5  C   UNL     1      47.063   6.365  13.410  0.00  0.00    +0.000 A 
ATOM      6  C   UNL     1      46.632   7.245  12.408  0.00  0.00    +0.000 A 
ATOM      7  C   UNL     1      45.542   6.878  11.605  0.00  0.00    +0.000 A 
ENDROOT
BRANCH   1   8
ATOM      8  C   UNL     1      43.714   5.261  10.912  0.00  0.00    +0.000 C 
BRANCH   8   9
ATOM      9  C   UNL     1      43.676   3.759  10.600  0.00  0.00    +0.000 C 
BRANCH   9  13
ATOM     10  C   UNL     1      46.369   2.675   7.548  0.00  0.00    +0.000 A 
ATOM     11  C   UNL     1      45.942   1.747   8.490  0.00  0.00    +0.000 A 
ATOM     12  N   UNL     1      45.068   2.048   9.480  0.00  0.00    +0.000 NA
ATOM     13  C   UNL     1      44.628   3.329   9.513  0.00  0.00    +0.000 A 
ATOM     14  C   UNL     1      45.049   4.254   8.563  0.00  0.00    +0.000 A 
ATOM     15  N   UNL     1      45.920   3.953   7.571  0.00  0.00    +0.000 NA
BRANCH  10  17
ATOM     16  C   UNL     1      46.921   2.693   5.120  0.00  0.00    +0.000 C 
ATOM     17  C   UNL     1      47.397   2.316   6.515  0.00  0.00    +0.000 C 
ENDBRANCH  10  17
ENDBRANCH   9  13
ENDBRANCH   8   9
ENDBRANCH   1   8
BRANCH   6  18
ATOM     18  C   UNL     1      47.323   8.574  12.209  0.00  0.00    +0.000 C 
BRANCH  18  19
ATOM     19  N   UNL     1      46.490   9.673  12.694  0.00  0.00    +0.000 NA
ATOM     20  H   UNL     1      46.723   9.861  13.668  0.00  0.00    +0.000 HD
BRANCH  19  21
ATOM     21  C   UNL     1      46.685  10.879  11.895  0.00  0.00    +0.000 C 
BRANCH  21  22
ATOM     22  C   UNL     1      45.420  11.171  11.084  0.00  0.00    +0.000 C 
BRANCH  22  23
ATOM     23  C   UNL     1      44.196  10.504  11.714  0.00  0.00    +0.000 C 
BRANCH  23  24
ATOM     24  C   UNL     1      43.399   9.709  10.682  0.00  0.00    +0.000 C 
BRANCH  24  25
ATOM     25  C   UNL     1      41.964  10.207  10.582  0.00  0.00    +0.000 C 
BRANCH  25  26
ATOM     26  O   UNL     1      41.096   9.321  11.275  0.00  0.00    +0.000 OA
ATOM     27  H   UNL     1      40.280   9.240  10.752  0.00  0.00    +0.000 HD
ENDBRANCH  25  26
ENDBRANCH  24  25
ENDBRANCH  23  24
ENDBRANCH  22  23
ENDBRANCH  21  22
ENDBRANCH  19  21
ENDBRANCH  18  19
ENDBRANCH   6  18
TORSDOF 12
ENDMDL
MODEL 5
REMARK VINA RESULT:    -6.373      3.066      8.702
REMARK INTER + INTRA:         -11.426
REMARK INTER:                 -10.659
REMARK INTRA:                  -0.768
REMARK UNBOUND:                -0.769
REMARK  Name = 
REMARK  13 active torsions:
REMARK  status: ('A' for Active; 'I' for Inactive)
REMARK    1  A    between atoms: C_1  and  C_2
REMARK    2  A    between atoms: C_2  and  C_3
REMARK    3  A    between atoms: C_6  and  C_7
REMARK    4  A    between atoms: C_7  and  C_8
REMARK    5  A    between atoms: C_8  and  C_9
REMARK    6  A    between atoms: C_14  and  C_15
REMARK    7  A    between atoms: C_15  and  N_16
REMARK    8  A    between atoms: N_16  and  C_17
REMARK    9  A    between atoms: C_17  and  C_18
REMARK   10  A    between atoms: C_18  and  C_19
REMARK   11  A    between atoms: C_19  and  C_20
REMARK   12  A    between atoms: C_20  and  C_21
REMARK   13  A    between atoms: C_21  and  O_22
REMARK                            x       y       z     vdW  Elec       q    Type
REMARK                         _______ _______ _______ _____ _____    ______ ____
ROOT
ATOM      1  C   UNL     1      46.294   4.435  13.314  0.00  0.00    +0.000 A 
ATOM      2  C   UNL     1      46.348   5.836  13.348  0.00  0.00    +0.000 A 
ATOM      3  C   UNL     1      45.613   6.588  12.432  0.00  0.00    +0.000 A 
ATOM      4 CL   UNL     1      45.682   8.307  12.489  0.00  0.00    +0.000 Cl
ATOM      5  C   UNL     1      44.820   5.961  11.474  0.00  0.00    +0.000 A 
ATOM      6  C   UNL     1      44.749   4.561  11.422  0.00  0.00    +0.000 A 
ATOM      7  C   UNL     1      45.484   3.810  12.353  0.00  0.00    +0.000 A 
ENDROOT
BRANCH   1   8
ATOM      8  C   UNL     1      47.077   3.616  14.318  0.00  0.00    +0.000 C 
BRANCH   8   9
ATOM      9  C   UNL     1      47.005   4.199  15.736  0.00  0.00    +0.000 C 
BRANCH   9  13
ATOM     10  C   UNL     1      50.667   4.364  17.811  0.00  0.00    +0.000 A 
ATOM     11  C   UNL     1      50.094   3.146  17.464  0.00  0.00    +0.000 A 
ATOM     12  N   UNL     1      48.925   3.046  16.787  0.00  0.00    +0.000 NA
ATOM     13  C   UNL     1      48.325   4.217  16.464  0.00  0.00    +0.000 A 
ATOM     14  C   UNL     1      48.906   5.435  16.803  0.00  0.00    +0.000 A 
ATOM     15  N   UNL     1      50.075   5.537  17.478  0.00  0.00    +0.000 NA
BRANCH  10  17
ATOM     16  C   UNL     1      51.619   4.801  20.070  0.00  0.00    +0.000 C 
ATOM     17  C   UNL     1      51.925   4.426  18.628  0.00  0.00    +0.000 C 
ENDBRANCH  10  17
ENDBRANCH   9  13
ENDBRANCH   8   9
ENDBRANCH   1   8
BRANCH   6  18
ATOM     18  C   UNL     1      43.884   3.877  10.390  0.00  0.00    +0.000 C 
BRANCH  18  19
ATOM     19  N   UNL     1      44.232   2.462  10.273  0.00  0.00    +0.000 NA
ATOM     20  H   UNL     1      43.375   1.916  10.193  0.00  0.00    +0.000 HD
BRANCH  19  21
ATOM     21  C   UNL     1      45.086   2.219   9.114  0.00  0.00    +0.000 C 
BRANCH  21  22
ATOM     22  C   UNL     1      44.917   3.357   8.104  0.00  0.00    +0.000 C 
BRANCH  22  23
ATOM     23  C   UNL     1      46.264   3.771   7.510  0.00  0.00    +0.000 C 
BRANCH  23  24
ATOM     24  C   UNL     1      46.628   2.915   6.298  0.00  0.00    +0.000 C 
BRANCH  24  25
ATOM     25  C   UNL     1      47.812   2.005   6.595  0.00  0.00    +0.000 C 
BRANCH  25  26
ATOM     26  O   UNL     1      48.574   1.803   5.414  0.00  0.00    +0.000 OA
ATOM     27  H   UNL     1      48.148   1.089   4.908  0.00  0.00    +0.000 HD
ENDBRANCH  25  26
ENDBRANCH  24  25
ENDBRANCH  23  24
ENDBRANCH  22  23
ENDBRANCH  21  22
ENDBRANCH  19  21
ENDBRANCH  18  19
ENDBRANCH   6  18
TORSDOF 12
ENDMDL
MODEL 6
REMARK VINA RESULT:    -6.194      2.845      8.474
REMARK INTER + INTRA:         -11.127
REMARK INTER:                 -10.362
REMARK INTRA:                  -0.765
REMARK UNBOUND:                -0.769
REMARK  Name = 
REMARK  13 active torsions:
REMARK  status: ('A' for Active; 'I' for Inactive)
REMARK    1  A    between atoms: C_1  and  C_2
REMARK    2  A    between atoms: C_2  and  C_3
REMARK    3  A    between atoms: C_6  and  C_7
REMARK    4  A    between atoms: C_7  and  C_8
REMARK    5  A    between atoms: C_8  and  C_9
REMARK    6  A    between atoms: C_14  and  C_15
REMARK    7  A    between atoms: C_15  and  N_16
REMARK    8  A    between atoms: N_16  and  C_17
REMARK    9  A    between atoms: C_17  and  C_18
REMARK   10  A    between atoms: C_18  and  C_19
REMARK   11  A    between atoms: C_19  and  C_20
REMARK   12  A    between atoms: C_20  and  C_21
REMARK   13  A    between atoms: C_21  and  O_22
REMARK                            x       y       z     vdW  Elec       q    Type
REMARK                         _______ _______ _______ _____ _____    ______ ____
ROOT
ATOM      1  C   UNL     1      46.880   5.160  14.301  0.00  0.00    +0.000 A 
ATOM      2  C   UNL     1      47.713   6.096  13.671  0.00  0.00    +0.000 A 
ATOM      3  C   UNL     1      47.457   6.493  12.359  0.00  0.00    +0.000 A 
ATOM      4 CL   UNL     1      48.483   7.648  11.601  0.00  0.00    +0.000 Cl
ATOM      5  C   UNL     1      46.375   5.965  11.658  0.00  0.00    +0.000 A 
ATOM      6  C   UNL     1      45.527   5.029  12.267  0.00  0.00    +0.000 A 
ATOM      7  C   UNL     1      45.785   4.642  13.591  0.00  0.00    +0.000 A 
ENDROOT
BRANCH   1   8
ATOM      8  C   UNL     1      47.145   4.742  15.731  0.00  0.00    +0.000 C 
BRANCH   8   9
ATOM      9  C   UNL     1      47.567   3.271  15.845  0.00  0.00    +0.000 C 
BRANCH   9  13
ATOM     10  C   UNL     1      51.348   2.589  17.571  0.00  0.00    +0.000 A 
ATOM     11  C   UNL     1      50.778   3.856  17.572  0.00  0.00    +0.000 A 
ATOM     12  N   UNL     1      49.561   4.119  17.040  0.00  0.00    +0.000 NA
ATOM     13  C   UNL     1      48.916   3.064  16.487  0.00  0.00    +0.000 A 
ATOM     14  C   UNL     1      49.484   1.793  16.497  0.00  0.00    +0.000 A 
ATOM     15  N   UNL     1      50.699   1.529  17.032  0.00  0.00    +0.000 NA
BRANCH  10  17
ATOM     16  C   UNL     1      53.160   0.914  17.906  0.00  0.00    +0.000 C 
ATOM     17  C   UNL     1      52.733   2.360  18.105  0.00  0.00    +0.000 C 
ENDBRANCH  10  17
ENDBRANCH   9  13
ENDBRANCH   8   9
ENDBRANCH   1   8
BRANCH   6  18
ATOM     18  C   UNL     1      44.348   4.461  11.513  0.00  0.00    +0.000 C 
BRANCH  18  19
ATOM     19  N   UNL     1      44.285   5.004  10.157  0.00  0.00    +0.000 NA
ATOM     20  H   UNL     1      45.013   5.710  10.049  0.00  0.00    +0.000 HD
BRANCH  19  21
ATOM     21  C   UNL     1      44.457   3.955   9.156  0.00  0.00    +0.000 C 
BRANCH  21  22
ATOM     22  C   UNL     1      45.746   4.203   8.369  0.00  0.00    +0.000 C 
BRANCH  22  23
ATOM     23  C   UNL     1      45.859   3.247   7.180  0.00  0.00    +0.000 C 
BRANCH  23  24
ATOM     24  C   UNL     1      46.744   2.047   7.510  0.00  0.00    +0.000 C 
BRANCH  24  25
ATOM     25  C   UNL     1      47.657   1.690   6.344  0.00  0.00    +0.000 C 
BRANCH  25  26
ATOM     26  O   UNL     1      48.751   2.594   6.294  0.00  0.00    +0.000 OA
ATOM     27  H   UNL     1      48.902   2.821   5.360  0.00  0.00    +0.000 HD
ENDBRANCH  25  26
ENDBRANCH  24  25
ENDBRANCH  23  24
ENDBRANCH  22  23
ENDBRANCH  21  22
ENDBRANCH  19  21
ENDBRANCH  18  19
ENDBRANCH   6  18
TORSDOF 12
ENDMDL
MODEL 7
REMARK VINA RESULT:    -5.969      3.434      9.196
REMARK INTER + INTRA:         -10.751
REMARK INTER:                  -9.952
REMARK INTRA:                  -0.799
REMARK UNBOUND:                -0.769
REMARK  Name = 
REMARK  13 active torsions:
REMARK  status: ('A' for Active; 'I' for Inactive)
REMARK    1  A    between atoms: C_1  and  C_2
REMARK    2  A    between atoms: C_2  and  C_3
REMARK    3  A    between atoms: C_6  and  C_7
REMARK    4  A    between atoms: C_7  and  C_8
REMARK    5  A    between atoms: C_8  and  C_9
REMARK    6  A    between atoms: C_14  and  C_15
REMARK    7  A    between atoms: C_15  and  N_16
REMARK    8  A    between atoms: N_16  and  C_17
REMARK    9  A    between atoms: C_17  and  C_18
REMARK   10  A    between atoms: C_18  and  C_19
REMARK   11  A    between atoms: C_19  and  C_20
REMARK   12  A    between atoms: C_20  and  C_21
REMARK   13  A    between atoms: C_21  and  O_22
REMARK                            x       y       z     vdW  Elec       q    Type
REMARK                         _______ _______ _______ _____ _____    ______ ____
ROOT
ATOM      1  C   UNL     1      46.827   4.909  14.149  0.00  0.00    +0.000 A 
ATOM      2  C   UNL     1      47.615   5.953  13.644  0.00  0.00    +0.000 A 
ATOM      3  C   UNL     1      47.309   6.531  12.412  0.00  0.00    +0.000 A 
ATOM      4 CL   UNL     1      48.281   7.816  11.807  0.00  0.00    +0.000 Cl
ATOM      5  C   UNL     1      46.222   6.078  11.668  0.00  0.00    +0.000 A 
ATOM      6  C   UNL     1      45.419   5.037  12.153  0.00  0.00    +0.000 A 
ATOM      7  C   UNL     1      45.725   4.467  13.399  0.00  0.00    +0.000 A 
ENDROOT
BRANCH   1   8
ATOM      8  C   UNL     1      47.145   4.294  15.494  0.00  0.00    +0.000 C 
BRANCH   8   9
ATOM      9  C   UNL     1      48.425   4.867  16.116  0.00  0.00    +0.000 C 
BRANCH   9  13
ATOM     10  C   UNL     1      47.800   7.367  19.448  0.00  0.00    +0.000 A 
ATOM     11  C   UNL     1      47.206   6.113  19.371  0.00  0.00    +0.000 A 
ATOM     12  N   UNL     1      47.388   5.272  18.325  0.00  0.00    +0.000 NA
ATOM     13  C   UNL     1      48.190   5.726  17.333  0.00  0.00    +0.000 A 
ATOM     14  C   UNL     1      48.792   6.978  17.417  0.00  0.00    +0.000 A 
ATOM     15  N   UNL     1      48.612   7.819  18.462  0.00  0.00    +0.000 NA
BRANCH  10  17
ATOM     16  C   UNL     1      46.916   9.605  20.089  0.00  0.00    +0.000 C 
ATOM     17  C   UNL     1      47.507   8.296  20.590  0.00  0.00    +0.000 C 
ENDBRANCH  10  17
ENDBRANCH   9  13
ENDBRANCH   8   9
ENDBRANCH   1   8
BRANCH   6  18
ATOM     18  C   UNL     1      44.233   4.549  11.354  0.00  0.00    +0.000 C 
BRANCH  18  19
ATOM     19  N   UNL     1      44.215   5.157  10.024  0.00  0.00    +0.000 NA
ATOM     20  H   UNL     1      44.976   5.833   9.959  0.00  0.00    +0.000 HD
BRANCH  19  21
ATOM     21  C   UNL     1      44.356   4.149   8.978  0.00  0.00    +0.000 C 
BRANCH  21  22
ATOM     22  C   UNL     1      45.758   4.231   8.369  0.00  0.00    +0.000 C 
BRANCH  22  23
ATOM     23  C   UNL     1      45.891   3.302   7.161  0.00  0.00    +0.000 C 
BRANCH  23  24
ATOM     24  C   UNL     1      46.736   2.073   7.492  0.00  0.00    +0.000 C 
BRANCH  24  25
ATOM     25  C   UNL     1      47.700   1.740   6.361  0.00  0.00    +0.000 C 
BRANCH  25  26
ATOM     26  O   UNL     1      48.796   2.643   6.378  0.00  0.00    +0.000 OA
ATOM     27  H   UNL     1      48.988   2.889   5.457  0.00  0.00    +0.000 HD
ENDBRANCH  25  26
ENDBRANCH  24  25
ENDBRANCH  23  24
ENDBRANCH  22  23
ENDBRANCH  21  22
ENDBRANCH  19  21
ENDBRANCH  18  19
ENDBRANCH   6  18
TORSDOF 12
ENDMDL
MODEL 8
REMARK VINA RESULT:    -5.815      3.614      4.398
REMARK INTER + INTRA:         -10.493
REMARK INTER:                  -9.439
REMARK INTRA:                  -1.054
REMARK UNBOUND:                -0.769
REMARK  Name = 
REMARK  13 active torsions:
REMARK  status: ('A' for Active; 'I' for Inactive)
REMARK    1  A    between atoms: C_1  and  C_2
REMARK    2  A    between atoms: C_2  and  C_3
REMARK    3  A    between atoms: C_6  and  C_7
REMARK    4  A    between atoms: C_7  and  C_8
REMARK    5  A    between atoms: C_8  and  C_9
REMARK    6  A    between atoms: C_14  and  C_15
REMARK    7  A    between atoms: C_15  and  N_16
REMARK    8  A    between atoms: N_16  and  C_17
REMARK    9  A    between atoms: C_17  and  C_18
REMARK   10  A    between atoms: C_18  and  C_19
REMARK   11  A    between atoms: C_19  and  C_20
REMARK   12  A    between atoms: C_20  and  C_21
REMARK   13  A    between atoms: C_21  and  O_22
REMARK                            x       y       z     vdW  Elec       q    Type
REMARK                         _______ _______ _______ _____ _____    ______ ____
ROOT
ATOM      1  C   UNL     1      45.050   5.390  11.837  0.00  0.00    +0.000 A 
ATOM      2  C   UNL     1      44.511   6.618  11.427  0.00  0.00    +0.000 A 
ATOM      3  C   UNL     1      45.106   7.814  11.828  0.00  0.00    +0.000 A 
ATOM      4 CL   UNL     1      44.439   9.315  11.311  0.00  0.00    +0.000 Cl
ATOM      5  C   UNL     1      46.237   7.805  12.642  0.00  0.00    +0.000 A 
ATOM      6  C   UNL     1      46.794   6.590  13.063  0.00  0.00    +0.000 A 
ATOM      7  C   UNL     1      46.197   5.390  12.647  0.00  0.00    +0.000 A 
ENDROOT
BRANCH   1   8
ATOM      8  C   UNL     1      44.418   4.091  11.388  0.00  0.00    +0.000 C 
BRANCH   8   9
ATOM      9  C   UNL     1      44.007   4.116   9.910  0.00  0.00    +0.000 C 
BRANCH   9  13
ATOM     10  C   UNL     1      46.815   2.361   7.307  0.00  0.00    +0.000 A 
ATOM     11  C   UNL     1      46.552   3.725   7.264  0.00  0.00    +0.000 A 
ATOM     12  N   UNL     1      45.667   4.333   8.089  0.00  0.00    +0.000 NA
ATOM     13  C   UNL     1      45.031   3.528   8.973  0.00  0.00    +0.000 A 
ATOM     14  C   UNL     1      45.303   2.164   9.022  0.00  0.00    +0.000 A 
ATOM     15  N   UNL     1      46.190   1.555   8.199  0.00  0.00    +0.000 NA
BRANCH  10  17
ATOM     16  C   UNL     1      47.260   1.926   4.896  0.00  0.00    +0.000 C 
ATOM     17  C   UNL     1      47.748   1.719   6.322  0.00  0.00    +0.000 C 
ENDBRANCH  10  17
ENDBRANCH   9  13
ENDBRANCH   8   9
ENDBRANCH   1   8
BRANCH   6  18
ATOM     18  C   UNL     1      48.026   6.575  13.937  0.00  0.00    +0.000 C 
BRANCH  18  19
ATOM     19  N   UNL     1      47.917   7.565  15.008  0.00  0.00    +0.000 NA
ATOM     20  H   UNL     1      47.840   7.080  15.901  0.00  0.00    +0.000 HD
BRANCH  19  21
ATOM     21  C   UNL     1      49.073   8.457  15.026  0.00  0.00    +0.000 C 
BRANCH  21  22
ATOM     22  C   UNL     1      50.347   7.652  14.757  0.00  0.00    +0.000 C 
BRANCH  22  23
ATOM     23  C   UNL     1      51.264   8.382  13.774  0.00  0.00    +0.000 C 
BRANCH  23  24
ATOM     24  C   UNL     1      50.630   9.680  13.277  0.00  0.00    +0.000 C 
BRANCH  24  25
ATOM     25  C   UNL     1      50.466   9.675  11.763  0.00  0.00    +0.000 C 
BRANCH  25  26
ATOM     26  O   UNL     1      49.218   9.094  11.414  0.00  0.00    +0.000 OA
ATOM     27  H   UNL     1      49.139   8.254  11.898  0.00  0.00    +0.000 HD
ENDBRANCH  25  26
ENDBRANCH  24  25
ENDBRANCH  23  24
ENDBRANCH  22  23
ENDBRANCH  21  22
ENDBRANCH  19  21
ENDBRANCH  18  19
ENDBRANCH   6  18
TORSDOF 12
ENDMDL
MODEL 9
REMARK VINA RESULT:    -5.680      4.164      8.646
REMARK INTER + INTRA:         -10.268
REMARK INTER:                  -9.440
REMARK INTRA:                  -0.828
REMARK UNBOUND:                -0.769
REMARK  Name = 
REMARK  13 active torsions:
REMARK  status: ('A' for Active; 'I' for Inactive)
REMARK    1  A    between atoms: C_1  and  C_2
REMARK    2  A    between atoms: C_2  and  C_3
REMARK    3  A    between atoms: C_6  and  C_7
REMARK    4  A    between atoms: C_7  and  C_8
REMARK    5  A    between atoms: C_8  and  C_9
REMARK    6  A    between atoms: C_14  and  C_15
REMARK    7  A    between atoms: C_15  and  N_16
REMARK    8  A    between atoms: N_16  and  C_17
REMARK    9  A    between atoms: C_17  and  C_18
REMARK   10  A    between atoms: C_18  and  C_19
REMARK   11  A    between atoms: C_19  and  C_20
REMARK   12  A    between atoms: C_20  and  C_21
REMARK   13  A    between atoms: C_21  and  O_22
REMARK                            x       y       z     vdW  Elec       q    Type
REMARK                         _______ _______ _______ _____ _____    ______ ____
ROOT
ATOM      1  C   UNL     1      46.789   6.690  12.397  0.00  0.00    +0.000 A 
ATOM      2  C   UNL     1      47.201   6.025  13.561  0.00  0.00    +0.000 A 
ATOM      3  C   UNL     1      46.700   4.758  13.860  0.00  0.00    +0.000 A 
ATOM      4 CL   UNL     1      47.220   3.950  15.288  0.00  0.00    +0.000 Cl
ATOM      5  C   UNL     1      45.783   4.141  13.012  0.00  0.00    +0.000 A 
ATOM      6  C   UNL     1      45.358   4.786  11.842  0.00  0.00    +0.000 A 
ATOM      7  C   UNL     1      45.874   6.055  11.541  0.00  0.00    +0.000 A 
ENDROOT
BRANCH   1   8
ATOM      8  C   UNL     1      47.346   8.056  12.060  0.00  0.00    +0.000 C 
BRANCH   8   9
ATOM      9  C   UNL     1      48.855   8.026  11.787  0.00  0.00    +0.000 C 
BRANCH   9  13
ATOM     10  C   UNL     1      51.094   9.780  14.893  0.00  0.00    +0.000 A 
ATOM     11  C   UNL     1      51.684   8.903  13.991  0.00  0.00    +0.000 A 
ATOM     12  N   UNL     1      51.006   8.326  12.971  0.00  0.00    +0.000 NA
ATOM     13  C   UNL     1      49.693   8.646  12.875  0.00  0.00    +0.000 A 
ATOM     14  C   UNL     1      49.107   9.533  13.773  0.00  0.00    +0.000 A 
ATOM     15  N   UNL     1      49.784  10.113  14.792  0.00  0.00    +0.000 NA
BRANCH  10  17
ATOM     16  C   UNL     1      51.019  10.346  17.317  0.00  0.00    +0.000 C 
ATOM     17  C   UNL     1      51.866  10.337  16.054  0.00  0.00    +0.000 C 
ENDBRANCH  10  17
ENDBRANCH   9  13
ENDBRANCH   8   9
ENDBRANCH   1   8
BRANCH   6  18
ATOM     18  C   UNL     1      44.371   4.115  10.915  0.00  0.00    +0.000 C 
BRANCH  18  19
ATOM     19  N   UNL     1      44.724   2.712  10.703  0.00  0.00    +0.000 NA
ATOM     20  H   UNL     1      44.197   2.136  11.359  0.00  0.00    +0.000 HD
BRANCH  19  21
ATOM     21  C   UNL     1      44.440   2.294   9.334  0.00  0.00    +0.000 C 
BRANCH  21  22
ATOM     22  C   UNL     1      45.752   2.135   8.562  0.00  0.00    +0.000 C 
BRANCH  22  23
ATOM     23  C   UNL     1      46.007   3.339   7.653  0.00  0.00    +0.000 C 
BRANCH  23  24
ATOM     24  C   UNL     1      46.673   2.920   6.344  0.00  0.00    +0.000 C 
BRANCH  24  25
ATOM     25  C   UNL     1      48.078   2.384   6.580  0.00  0.00    +0.000 C 
BRANCH  25  26
ATOM     26  O   UNL     1      48.507   1.636   5.451  0.00  0.00    +0.000 OA
ATOM     27  H   UNL     1      47.966   1.916   4.692  0.00  0.00    +0.000 HD
ENDBRANCH  25  26
ENDBRANCH  24  25
ENDBRANCH  23  24
ENDBRANCH  22  23
ENDBRANCH  21  22
ENDBRANCH  19  21
ENDBRANCH  18  19
ENDBRANCH   6  18
TORSDOF 12
ENDMDL
