MODEL 1
REMARK VINA RESULT:    -7.839      0.000      0.000
REMARK INTER + INTRA:         -13.967
REMARK INTER:                 -13.109
REMARK INTRA:                  -0.858
REMARK UNBOUND:                -0.858
REMARK  Name = 
REMARK  13 active torsions:
REMARK  status: ('A' for Active; 'I' for Inactive)
REMARK    1  A    between atoms: C_1  and  C_2
REMARK    2  A    between atoms: C_2  and  C_3
REMARK    3  A    between atoms: C_3  and  C_4
REMARK    4  A    between atoms: C_4  and  N_5
REMARK    5  A    between atoms: C_4  and  C_24
REMARK    6  A    between atoms: N_5  and  C_6
REMARK    7  A    between atoms: C_6  and  C_7
REMARK    8  A    between atoms: C_10  and  C_11
REMARK    9  A    between atoms: C_11  and  N_12
REMARK   10  A    between atoms: N_12  and  CA_13
REMARK   11  A    between atoms: CA_13  and  C_14
REMARK   12  A    between atoms: CA_13  and  C_16
REMARK   13  A    between atoms: C_14  and  O_15
REMARK                            x       y       z     vdW  Elec       q    Type
REMARK                         _______ _______ _______ _____ _____    ______ ____
ROOT
ATOM      1  C   UNL     1      46.973   5.353  13.868  0.00  0.00    +0.000 A 
ATOM      2  C   UNL     1      47.014   3.956  13.806  0.00  0.00    +0.000 A 
ATOM      3  C   UNL     1      46.143   3.257  12.965  0.00  0.00    +0.000 A 
ATOM      4  C   UNL     1      45.201   3.937  12.179  0.00  0.00    +0.000 A 
ATOM      5  C   UNL     1      45.157   5.333  12.241  0.00  0.00    +0.000 A 
ATOM      6  C   UNL     1      46.032   6.031  13.076  0.00  0.00    +0.000 A 
ENDROOT
BRANCH   1   7
ATOM      7  C   UNL     1      47.802   6.138  14.861  0.00  0.00    +0.000 C 
BRANCH   7   8
ATOM      8  N   UNL     1      48.782   5.350  15.612  0.00  0.00    +0.000 NA
ATOM      9  H   UNL     1      48.571   4.361  15.516  0.00  0.00    +0.000 HD
BRANCH   8  10
ATOM     10  C   UNL     1      48.851   5.682  17.056  0.00  0.00    +0.000 C 
BRANCH  10  11
ATOM     11  C   UNL     1      50.125   5.058  17.636  0.00  0.00    +0.000 A 
ATOM     12  C   UNL     1      51.133   5.786  18.261  0.00  0.00    +0.000 A 
ATOM     13  S   UNL     1      52.527   4.877  18.612  0.00  0.00    +0.000 S 
ATOM     14  C   UNL     1      51.824   3.462  17.995  0.00  0.00    +0.000 A 
ATOM     15  N   UNL     1      52.530   2.302  17.946  0.00  0.00    +0.000 NA
ATOM     16  C   UNL     1      51.879   1.307  17.445  0.00  0.00    +0.000 A 
ATOM     17  N   UNL     1      50.579   1.361  17.012  0.00  0.00    +0.000 N 
ATOM     18  C   UNL     1      49.792   2.495  17.108  0.00  0.00    +0.000 A 
ATOM     19  O   UNL     1      48.590   2.460  16.887  0.00  0.00    +0.000 OA
ATOM     20  C   UNL     1      50.516   3.667  17.572  0.00  0.00    +0.000 A 
ATOM     21  H   UNL     1      50.105   0.524  16.702  0.00  0.00    +0.000 HD
ENDBRANCH  10  11
BRANCH  10  22
ATOM     22  C   UNL     1      48.753   7.202  17.367  0.00  0.00    +0.000 C 
BRANCH  22  24
ATOM     23  C   UNL     1      47.242   6.507  19.313  0.00  0.00    +0.000 C 
ATOM     24  C   UNL     1      47.966   7.637  18.606  0.00  0.00    +0.000 C 
ENDBRANCH  22  24
ENDBRANCH  10  22
ENDBRANCH   8  10
ENDBRANCH   7   8
ENDBRANCH   1   7
BRANCH   4  25
ATOM     25  C   UNL     1      44.293   3.185  11.234  0.00  0.00    +0.000 C 
BRANCH  25  26
ATOM     26  N   UNL     1      45.047   2.470  10.200  0.00  0.00    +0.000 NA
ATOM     27  H   UNL     1      44.826   1.475  10.284  0.00  0.00    +0.000 HD
BRANCH  26  28
ATOM     28  CA  UNL     1      44.668   2.895   8.833  0.00  0.00    +0.000 C 
BRANCH  28  29
ATOM     29  C   UNL     1      45.762   2.492   7.847  0.00  0.00    +0.000 A 
ATOM     30  C   UNL     1      46.431   1.266   7.988  0.00  0.00    +0.000 A 
ATOM     31  C   UNL     1      47.428   0.888   7.083  0.00  0.00    +0.000 A 
ATOM     32  C   UNL     1      47.771   1.727   6.026  0.00  0.00    +0.000 A 
ATOM     33  C   UNL     1      47.124   2.948   5.874  0.00  0.00    +0.000 A 
ATOM     34  C   UNL     1      46.131   3.329   6.779  0.00  0.00    +0.000 A 
ENDBRANCH  28  29
BRANCH  28  35
ATOM     35  C   UNL     1      44.370   4.420   8.750  0.00  0.00    +0.000 C 
BRANCH  35  36
ATOM     36  O   UNL     1      45.561   5.208   8.796  0.00  0.00    +0.000 OA
ATOM     37  H   UNL     1      46.286   4.587   8.588  0.00  0.00    +0.000 HD
ENDBRANCH  35  36
ENDBRANCH  28  35
ENDBRANCH  26  28
ENDBRANCH  25  26
ENDBRANCH   4  25
TORSDOF 12
ENDMDL
MODEL 2
REMARK VINA RESULT:    -7.681      2.308      3.301
REMARK INTER + INTRA:         -13.703
REMARK INTER:                 -12.149
REMARK INTRA:                  -1.554
REMARK UNBOUND:                -0.858
REMARK  Name = 
REMARK  13 active torsions:
REMARK  status: ('A' for Active; 'I' for Inactive)
REMARK    1  A    between atoms: C_1  and  C_2
REMARK    2  A    between atoms: C_2  and  C_3
REMARK    3  A    between atoms: C_3  and  C_4
REMARK    4  A    between atoms: C_4  and  N_5
REMARK    5  A    between atoms: C_4  and  C_24
REMARK    6  A    between atoms: N_5  and  C_6
REMARK    7  A    between atoms: C_6  and  C_7
REMARK    8  A    between atoms: C_10  and  C_11
REMARK    9  A    between atoms: C_11  and  N_12
REMARK   10  A    between atoms: N_12  and  CA_13
REMARK   11  A    between atoms: CA_13  and  C_14
REMARK   12  A    between atoms: CA_13  and  C_16
REMARK   13  A    between atoms: C_14  and  O_15
REMARK                            x       y       z     vdW  Elec       q    Type
REMARK                         _______ _______ _______ _____ _____    ______ ____
ROOT
ATOM      1  C   UNL     1      47.374   6.362  13.034  0.00  0.00    +0.000 A 
ATOM      2  C   UNL     1      46.375   5.648  13.706  0.00  0.00    +0.000 A 
ATOM      3  C   UNL     1      45.095   5.529  13.154  0.00  0.00    +0.000 A 
ATOM      4  C   UNL     1      44.781   6.133  11.928  0.00  0.00    +0.000 A 
ATOM      5  C   UNL     1      45.777   6.849  11.256  0.00  0.00    +0.000 A 
ATOM      6  C   UNL     1      47.057   6.961  11.804  0.00  0.00    +0.000 A 
ENDROOT
BRANCH   1   7
ATOM      7  C   UNL     1      48.727   6.629  13.656  0.00  0.00    +0.000 C 
BRANCH   7   8
ATOM      8  N   UNL     1      48.872   6.182  15.044  0.00  0.00    +0.000 NA
ATOM      9  H   UNL     1      47.954   5.998  15.440  0.00  0.00    +0.000 HD
BRANCH   8  10
ATOM     10  C   UNL     1      49.584   7.142  15.920  0.00  0.00    +0.000 C 
BRANCH  10  11
ATOM     11  C   UNL     1      48.921   7.121  17.302  0.00  0.00    +0.000 A 
ATOM     12  C   UNL     1      48.355   8.237  17.911  0.00  0.00    +0.000 A 
ATOM     13  S   UNL     1      47.889   7.982  19.526  0.00  0.00    +0.000 S 
ATOM     14  C   UNL     1      48.371   6.357  19.464  0.00  0.00    +0.000 A 
ATOM     15  N   UNL     1      48.289   5.568  20.567  0.00  0.00    +0.000 NA
ATOM     16  C   UNL     1      48.698   4.358  20.384  0.00  0.00    +0.000 A 
ATOM     17  N   UNL     1      49.157   3.860  19.191  0.00  0.00    +0.000 N 
ATOM     18  C   UNL     1      49.191   4.597  18.021  0.00  0.00    +0.000 A 
ATOM     19  O   UNL     1      49.428   4.074  16.942  0.00  0.00    +0.000 OA
ATOM     20  C   UNL     1      48.836   5.995  18.205  0.00  0.00    +0.000 A 
ATOM     21  H   UNL     1      49.388   2.880  19.098  0.00  0.00    +0.000 HD
ENDBRANCH  10  11
BRANCH  10  22
ATOM     22  C   UNL     1      51.119   6.910  16.007  0.00  0.00    +0.000 C 
BRANCH  22  24
ATOM     23  C   UNL     1      52.506   7.832  17.952  0.00  0.00    +0.000 C 
ATOM     24  C   UNL     1      51.993   8.048  16.541  0.00  0.00    +0.000 C 
ENDBRANCH  22  24
ENDBRANCH  10  22
ENDBRANCH   8  10
ENDBRANCH   7   8
ENDBRANCH   1   7
BRANCH   4  25
ATOM     25  C   UNL     1      43.413   5.964  11.309  0.00  0.00    +0.000 C 
BRANCH  25  26
ATOM     26  N   UNL     1      43.408   4.937  10.263  0.00  0.00    +0.000 NA
ATOM     27  H   UNL     1      43.802   5.352   9.415  0.00  0.00    +0.000 HD
BRANCH  26  28
ATOM     28  CA  UNL     1      44.249   3.769  10.618  0.00  0.00    +0.000 C 
BRANCH  28  29
ATOM     29  C   UNL     1      45.076   3.344   9.407  0.00  0.00    +0.000 A 
ATOM     30  C   UNL     1      45.606   4.307   8.533  0.00  0.00    +0.000 A 
ATOM     31  C   UNL     1      46.372   3.923   7.428  0.00  0.00    +0.000 A 
ATOM     32  C   UNL     1      46.618   2.575   7.178  0.00  0.00    +0.000 A 
ATOM     33  C   UNL     1      46.095   1.608   8.029  0.00  0.00    +0.000 A 
ATOM     34  C   UNL     1      45.328   1.989   9.131  0.00  0.00    +0.000 A 
ENDBRANCH  28  29
BRANCH  28  35
ATOM     35  C   UNL     1      43.408   2.583  11.171  0.00  0.00    +0.000 C 
BRANCH  35  36
ATOM     36  O   UNL     1      43.715   2.290  12.536  0.00  0.00    +0.000 OA
ATOM     37  H   UNL     1      43.893   1.330  12.557  0.00  0.00    +0.000 HD
ENDBRANCH  35  36
ENDBRANCH  28  35
ENDBRANCH  26  28
ENDBRANCH  25  26
ENDBRANCH   4  25
TORSDOF 12
ENDMDL
MODEL 3
REMARK VINA RESULT:    -7.616      1.824      2.422
REMARK INTER + INTRA:         -13.595
REMARK INTER:                 -11.859
REMARK INTRA:                  -1.736
REMARK UNBOUND:                -0.858
REMARK  Name = 
REMARK  13 active torsions:
REMARK  status: ('A' for Active; 'I' for Inactive)
REMARK    1  A    between atoms: C_1  and  C_2
REMARK    2  A    between atoms: C_2  and  C_3
REMARK    3  A    between atoms: C_3  and  C_4
REMARK    4  A    between atoms: C_4  and  N_5
REMARK    5  A    between atoms: C_4  and  C_24
REMARK    6  A    between atoms: N_5  and  C_6
REMARK    7  A    between atoms: C_6  and  C_7
REMARK    8  A    between atoms: C_10  and  C_11
REMARK    9  A    between atoms: C_11  and  N_12
REMARK   10  A    between atoms: N_12  and  CA_13
REMARK   11  A    between atoms: CA_13  and  C_14
REMARK   12  A    between atoms: CA_13  and  C_16
REMARK   13  A    between atoms: C_14  and  O_15
REMARK                            x       y       z     vdW  Elec       q    Type
REMARK                         _______ _______ _______ _____ _____    ______ ____
ROOT
ATOM      1  C   UNL     1      47.620   6.482  13.068  0.00  0.00    +0.000 A 
ATOM      2  C   UNL     1      46.692   5.656  13.710  0.00  0.00    +0.000 A 
ATOM      3  C   UNL     1      45.399   5.509  13.198  0.00  0.00    +0.000 A 
ATOM      4  C   UNL     1      45.000   6.196  12.042  0.00  0.00    +0.000 A 
ATOM      5  C   UNL     1      45.925   7.024  11.399  0.00  0.00    +0.000 A 
ATOM      6  C   UNL     1      47.219   7.165  11.907  0.00  0.00    +0.000 A 
ENDROOT
BRANCH   1   7
ATOM      7  C   UNL     1      48.981   6.775  13.660  0.00  0.00    +0.000 C 
BRANCH   7   8
ATOM      8  N   UNL     1      49.030   7.926  14.565  0.00  0.00    +0.000 NA
ATOM      9  H   UNL     1      49.952   8.353  14.523  0.00  0.00    +0.000 HD
BRANCH   8  10
ATOM     10  C   UNL     1      48.720   7.602  15.978  0.00  0.00    +0.000 C 
BRANCH  10  11
ATOM     11  C   UNL     1      49.857   6.740  16.539  0.00  0.00    +0.000 A 
ATOM     12  C   UNL     1      51.185   7.150  16.601  0.00  0.00    +0.000 A 
ATOM     13  S   UNL     1      52.268   5.921  17.061  0.00  0.00    +0.000 S 
ATOM     14  C   UNL     1      51.003   4.806  17.250  0.00  0.00    +0.000 A 
ATOM     15  N   UNL     1      51.262   3.515  17.584  0.00  0.00    +0.000 NA
ATOM     16  C   UNL     1      50.211   2.773  17.685  0.00  0.00    +0.000 A 
ATOM     17  N   UNL     1      48.924   3.212  17.507  0.00  0.00    +0.000 N 
ATOM     18  C   UNL     1      48.600   4.529  17.238  0.00  0.00    +0.000 A 
ATOM     19  O   UNL     1      47.442   4.923  17.268  0.00  0.00    +0.000 OA
ATOM     20  C   UNL     1      49.759   5.379  17.015  0.00  0.00    +0.000 A 
ATOM     21  H   UNL     1      48.142   2.594  17.678  0.00  0.00    +0.000 HD
ENDBRANCH  10  11
BRANCH  10  22
ATOM     22  C   UNL     1      48.437   8.844  16.869  0.00  0.00    +0.000 C 
BRANCH  22  24
ATOM     23  C   UNL     1      47.328   8.109  19.057  0.00  0.00    +0.000 C 
ATOM     24  C   UNL     1      48.560   8.687  18.387  0.00  0.00    +0.000 C 
ENDBRANCH  22  24
ENDBRANCH  10  22
ENDBRANCH   8  10
ENDBRANCH   7   8
ENDBRANCH   1   7
BRANCH   4  25
ATOM     25  C   UNL     1      43.619   5.999  11.462  0.00  0.00    +0.000 C 
BRANCH  25  26
ATOM     26  N   UNL     1      43.626   5.066  10.331  0.00  0.00    +0.000 NA
ATOM     27  H   UNL     1      44.097   5.527   9.549  0.00  0.00    +0.000 HD
BRANCH  26  28
ATOM     28  CA  UNL     1      44.378   3.825  10.633  0.00  0.00    +0.000 C 
BRANCH  28  29
ATOM     29  C   UNL     1      45.148   3.376   9.393  0.00  0.00    +0.000 A 
ATOM     30  C   UNL     1      45.590   4.318   8.450  0.00  0.00    +0.000 A 
ATOM     31  C   UNL     1      46.302   3.914   7.316  0.00  0.00    +0.000 A 
ATOM     32  C   UNL     1      46.584   2.565   7.109  0.00  0.00    +0.000 A 
ATOM     33  C   UNL     1      46.150   1.618   8.030  0.00  0.00    +0.000 A 
ATOM     34  C   UNL     1      45.435   2.020   9.160  0.00  0.00    +0.000 A 
ENDBRANCH  28  29
BRANCH  28  35
ATOM     35  C   UNL     1      43.456   2.691  11.164  0.00  0.00    +0.000 C 
BRANCH  35  36
ATOM     36  O   UNL     1      43.743   2.351  12.523  0.00  0.00    +0.000 OA
ATOM     37  H   UNL     1      43.453   1.422  12.620  0.00  0.00    +0.000 HD
ENDBRANCH  35  36
ENDBRANCH  28  35
ENDBRANCH  26  28
ENDBRANCH  25  26
ENDBRANCH   4  25
TORSDOF 12
ENDMDL
MODEL 4
REMARK VINA RESULT:    -7.521      2.000      2.673
REMARK INTER + INTRA:         -13.436
REMARK INTER:                 -11.973
REMARK INTRA:                  -1.463
REMARK UNBOUND:                -0.858
REMARK  Name = 
REMARK  13 active torsions:
REMARK  status: ('A' for Active; 'I' for Inactive)
REMARK    1  A    between atoms: C_1  and  C_2
REMARK    2  A    between atoms: C_2  and  C_3
REMARK    3  A    between atoms: C_3  and  C_4
REMARK    4  A    between atoms: C_4  and  N_5
REMARK    5  A    between atoms: C_4  and  C_24
REMARK    6  A    between atoms: N_5  and  C_6
REMARK    7  A    between atoms: C_6  and  C_7
REMARK    8  A    between atoms: C_10  and  C_11
REMARK    9  A    between atoms: C_11  and  N_12
REMARK   10  A    between atoms: N_12  and  CA_13
REMARK   11  A    between atoms: CA_13  and  C_14
REMARK   12  A    between atoms: CA_13  and  C_16
REMARK   13  A    between atoms: C_14  and  O_15
REMARK                            x       y       z     vdW  Elec       q    Type
REMARK                         _______ _______ _______ _____ _____    ______ ____
ROOT
ATOM      1  C   UNL     1      47.261   6.348  13.284  0.00  0.00    +0.000 A 
ATOM      2  C   UNL     1      46.241   5.543  13.802  0.00  0.00    +0.000 A 
ATOM      3  C   UNL     1      45.008   5.450  13.148  0.00  0.00    +0.000 A 
ATOM      4  C   UNL     1      44.762   6.172  11.971  0.00  0.00    +0.000 A 
ATOM      5  C   UNL     1      45.779   6.980  11.452  0.00  0.00    +0.000 A 
ATOM      6  C   UNL     1      47.013   7.067  12.102  0.00  0.00    +0.000 A 
ENDROOT
BRANCH   1   7
ATOM      7  C   UNL     1      48.557   6.582  14.028  0.00  0.00    +0.000 C 
BRANCH   7   8
ATOM      8  N   UNL     1      48.407   6.914  15.447  0.00  0.00    +0.000 NA
ATOM      9  H   UNL     1      48.940   7.754  15.659  0.00  0.00    +0.000 HD
BRANCH   8  10
ATOM     10  C   UNL     1      48.832   5.836  16.372  0.00  0.00    +0.000 C 
BRANCH  10  11
ATOM     11  C   UNL     1      49.956   6.377  17.263  0.00  0.00    +0.000 A 
ATOM     12  C   UNL     1      49.993   7.674  17.767  0.00  0.00    +0.000 A 
ATOM     13  S   UNL     1      51.454   8.074  18.539  0.00  0.00    +0.000 S 
ATOM     14  C   UNL     1      52.077   6.518  18.283  0.00  0.00    +0.000 A 
ATOM     15  N   UNL     1      53.344   6.207  18.663  0.00  0.00    +0.000 NA
ATOM     16  C   UNL     1      53.693   4.993  18.400  0.00  0.00    +0.000 A 
ATOM     17  N   UNL     1      52.883   4.056  17.813  0.00  0.00    +0.000 N 
ATOM     18  C   UNL     1      51.563   4.296  17.473  0.00  0.00    +0.000 A 
ATOM     19  O   UNL     1      50.817   3.393  17.125  0.00  0.00    +0.000 OA
ATOM     20  C   UNL     1      51.159   5.681  17.659  0.00  0.00    +0.000 A 
ATOM     21  H   UNL     1      53.195   3.100  17.706  0.00  0.00    +0.000 HD
ENDBRANCH  10  11
BRANCH  10  22
ATOM     22  C   UNL     1      47.674   5.218  17.206  0.00  0.00    +0.000 C 
BRANCH  22  24
ATOM     23  C   UNL     1      47.584   2.718  17.753  0.00  0.00    +0.000 C 
ATOM     24  C   UNL     1      47.162   3.830  16.811  0.00  0.00    +0.000 C 
ENDBRANCH  22  24
ENDBRANCH  10  22
ENDBRANCH   8  10
ENDBRANCH   7   8
ENDBRANCH   1   7
BRANCH   4  25
ATOM     25  C   UNL     1      43.448   6.035  11.238  0.00  0.00    +0.000 C 
BRANCH  25  26
ATOM     26  N   UNL     1      43.520   5.039  10.165  0.00  0.00    +0.000 NA
ATOM     27  H   UNL     1      43.987   5.474   9.366  0.00  0.00    +0.000 HD
BRANCH  26  28
ATOM     28  CA  UNL     1      44.317   3.852  10.553  0.00  0.00    +0.000 C 
BRANCH  28  29
ATOM     29  C   UNL     1      45.151   3.381   9.363  0.00  0.00    +0.000 A 
ATOM     30  C   UNL     1      45.380   2.012   9.153  0.00  0.00    +0.000 A 
ATOM     31  C   UNL     1      46.136   1.575   8.060  0.00  0.00    +0.000 A 
ATOM     32  C   UNL     1      46.672   2.496   7.164  0.00  0.00    +0.000 A 
ATOM     33  C   UNL     1      46.460   3.856   7.360  0.00  0.00    +0.000 A 
ATOM     34  C   UNL     1      45.710   4.295   8.453  0.00  0.00    +0.000 A 
ENDBRANCH  28  29
BRANCH  28  35
ATOM     35  C   UNL     1      43.430   2.702  11.109  0.00  0.00    +0.000 C 
BRANCH  35  36
ATOM     36  O   UNL     1      43.756   2.371  12.461  0.00  0.00    +0.000 OA
ATOM     37  H   UNL     1      43.823   3.229  12.925  0.00  0.00    +0.000 HD
ENDBRANCH  35  36
ENDBRANCH  28  35
ENDBRANCH  26  28
ENDBRANCH  25  26
ENDBRANCH   4  25
TORSDOF 12
ENDMDL
MODEL 5
REMARK VINA RESULT:    -7.457      1.879      2.805
REMARK INTER + INTRA:         -13.328
REMARK INTER:                 -11.978
REMARK INTRA:                  -1.350
REMARK UNBOUND:                -0.858
REMARK  Name = 
REMARK  13 active torsions:
REMARK  status: ('A' for Active; 'I' for Inactive)
REMARK    1  A    between atoms: C_1  and  C_2
REMARK    2  A    between atoms: C_2  and  C_3
REMARK    3  A    between atoms: C_3  and  C_4
REMARK    4  A    between atoms: C_4  and  N_5
REMARK    5  A    between atoms: C_4  and  C_24
REMARK    6  A    between atoms: N_5  and  C_6
REMARK    7  A    between atoms: C_6  and  C_7
REMARK    8  A    between atoms: C_10  and  C_11
REMARK    9  A    between atoms: C_11  and  N_12
REMARK   10  A    between atoms: N_12  and  CA_13
REMARK   11  A    between atoms: CA_13  and  C_14
REMARK   12  A    between atoms: CA_13  and  C_16
REMARK   13  A    between atoms: C_14  and  O_15
REMARK                            x       y       z     vdW  Elec       q    Type
REMARK                         _______ _______ _______ _____ _____    ______ ____
ROOT
ATOM      1  C   UNL     1      48.548   7.577  14.465  0.00  0.00    +0.000 A 
ATOM      2  C   UNL     1      48.099   6.414  13.828  0.00  0.00    +0.000 A 
ATOM      3  C   UNL     1      46.937   6.435  13.051  0.00  0.00    +0.000 A 
ATOM      4  C   UNL     1      46.189   7.612  12.904  0.00  0.00    +0.000 A 
ATOM      5  C   UNL     1      46.635   8.775  13.541  0.00  0.00    +0.000 A 
ATOM      6  C   UNL     1      47.800   8.756  14.312  0.00  0.00    +0.000 A 
ENDROOT
BRANCH   1   7
ATOM      7  C   UNL     1      49.720   7.568  15.421  0.00  0.00    +0.000 C 
BRANCH   7   8
ATOM      8  N   UNL     1      50.240   6.239  15.755  0.00  0.00    +0.000 NA
ATOM      9  H   UNL     1      50.021   5.589  15.004  0.00  0.00    +0.000 HD
BRANCH   8  10
ATOM     10  C   UNL     1      49.721   5.686  17.028  0.00  0.00    +0.000 C 
BRANCH  10  11
ATOM     11  C   UNL     1      50.856   4.929  17.726  0.00  0.00    +0.000 A 
ATOM     12  C   UNL     1      51.846   5.542  18.488  0.00  0.00    +0.000 A 
ATOM     13  S   UNL     1      53.101   4.496  18.961  0.00  0.00    +0.000 S 
ATOM     14  C   UNL     1      52.348   3.170  18.218  0.00  0.00    +0.000 A 
ATOM     15  N   UNL     1      52.947   1.951  18.207  0.00  0.00    +0.000 NA
ATOM     16  C   UNL     1      52.270   1.035  17.600  0.00  0.00    +0.000 A 
ATOM     17  N   UNL     1      51.039   1.223  17.025  0.00  0.00    +0.000 N 
ATOM     18  C   UNL     1      50.353   2.423  17.071  0.00  0.00    +0.000 A 
ATOM     19  O   UNL     1      49.187   2.509  16.714  0.00  0.00    +0.000 OA
ATOM     20  C   UNL     1      51.123   3.510  17.657  0.00  0.00    +0.000 A 
ATOM     21  H   UNL     1      50.530   0.443  16.633  0.00  0.00    +0.000 HD
ENDBRANCH  10  11
BRANCH  10  22
ATOM     22  C   UNL     1      49.063   6.741  17.962  0.00  0.00    +0.000 C 
BRANCH  22  24
ATOM     23  C   UNL     1      47.151   5.054  18.193  0.00  0.00    +0.000 C 
ATOM     24  C   UNL     1      47.733   6.385  18.630  0.00  0.00    +0.000 C 
ENDBRANCH  22  24
ENDBRANCH  10  22
ENDBRANCH   8  10
ENDBRANCH   7   8
ENDBRANCH   1   7
BRANCH   4  25
ATOM     25  C   UNL     1      44.961   7.646  12.026  0.00  0.00    +0.000 C 
BRANCH  25  26
ATOM     26  N   UNL     1      45.043   6.675  10.931  0.00  0.00    +0.000 NA
ATOM     27  H   UNL     1      46.032   6.477  10.762  0.00  0.00    +0.000 HD
BRANCH  26  28
ATOM     28  CA  UNL     1      44.385   5.391  11.270  0.00  0.00    +0.000 C 
BRANCH  28  29
ATOM     29  C   UNL     1      44.699   4.353  10.194  0.00  0.00    +0.000 A 
ATOM     30  C   UNL     1      45.404   4.719   9.036  0.00  0.00    +0.000 A 
ATOM     31  C   UNL     1      45.702   3.771   8.052  0.00  0.00    +0.000 A 
ATOM     32  C   UNL     1      45.300   2.447   8.209  0.00  0.00    +0.000 A 
ATOM     33  C   UNL     1      44.596   2.068   9.346  0.00  0.00    +0.000 A 
ATOM     34  C   UNL     1      44.294   3.013  10.328  0.00  0.00    +0.000 A 
ENDBRANCH  28  29
BRANCH  28  35
ATOM     35  C   UNL     1      42.851   5.549  11.469  0.00  0.00    +0.000 C 
BRANCH  35  36
ATOM     36  O   UNL     1      42.466   5.418  12.840  0.00  0.00    +0.000 OA
ATOM     37  H   UNL     1      43.198   4.928  13.265  0.00  0.00    +0.000 HD
ENDBRANCH  35  36
ENDBRANCH  28  35
ENDBRANCH  26  28
ENDBRANCH  25  26
ENDBRANCH   4  25
TORSDOF 12
ENDMDL
MODEL 6
REMARK VINA RESULT:    -7.395      2.291      3.456
REMARK INTER + INTRA:         -13.226
REMARK INTER:                 -12.141
REMARK INTRA:                  -1.084
REMARK UNBOUND:                -0.858
REMARK  Name = 
REMARK  13 active torsions:
REMARK  status: ('A' for Active; 'I' for Inactive)
REMARK    1  A    between atoms: C_1  and  C_2
REMARK    2  A    between atoms: C_2  and  C_3
REMARK    3  A    between atoms: C_3  and  C_4
REMARK    4  A    between atoms: C_4  and  N_5
REMARK    5  A    between atoms: C_4  and  C_24
REMARK    6  A    between atoms: N_5  and  C_6
REMARK    7  A    between atoms: C_6  and  C_7
REMARK    8  A    between atoms: C_10  and  C_11
REMARK    9  A    between atoms: C_11  and  N_12
REMARK   10  A    between atoms: N_12  and  CA_13
REMARK   11  A    between atoms: CA_13  and  C_14
REMARK   12  A    between atoms: CA_13  and  C_16
REMARK   13  A    between atoms: C_14  and  O_15
REMARK                            x       y       z     vdW  Elec       q    Type
REMARK                         _______ _______ _______ _____ _____    ______ ____
ROOT
ATOM      1  C   UNL     1      47.117   6.133  13.753  0.00  0.00    +0.000 A 
ATOM      2  C   UNL     1      46.236   5.072  13.988  0.00  0.00    +0.000 A 
ATOM      3  C   UNL     1      45.036   4.973  13.276  0.00  0.00    +0.000 A 
ATOM      4  C   UNL     1      44.682   5.942  12.325  0.00  0.00    +0.000 A 
ATOM      5  C   UNL     1      45.560   7.005  12.090  0.00  0.00    +0.000 A 
ATOM      6  C   UNL     1      46.761   7.098  12.796  0.00  0.00    +0.000 A 
ENDROOT
BRANCH   1   7
ATOM      7  C   UNL     1      48.356   6.350  14.593  0.00  0.00    +0.000 C 
BRANCH   7   8
ATOM      8  N   UNL     1      48.156   6.225  16.038  0.00  0.00    +0.000 NA
ATOM      9  H   UNL     1      48.249   7.138  16.476  0.00  0.00    +0.000 HD
BRANCH   8  10
ATOM     10  C   UNL     1      49.090   5.284  16.702  0.00  0.00    +0.000 C 
BRANCH  10  11
ATOM     11  C   UNL     1      49.522   5.892  18.040  0.00  0.00    +0.000 A 
ATOM     12  C   UNL     1      50.803   6.369  18.300  0.00  0.00    +0.000 A 
ATOM     13  S   UNL     1      51.070   6.786  19.927  0.00  0.00    +0.000 S 
ATOM     14  C   UNL     1      49.471   6.400  20.342  0.00  0.00    +0.000 A 
ATOM     15  N   UNL     1      49.052   6.484  21.632  0.00  0.00    +0.000 NA
ATOM     16  C   UNL     1      47.817   6.152  21.809  0.00  0.00    +0.000 A 
ATOM     17  N   UNL     1      46.959   5.770  20.810  0.00  0.00    +0.000 N 
ATOM     18  C   UNL     1      47.313   5.739  19.473  0.00  0.00    +0.000 A 
ATOM     19  O   UNL     1      46.479   5.574  18.594  0.00  0.00    +0.000 OA
ATOM     20  C   UNL     1      48.723   6.007  19.239  0.00  0.00    +0.000 A 
ATOM     21  H   UNL     1      45.982   5.599  21.009  0.00  0.00    +0.000 HD
ENDBRANCH  10  11
BRANCH  10  22
ATOM     22  C   UNL     1      48.530   3.843  16.871  0.00  0.00    +0.000 C 
BRANCH  22  24
ATOM     23  C   UNL     1      50.433   2.137  17.025  0.00  0.00    +0.000 C 
ATOM     24  C   UNL     1      49.313   2.862  17.747  0.00  0.00    +0.000 C 
ENDBRANCH  22  24
ENDBRANCH  10  22
ENDBRANCH   8  10
ENDBRANCH   7   8
ENDBRANCH   1   7
BRANCH   4  25
ATOM     25  C   UNL     1      43.409   5.810  11.522  0.00  0.00    +0.000 C 
BRANCH  25  26
ATOM     26  N   UNL     1      43.601   4.993  10.320  0.00  0.00    +0.000 NA
ATOM     27  H   UNL     1      44.179   5.529   9.667  0.00  0.00    +0.000 HD
BRANCH  26  28
ATOM     28  CA  UNL     1      44.317   3.728  10.609  0.00  0.00    +0.000 C 
BRANCH  28  29
ATOM     29  C   UNL     1      45.145   3.316   9.394  0.00  0.00    +0.000 A 
ATOM     30  C   UNL     1      45.437   1.963   9.158  0.00  0.00    +0.000 A 
ATOM     31  C   UNL     1      46.188   1.579   8.042  0.00  0.00    +0.000 A 
ATOM     32  C   UNL     1      46.657   2.539   7.148  0.00  0.00    +0.000 A 
ATOM     33  C   UNL     1      46.382   3.883   7.369  0.00  0.00    +0.000 A 
ATOM     34  C   UNL     1      45.636   4.269   8.484  0.00  0.00    +0.000 A 
ENDBRANCH  28  29
BRANCH  28  35
ATOM     35  C   UNL     1      43.350   2.590  11.044  0.00  0.00    +0.000 C 
BRANCH  35  36
ATOM     36  O   UNL     1      43.619   2.127  12.369  0.00  0.00    +0.000 OA
ATOM     37  H   UNL     1      44.580   1.953  12.389  0.00  0.00    +0.000 HD
ENDBRANCH  35  36
ENDBRANCH  28  35
ENDBRANCH  26  28
ENDBRANCH  25  26
ENDBRANCH   4  25
TORSDOF 12
ENDMDL
MODEL 7
REMARK VINA RESULT:    -7.282      3.550      9.229
REMARK INTER + INTRA:         -13.035
REMARK INTER:                 -10.937
REMARK INTRA:                  -2.099
REMARK UNBOUND:                -0.858
REMARK  Name = 
REMARK  13 active torsions:
REMARK  status: ('A' for Active; 'I' for Inactive)
REMARK    1  A    between atoms: C_1  and  C_2
REMARK    2  A    between atoms: C_2  and  C_3
REMARK    3  A    between atoms: C_3  and  C_4
REMARK    4  A    between atoms: C_4  and  N_5
REMARK    5  A    between atoms: C_4  and  C_24
REMARK    6  A    between atoms: N_5  and  C_6
REMARK    7  A    between atoms: C_6  and  C_7
REMARK    8  A    between atoms: C_10  and  C_11
REMARK    9  A    between atoms: C_11  and  N_12
REMARK   10  A    between atoms: N_12  and  CA_13
REMARK   11  A    between atoms: CA_13  and  C_14
REMARK   12  A    between atoms: CA_13  and  C_16
REMARK   13  A    between atoms: C_14  and  O_15
REMARK                            x       y       z     vdW  Elec       q    Type
REMARK                         _______ _______ _______ _____ _____    ______ ____
ROOT
ATOM      1  C   UNL     1      48.601   7.905  13.940  0.00  0.00    +0.000 A 
ATOM      2  C   UNL     1      48.054   8.884  14.778  0.00  0.00    +0.000 A 
ATOM      3  C   UNL     1      48.297   8.857  16.154  0.00  0.00    +0.000 A 
ATOM      4  C   UNL     1      49.080   7.843  16.727  0.00  0.00    +0.000 A 
ATOM      5  C   UNL     1      49.625   6.862  15.893  0.00  0.00    +0.000 A 
ATOM      6  C   UNL     1      49.387   6.894  14.517  0.00  0.00    +0.000 A 
ENDROOT
BRANCH   1   7
ATOM      7  C   UNL     1      48.253   7.819  12.471  0.00  0.00    +0.000 C 
BRANCH   7   8
ATOM      8  N   UNL     1      47.294   6.769  12.119  0.00  0.00    +0.000 NA
ATOM      9  H   UNL     1      47.664   6.211  11.355  0.00  0.00    +0.000 HD
BRANCH   8  10
ATOM     10  C   UNL     1      45.955   7.274  11.732  0.00  0.00    +0.000 C 
BRANCH  10  11
ATOM     11  C   UNL     1      44.955   6.116  11.824  0.00  0.00    +0.000 A 
ATOM     12  C   UNL     1      44.077   5.929  12.887  0.00  0.00    +0.000 A 
ATOM     13  S   UNL     1      43.238   4.450  12.839  0.00  0.00    +0.000 S 
ATOM     14  C   UNL     1      43.970   4.022  11.370  0.00  0.00    +0.000 A 
ATOM     15  N   UNL     1      43.720   2.816  10.797  0.00  0.00    +0.000 NA
ATOM     16  C   UNL     1      44.349   2.616   9.689  0.00  0.00    +0.000 A 
ATOM     17  N   UNL     1      45.186   3.522   9.089  0.00  0.00    +0.000 N 
ATOM     18  C   UNL     1      45.418   4.790   9.590  0.00  0.00    +0.000 A 
ATOM     19  O   UNL     1      46.018   5.636   8.942  0.00  0.00    +0.000 OA
ATOM     20  C   UNL     1      44.809   5.022  10.891  0.00  0.00    +0.000 A 
ATOM     21  H   UNL     1      45.586   3.330   8.181  0.00  0.00    +0.000 HD
ENDBRANCH  10  11
BRANCH  10  22
ATOM     22  C   UNL     1      45.483   8.516  12.540  0.00  0.00    +0.000 C 
BRANCH  22  24
ATOM     23  C   UNL     1      43.991   9.523  10.719  0.00  0.00    +0.000 C 
ATOM     24  C   UNL     1      45.064   9.767  11.763  0.00  0.00    +0.000 C 
ENDBRANCH  22  24
ENDBRANCH  10  22
ENDBRANCH   8  10
ENDBRANCH   7   8
ENDBRANCH   1   7
BRANCH   4  25
ATOM     25  C   UNL     1      49.383   7.841  18.208  0.00  0.00    +0.000 C 
BRANCH  25  26
ATOM     26  N   UNL     1      48.259   7.328  18.997  0.00  0.00    +0.000 NA
ATOM     27  H   UNL     1      47.477   7.165  18.358  0.00  0.00    +0.000 HD
BRANCH  26  28
ATOM     28  CA  UNL     1      48.575   6.036  19.650  0.00  0.00    +0.000 C 
BRANCH  28  29
ATOM     29  C   UNL     1      48.461   4.904  18.631  0.00  0.00    +0.000 A 
ATOM     30  C   UNL     1      47.280   4.727  17.893  0.00  0.00    +0.000 A 
ATOM     31  C   UNL     1      47.173   3.697  16.953  0.00  0.00    +0.000 A 
ATOM     32  C   UNL     1      48.242   2.831  16.736  0.00  0.00    +0.000 A 
ATOM     33  C   UNL     1      49.418   2.988  17.462  0.00  0.00    +0.000 A 
ATOM     34  C   UNL     1      49.525   4.013  18.404  0.00  0.00    +0.000 A 
ENDBRANCH  28  29
BRANCH  28  35
ATOM     35  C   UNL     1      47.677   5.768  20.892  0.00  0.00    +0.000 C 
BRANCH  35  36
ATOM     36  O   UNL     1      47.938   4.493  21.483  0.00  0.00    +0.000 OA
ATOM     37  H   UNL     1      47.090   4.010  21.430  0.00  0.00    +0.000 HD
ENDBRANCH  35  36
ENDBRANCH  28  35
ENDBRANCH  26  28
ENDBRANCH  25  26
ENDBRANCH   4  25
TORSDOF 12
ENDMDL
MODEL 8
REMARK VINA RESULT:    -7.276      2.660      3.541
REMARK INTER + INTRA:         -13.026
REMARK INTER:                 -11.332
REMARK INTRA:                  -1.694
REMARK UNBOUND:                -0.858
REMARK  Name = 
REMARK  13 active torsions:
REMARK  status: ('A' for Active; 'I' for Inactive)
REMARK    1  A    between atoms: C_1  and  C_2
REMARK    2  A    between atoms: C_2  and  C_3
REMARK    3  A    between atoms: C_3  and  C_4
REMARK    4  A    between atoms: C_4  and  N_5
REMARK    5  A    between atoms: C_4  and  C_24
REMARK    6  A    between atoms: N_5  and  C_6
REMARK    7  A    between atoms: C_6  and  C_7
REMARK    8  A    between atoms: C_10  and  C_11
REMARK    9  A    between atoms: C_11  and  N_12
REMARK   10  A    between atoms: N_12  and  CA_13
REMARK   11  A    between atoms: CA_13  and  C_14
REMARK   12  A    between atoms: CA_13  and  C_16
REMARK   13  A    between atoms: C_14  and  O_15
REMARK                            x       y       z     vdW  Elec       q    Type
REMARK                         _______ _______ _______ _____ _____    ______ ____
ROOT
ATOM      1  C   UNL     1      48.804   7.789  13.355  0.00  0.00    +0.000 A 
ATOM      2  C   UNL     1      48.431   6.899  12.342  0.00  0.00    +0.000 A 
ATOM      3  C   UNL     1      47.126   6.899  11.840  0.00  0.00    +0.000 A 
ATOM      4  C   UNL     1      46.159   7.778  12.351  0.00  0.00    +0.000 A 
ATOM      5  C   UNL     1      46.528   8.667  13.366  0.00  0.00    +0.000 A 
ATOM      6  C   UNL     1      47.834   8.670  13.861  0.00  0.00    +0.000 A 
ENDROOT
BRANCH   1   7
ATOM      7  C   UNL     1      50.162   7.730  14.017  0.00  0.00    +0.000 C 
BRANCH   7   8
ATOM      8  N   UNL     1      50.208   6.984  15.277  0.00  0.00    +0.000 NA
ATOM      9  H   UNL     1      49.927   6.021  15.114  0.00  0.00    +0.000 HD
BRANCH   8  10
ATOM     10  C   UNL     1      49.357   7.551  16.351  0.00  0.00    +0.000 C 
BRANCH  10  11
ATOM     11  C   UNL     1      49.147   6.476  17.422  0.00  0.00    +0.000 A 
ATOM     12  C   UNL     1      49.646   6.561  18.718  0.00  0.00    +0.000 A 
ATOM     13  S   UNL     1      49.455   5.136  19.628  0.00  0.00    +0.000 S 
ATOM     14  C   UNL     1      48.650   4.365  18.349  0.00  0.00    +0.000 A 
ATOM     15  N   UNL     1      48.257   3.069  18.459  0.00  0.00    +0.000 NA
ATOM     16  C   UNL     1      47.665   2.605  17.411  0.00  0.00    +0.000 A 
ATOM     17  N   UNL     1      47.409   3.326  16.273  0.00  0.00    +0.000 N 
ATOM     18  C   UNL     1      47.720   4.667  16.136  0.00  0.00    +0.000 A 
ATOM     19  O   UNL     1      47.316   5.325  15.188  0.00  0.00    +0.000 OA
ATOM     20  C   UNL     1      48.480   5.204  17.254  0.00  0.00    +0.000 A 
ATOM     21  H   UNL     1      46.871   2.922  15.518  0.00  0.00    +0.000 HD
ENDBRANCH  10  11
BRANCH  10  22
ATOM     22  C   UNL     1      49.894   8.879  16.956  0.00  0.00    +0.000 C 
BRANCH  22  24
ATOM     23  C   UNL     1      48.306  10.236  18.436  0.00  0.00    +0.000 C 
ATOM     24  C   UNL     1      48.932  10.065  17.065  0.00  0.00    +0.000 C 
ENDBRANCH  22  24
ENDBRANCH  10  22
ENDBRANCH   8  10
ENDBRANCH   7   8
ENDBRANCH   1   7
BRANCH   4  25
ATOM     25  C   UNL     1      44.762   7.812  11.777  0.00  0.00    +0.000 C 
BRANCH  25  26
ATOM     26  N   UNL     1      44.587   6.832  10.701  0.00  0.00    +0.000 NA
ATOM     27  H   UNL     1      45.483   6.736  10.217  0.00  0.00    +0.000 HD
BRANCH  26  28
ATOM     28  CA  UNL     1      44.217   5.492  11.217  0.00  0.00    +0.000 C 
BRANCH  28  29
ATOM     29  C   UNL     1      44.616   4.423  10.202  0.00  0.00    +0.000 A 
ATOM     30  C   UNL     1      45.393   4.759   9.082  0.00  0.00    +0.000 A 
ATOM     31  C   UNL     1      45.769   3.782   8.155  0.00  0.00    +0.000 A 
ATOM     32  C   UNL     1      45.374   2.458   8.331  0.00  0.00    +0.000 A 
ATOM     33  C   UNL     1      44.599   2.108   9.431  0.00  0.00    +0.000 A 
ATOM     34  C   UNL     1      44.220   3.083  10.356  0.00  0.00    +0.000 A 
ENDBRANCH  28  29
BRANCH  28  35
ATOM     35  C   UNL     1      42.706   5.395  11.573  0.00  0.00    +0.000 C 
BRANCH  35  36
ATOM     36  O   UNL     1      42.482   5.379  12.985  0.00  0.00    +0.000 OA
ATOM     37  H   UNL     1      41.514   5.462  13.091  0.00  0.00    +0.000 HD
ENDBRANCH  35  36
ENDBRANCH  28  35
ENDBRANCH  26  28
ENDBRANCH  25  26
ENDBRANCH   4  25
TORSDOF 12
ENDMDL
MODEL 9
REMARK VINA RESULT:    -7.085      2.649      3.807
REMARK INTER + INTRA:         -12.707
REMARK INTER:                 -11.150
REMARK INTRA:                  -1.557
REMARK UNBOUND:                -0.858
REMARK  Name = 
REMARK  13 active torsions:
REMARK  status: ('A' for Active; 'I' for Inactive)
REMARK    1  A    between atoms: C_1  and  C_2
REMARK    2  A    between atoms: C_2  and  C_3
REMARK    3  A    between atoms: C_3  and  C_4
REMARK    4  A    between atoms: C_4  and  N_5
REMARK    5  A    between atoms: C_4  and  C_24
REMARK    6  A    between atoms: N_5  and  C_6
REMARK    7  A    between atoms: C_6  and  C_7
REMARK    8  A    between atoms: C_10  and  C_11
REMARK    9  A    between atoms: C_11  and  N_12
REMARK   10  A    between atoms: N_12  and  CA_13
REMARK   11  A    between atoms: CA_13  and  C_14
REMARK   12  A    between atoms: CA_13  and  C_16
REMARK   13  A    between atoms: C_14  and  O_15
REMARK                            x       y       z     vdW  Elec       q    Type
REMARK                         _______ _______ _______ _____ _____    ______ ____
ROOT
ATOM      1  C   UNL     1      47.403   6.695  12.881  0.00  0.00    +0.000 A 
ATOM      2  C   UNL     1      46.647   5.737  13.567  0.00  0.00    +0.000 A 
ATOM      3  C   UNL     1      45.327   5.472  13.191  0.00  0.00    +0.000 A 
ATOM      4  C   UNL     1      44.726   6.169  12.132  0.00  0.00    +0.000 A 
ATOM      5  C   UNL     1      45.478   7.130  11.447  0.00  0.00    +0.000 A 
ATOM      6  C   UNL     1      46.799   7.389  11.819  0.00  0.00    +0.000 A 
ENDROOT
BRANCH   1   7
ATOM      7  C   UNL     1      48.784   7.108  13.339  0.00  0.00    +0.000 C 
BRANCH   7   8
ATOM      8  N   UNL     1      49.232   6.494  14.591  0.00  0.00    +0.000 NA
ATOM      9  H   UNL     1      48.709   5.639  14.759  0.00  0.00    +0.000 HD
BRANCH   8  10
ATOM     10  C   UNL     1      49.102   7.371  15.779  0.00  0.00    +0.000 C 
BRANCH  10  11
ATOM     11  C   UNL     1      49.372   6.531  17.033  0.00  0.00    +0.000 A 
ATOM     12  C   UNL     1      50.216   5.426  17.062  0.00  0.00    +0.000 A 
ATOM     13  S   UNL     1      50.162   4.552  18.520  0.00  0.00    +0.000 S 
ATOM     14  C   UNL     1      49.053   5.644  19.194  0.00  0.00    +0.000 A 
ATOM     15  N   UNL     1      48.544   5.435  20.437  0.00  0.00    +0.000 NA
ATOM     16  C   UNL     1      47.705   6.336  20.822  0.00  0.00    +0.000 A 
ATOM     17  N   UNL     1      47.348   7.438  20.089  0.00  0.00    +0.000 N 
ATOM     18  C   UNL     1      47.891   7.738  18.853  0.00  0.00    +0.000 A 
ATOM     19  O   UNL     1      47.693   8.816  18.310  0.00  0.00    +0.000 OA
ATOM     20  C   UNL     1      48.765   6.697  18.334  0.00  0.00    +0.000 A 
ATOM     21  H   UNL     1      46.743   8.145  20.485  0.00  0.00    +0.000 HD
ENDBRANCH  10  11
BRANCH  10  22
ATOM     22  C   UNL     1      49.988   8.648  15.731  0.00  0.00    +0.000 C 
BRANCH  22  24
ATOM     23  C   UNL     1      49.724  10.613  14.111  0.00  0.00    +0.000 C 
ATOM     24  C   UNL     1      49.309   9.987  15.429  0.00  0.00    +0.000 C 
ENDBRANCH  22  24
ENDBRANCH  10  22
ENDBRANCH   8  10
ENDBRANCH   7   8
ENDBRANCH   1   7
BRANCH   4  25
ATOM     25  C   UNL     1      43.316   5.849  11.695  0.00  0.00    +0.000 C 
BRANCH  25  26
ATOM     26  N   UNL     1      43.291   4.919  10.562  0.00  0.00    +0.000 NA
ATOM     27  H   UNL     1      43.678   5.406   9.750  0.00  0.00    +0.000 HD
BRANCH  26  28
ATOM     28  CA  UNL     1      44.128   3.720  10.801  0.00  0.00    +0.000 C 
BRANCH  28  29
ATOM     29  C   UNL     1      44.969   3.424   9.561  0.00  0.00    +0.000 A 
ATOM     30  C   UNL     1      45.484   4.474   8.784  0.00  0.00    +0.000 A 
ATOM     31  C   UNL     1      46.262   4.209   7.652  0.00  0.00    +0.000 A 
ATOM     32  C   UNL     1      46.535   2.895   7.280  0.00  0.00    +0.000 A 
ATOM     33  C   UNL     1      46.028   1.843   8.035  0.00  0.00    +0.000 A 
ATOM     34  C   UNL     1      45.248   2.105   9.163  0.00  0.00    +0.000 A 
ENDBRANCH  28  29
BRANCH  28  35
ATOM     35  C   UNL     1      43.282   2.483  11.216  0.00  0.00    +0.000 C 
BRANCH  35  36
ATOM     36  O   UNL     1      43.597   2.028  12.534  0.00  0.00    +0.000 OA
ATOM     37  H   UNL     1      43.469   2.807  13.110  0.00  0.00    +0.000 HD
ENDBRANCH  35  36
ENDBRANCH  28  35
ENDBRANCH  26  28
ENDBRANCH  25  26
ENDBRANCH   4  25
TORSDOF 12
ENDMDL
