MODEL 1
REMARK VINA RESULT:    -8.158      0.000      0.000
REMARK INTER + INTRA:         -12.872
REMARK INTER:                 -11.734
REMARK INTRA:                  -1.138
REMARK UNBOUND:                -1.138
REMARK  Name = 
REMARK  8 active torsions:
REMARK  status: ('A' for Active; 'I' for Inactive)
REMARK    1  A    between atoms: C_2  and  C_22
REMARK    2  A    between atoms: N_3  and  C_4
REMARK    3  A    between atoms: C_4  and  C_5
REMARK    4  A    between atoms: C_8  and  C_9
REMARK    5  A    between atoms: C_9  and  N_10
REMARK    6  A    between atoms: N_10  and  C_11
REMARK    7  A    between atoms: C_11  and  C_12
REMARK    8  A    between atoms: C_12  and  O_13
REMARK                            x       y       z     vdW  Elec       q    Type
REMARK                         _______ _______ _______ _____ _____    ______ ____
ROOT
ATOM      1  C   UNL     1      48.109   6.846  14.271  0.00  0.00    +0.000 A 
ATOM      2  C   UNL     1      48.089   7.540  13.055  0.00  0.00    +0.000 A 
ATOM      3  C   UNL     1      47.283   7.104  12.003  0.00  0.00    +0.000 A 
ATOM      4  C   UNL     1      46.448   5.989  12.159  0.00  0.00    +0.000 A 
ATOM      5  C   UNL     1      46.545   5.233  13.335  0.00  0.00    +0.000 A 
ATOM      6  C   UNL     1      47.365   5.663  14.386  0.00  0.00    +0.000 A 
ENDROOT
BRANCH   1   7
ATOM      7  C   UNL     1      48.863   7.416  15.449  0.00  0.00    +0.000 C 
BRANCH   7  10
ATOM      8  O   UNL     1      48.824   5.836  17.785  0.00  0.00    +0.000 OA
ATOM      9  C   UNL     1      49.809   5.786  17.054  0.00  0.00    +0.000 C 
ATOM     10  N   UNL     1      49.906   6.520  15.901  0.00  0.00    +0.000 N 
ATOM     11  H   UNL     1      50.654   6.326  15.244  0.00  0.00    +0.000 HD
BRANCH   9  12
ATOM     12  C   UNL     1      50.981   4.966  17.421  0.00  0.00    +0.000 A 
ATOM     13  C   UNL     1      52.154   5.591  17.827  0.00  0.00    +0.000 A 
ATOM     14  S   UNL     1      53.424   4.511  18.186  0.00  0.00    +0.000 S 
ATOM     15  C   UNL     1      52.439   3.162  17.860  0.00  0.00    +0.000 A 
ATOM     16  N   UNL     1      52.919   1.897  18.012  0.00  0.00    +0.000 NA
ATOM     17  C   UNL     1      52.053   0.966  17.770  0.00  0.00    +0.000 A 
ATOM     18  N   UNL     1      50.763   1.190  17.368  0.00  0.00    +0.000 N 
ATOM     19  C   UNL     1      50.259   2.448  17.134  0.00  0.00    +0.000 A 
ATOM     20  O   UNL     1      49.135   2.603  16.668  0.00  0.00    +0.000 OA
ATOM     21  C   UNL     1      51.169   3.532  17.447  0.00  0.00    +0.000 A 
ATOM     22  H   UNL     1      50.148   0.417  17.162  0.00  0.00    +0.000 HD
ENDBRANCH   9  12
ENDBRANCH   7  10
ENDBRANCH   1   7
BRANCH   4  23
ATOM     23  C   UNL     1      45.290   5.800  11.201  0.00  0.00    +0.000 C 
BRANCH  23  24
ATOM     24  N   UNL     1      44.782   4.436  11.045  0.00  0.00    +0.000 N 
ATOM     25  C   UNL     1      45.165   3.802   9.840  0.00  0.00    +0.000 A 
ATOM     26  C   UNL     1      45.624   4.510   8.718  0.00  0.00    +0.000 A 
ATOM     27  C   UNL     1      46.101   3.837   7.594  0.00  0.00    +0.000 A 
ATOM     28  C   UNL     1      46.086   2.456   7.584  0.00  0.00    +0.000 A 
ATOM     29  C   UNL     1      45.565   1.817   8.694  0.00  0.00    +0.000 A 
ATOM     30  N   UNL     1      45.100   2.455   9.797  0.00  0.00    +0.000 NA
BRANCH  24  31
ATOM     31  C   UNL     1      43.333   4.236  11.289  0.00  0.00    +0.000 C 
BRANCH  31  32
ATOM     32  C   UNL     1      42.643   5.462  11.904  0.00  0.00    +0.000 C 
BRANCH  32  33
ATOM     33  O   UNL     1      42.570   5.382  13.327  0.00  0.00    +0.000 OA
ATOM     34  H   UNL     1      43.482   5.228  13.631  0.00  0.00    +0.000 HD
ENDBRANCH  32  33
ENDBRANCH  31  32
ENDBRANCH  24  31
ENDBRANCH  23  24
ENDBRANCH   4  23
TORSDOF 8
ENDMDL
MODEL 2
REMARK VINA RESULT:    -7.508      2.487      3.632
REMARK INTER + INTRA:         -11.938
REMARK INTER:                 -10.783
REMARK INTRA:                  -1.155
REMARK UNBOUND:                -1.138
REMARK  Name = 
REMARK  8 active torsions:
REMARK  status: ('A' for Active; 'I' for Inactive)
REMARK    1  A    between atoms: C_2  and  C_22
REMARK    2  A    between atoms: N_3  and  C_4
REMARK    3  A    between atoms: C_4  and  C_5
REMARK    4  A    between atoms: C_8  and  C_9
REMARK    5  A    between atoms: C_9  and  N_10
REMARK    6  A    between atoms: N_10  and  C_11
REMARK    7  A    between atoms: C_11  and  C_12
REMARK    8  A    between atoms: C_12  and  O_13
REMARK                            x       y       z     vdW  Elec       q    Type
REMARK                         _______ _______ _______ _____ _____    ______ ____
ROOT
ATOM      1  C   UNL     1      48.482   6.809  13.776  0.00  0.00    +0.000 A 
ATOM      2  C   UNL     1      48.414   7.318  12.473  0.00  0.00    +0.000 A 
ATOM      3  C   UNL     1      47.417   6.891  11.596  0.00  0.00    +0.000 A 
ATOM      4  C   UNL     1      46.441   5.976  12.017  0.00  0.00    +0.000 A 
ATOM      5  C   UNL     1      46.569   5.388  13.282  0.00  0.00    +0.000 A 
ATOM      6  C   UNL     1      47.579   5.806  14.158  0.00  0.00    +0.000 A 
ENDROOT
BRANCH   1   7
ATOM      7  C   UNL     1      49.467   7.393  14.761  0.00  0.00    +0.000 C 
BRANCH   7  10
ATOM      8  O   UNL     1      50.928   5.789  16.563  0.00  0.00    +0.000 OA
ATOM      9  C   UNL     1      49.873   6.291  16.940  0.00  0.00    +0.000 C 
ATOM     10  N   UNL     1      49.105   7.083  16.127  0.00  0.00    +0.000 N 
ATOM     11  H   UNL     1      48.335   7.611  16.524  0.00  0.00    +0.000 HD
BRANCH   9  12
ATOM     12  C   UNL     1      49.342   6.009  18.288  0.00  0.00    +0.000 A 
ATOM     13  C   UNL     1      49.500   4.740  18.835  0.00  0.00    +0.000 A 
ATOM     14  S   UNL     1      48.807   4.565  20.383  0.00  0.00    +0.000 S 
ATOM     15  C   UNL     1      48.311   6.192  20.403  0.00  0.00    +0.000 A 
ATOM     16  N   UNL     1      47.671   6.711  21.488  0.00  0.00    +0.000 NA
ATOM     17  C   UNL     1      47.386   7.969  21.387  0.00  0.00    +0.000 A 
ATOM     18  N   UNL     1      47.663   8.743  20.291  0.00  0.00    +0.000 N 
ATOM     19  C   UNL     1      48.242   8.244  19.148  0.00  0.00    +0.000 A 
ATOM     20  O   UNL     1      48.373   8.941  18.148  0.00  0.00    +0.000 OA
ATOM     21  C   UNL     1      48.638   6.851  19.229  0.00  0.00    +0.000 A 
ATOM     22  H   UNL     1      47.382   9.712  20.263  0.00  0.00    +0.000 HD
ENDBRANCH   9  12
ENDBRANCH   7  10
ENDBRANCH   1   7
BRANCH   4  23
ATOM     23  C   UNL     1      45.151   5.866  11.230  0.00  0.00    +0.000 C 
BRANCH  23  24
ATOM     24  N   UNL     1      44.604   4.520  11.051  0.00  0.00    +0.000 N 
ATOM     25  C   UNL     1      45.030   3.867   9.870  0.00  0.00    +0.000 A 
ATOM     26  C   UNL     1      45.576   4.551   8.774  0.00  0.00    +0.000 A 
ATOM     27  C   UNL     1      46.091   3.856   7.680  0.00  0.00    +0.000 A 
ATOM     28  C   UNL     1      46.026   2.476   7.674  0.00  0.00    +0.000 A 
ATOM     29  C   UNL     1      45.423   1.863   8.755  0.00  0.00    +0.000 A 
ATOM     30  N   UNL     1      44.920   2.522   9.829  0.00  0.00    +0.000 NA
BRANCH  24  31
ATOM     31  C   UNL     1      43.137   4.373  11.214  0.00  0.00    +0.000 C 
BRANCH  31  32
ATOM     32  C   UNL     1      42.488   5.541  11.970  0.00  0.00    +0.000 C 
BRANCH  32  33
ATOM     33  O   UNL     1      42.551   5.370  13.385  0.00  0.00    +0.000 OA
ATOM     34  H   UNL     1      42.979   6.173  13.731  0.00  0.00    +0.000 HD
ENDBRANCH  32  33
ENDBRANCH  31  32
ENDBRANCH  24  31
ENDBRANCH  23  24
ENDBRANCH   4  23
TORSDOF 8
ENDMDL
MODEL 3
REMARK VINA RESULT:    -7.496      2.052      2.409
REMARK INTER + INTRA:         -11.921
REMARK INTER:                 -10.813
REMARK INTRA:                  -1.107
REMARK UNBOUND:                -1.138
REMARK  Name = 
REMARK  8 active torsions:
REMARK  status: ('A' for Active; 'I' for Inactive)
REMARK    1  A    between atoms: C_2  and  C_22
REMARK    2  A    between atoms: N_3  and  C_4
REMARK    3  A    between atoms: C_4  and  C_5
REMARK    4  A    between atoms: C_8  and  C_9
REMARK    5  A    between atoms: C_9  and  N_10
REMARK    6  A    between atoms: N_10  and  C_11
REMARK    7  A    between atoms: C_11  and  C_12
REMARK    8  A    between atoms: C_12  and  O_13
REMARK                            x       y       z     vdW  Elec       q    Type
REMARK                         _______ _______ _______ _____ _____    ______ ____
ROOT
ATOM      1  C   UNL     1      48.656   7.085  13.310  0.00  0.00    +0.000 A 
ATOM      2  C   UNL     1      48.497   7.413  11.959  0.00  0.00    +0.000 A 
ATOM      3  C   UNL     1      47.413   6.921  11.231  0.00  0.00    +0.000 A 
ATOM      4  C   UNL     1      46.441   6.123  11.852  0.00  0.00    +0.000 A 
ATOM      5  C   UNL     1      46.653   5.708  13.173  0.00  0.00    +0.000 A 
ATOM      6  C   UNL     1      47.750   6.191  13.899  0.00  0.00    +0.000 A 
ENDROOT
BRANCH   1   7
ATOM      7  C   UNL     1      49.743   7.748  14.122  0.00  0.00    +0.000 C 
BRANCH   7  10
ATOM      8  O   UNL     1      51.528   6.627  15.996  0.00  0.00    +0.000 OA
ATOM      9  C   UNL     1      50.440   7.036  16.389  0.00  0.00    +0.000 C 
ATOM     10  N   UNL     1      49.517   7.596  15.544  0.00  0.00    +0.000 N 
ATOM     11  H   UNL     1      48.708   8.071  15.929  0.00  0.00    +0.000 HD
BRANCH   9  12
ATOM     12  C   UNL     1      50.042   6.887  17.803  0.00  0.00    +0.000 A 
ATOM     13  C   UNL     1      50.072   7.994  18.643  0.00  0.00    +0.000 A 
ATOM     14  S   UNL     1      49.615   7.653  20.250  0.00  0.00    +0.000 S 
ATOM     15  C   UNL     1      49.310   6.022  19.874  0.00  0.00    +0.000 A 
ATOM     16  N   UNL     1      48.847   5.164  20.824  0.00  0.00    +0.000 NA
ATOM     17  C   UNL     1      48.620   3.965  20.393  0.00  0.00    +0.000 A 
ATOM     18  N   UNL     1      48.838   3.547  19.107  0.00  0.00    +0.000 N 
ATOM     19  C   UNL     1      49.371   4.360  18.135  0.00  0.00    +0.000 A 
ATOM     20  O   UNL     1      49.656   3.920  17.026  0.00  0.00    +0.000 OA
ATOM     21  C   UNL     1      49.589   5.733  18.548  0.00  0.00    +0.000 A 
ATOM     22  H   UNL     1      48.672   2.586  18.844  0.00  0.00    +0.000 HD
ENDBRANCH   9  12
ENDBRANCH   7  10
ENDBRANCH   1   7
BRANCH   4  23
ATOM     23  C   UNL     1      45.086   5.972  11.192  0.00  0.00    +0.000 C 
BRANCH  23  24
ATOM     24  N   UNL     1      44.576   4.608  11.045  0.00  0.00    +0.000 N 
ATOM     25  C   UNL     1      45.023   3.938   9.881  0.00  0.00    +0.000 A 
ATOM     26  C   UNL     1      45.553   4.611   8.770  0.00  0.00    +0.000 A 
ATOM     27  C   UNL     1      46.088   3.904   7.693  0.00  0.00    +0.000 A 
ATOM     28  C   UNL     1      46.062   2.523   7.721  0.00  0.00    +0.000 A 
ATOM     29  C   UNL     1      45.473   1.919   8.815  0.00  0.00    +0.000 A 
ATOM     30  N   UNL     1      44.950   2.590   9.872  0.00  0.00    +0.000 NA
BRANCH  24  31
ATOM     31  C   UNL     1      43.113   4.424  11.209  0.00  0.00    +0.000 C 
BRANCH  31  32
ATOM     32  C   UNL     1      42.441   5.560  11.993  0.00  0.00    +0.000 C 
BRANCH  32  33
ATOM     33  O   UNL     1      42.551   5.380  13.404  0.00  0.00    +0.000 OA
ATOM     34  H   UNL     1      41.644   5.225  13.723  0.00  0.00    +0.000 HD
ENDBRANCH  32  33
ENDBRANCH  31  32
ENDBRANCH  24  31
ENDBRANCH  23  24
ENDBRANCH   4  23
TORSDOF 8
ENDMDL
MODEL 4
REMARK VINA RESULT:    -7.478      2.174      2.538
REMARK INTER + INTRA:         -11.895
REMARK INTER:                 -10.026
REMARK INTRA:                  -1.869
REMARK UNBOUND:                -1.138
REMARK  Name = 
REMARK  8 active torsions:
REMARK  status: ('A' for Active; 'I' for Inactive)
REMARK    1  A    between atoms: C_2  and  C_22
REMARK    2  A    between atoms: N_3  and  C_4
REMARK    3  A    between atoms: C_4  and  C_5
REMARK    4  A    between atoms: C_8  and  C_9
REMARK    5  A    between atoms: C_9  and  N_10
REMARK    6  A    between atoms: N_10  and  C_11
REMARK    7  A    between atoms: C_11  and  C_12
REMARK    8  A    between atoms: C_12  and  O_13
REMARK                            x       y       z     vdW  Elec       q    Type
REMARK                         _______ _______ _______ _____ _____    ______ ____
ROOT
ATOM      1  C   UNL     1      47.350   8.300  13.318  0.00  0.00    +0.000 A 
ATOM      2  C   UNL     1      46.087   8.866  13.112  0.00  0.00    +0.000 A 
ATOM      3  C   UNL     1      45.214   8.329  12.165  0.00  0.00    +0.000 A 
ATOM      4  C   UNL     1      45.571   7.187  11.433  0.00  0.00    +0.000 A 
ATOM      5  C   UNL     1      46.873   6.684  11.562  0.00  0.00    +0.000 A 
ATOM      6  C   UNL     1      47.754   7.233  12.503  0.00  0.00    +0.000 A 
ENDROOT
BRANCH   1   7
ATOM      7  C   UNL     1      48.219   8.793  14.451  0.00  0.00    +0.000 C 
BRANCH   7  10
ATOM      8  O   UNL     1      50.545   7.291  14.988  0.00  0.00    +0.000 OA
ATOM      9  C   UNL     1      49.546   7.099  15.675  0.00  0.00    +0.000 C 
ATOM     10  N   UNL     1      48.378   7.788  15.481  0.00  0.00    +0.000 N 
ATOM     11  H   UNL     1      47.636   7.723  16.170  0.00  0.00    +0.000 HD
BRANCH   9  12
ATOM     12  C   UNL     1      49.537   6.057  16.721  0.00  0.00    +0.000 A 
ATOM     13  C   UNL     1      50.478   6.104  17.743  0.00  0.00    +0.000 A 
ATOM     14  S   UNL     1      50.357   4.816  18.853  0.00  0.00    +0.000 S 
ATOM     15  C   UNL     1      49.010   4.171  18.039  0.00  0.00    +0.000 A 
ATOM     16  N   UNL     1      48.384   3.055  18.504  0.00  0.00    +0.000 NA
ATOM     17  C   UNL     1      47.350   2.696  17.813  0.00  0.00    +0.000 A 
ATOM     18  N   UNL     1      46.905   3.341  16.689  0.00  0.00    +0.000 N 
ATOM     19  C   UNL     1      47.548   4.427  16.144  0.00  0.00    +0.000 A 
ATOM     20  O   UNL     1      47.185   4.909  15.076  0.00  0.00    +0.000 OA
ATOM     21  C   UNL     1      48.679   4.909  16.913  0.00  0.00    +0.000 A 
ATOM     22  H   UNL     1      46.111   2.988  16.175  0.00  0.00    +0.000 HD
ENDBRANCH   9  12
ENDBRANCH   7  10
ENDBRANCH   1   7
BRANCH   4  23
ATOM     23  C   UNL     1      44.483   6.379  10.758  0.00  0.00    +0.000 C 
BRANCH  23  24
ATOM     24  N   UNL     1      44.420   4.955  11.090  0.00  0.00    +0.000 N 
ATOM     25  C   UNL     1      44.715   4.088  10.012  0.00  0.00    +0.000 A 
ATOM     26  C   UNL     1      44.668   4.496   8.670  0.00  0.00    +0.000 A 
ATOM     27  C   UNL     1      45.080   3.641   7.648  0.00  0.00    +0.000 A 
ATOM     28  C   UNL     1      45.509   2.369   7.971  0.00  0.00    +0.000 A 
ATOM     29  C   UNL     1      45.475   2.006   9.304  0.00  0.00    +0.000 A 
ATOM     30  N   UNL     1      45.080   2.824  10.312  0.00  0.00    +0.000 NA
BRANCH  24  31
ATOM     31  C   UNL     1      43.201   4.492  11.798  0.00  0.00    +0.000 C 
BRANCH  31  32
ATOM     32  C   UNL     1      43.496   3.834  13.153  0.00  0.00    +0.000 C 
BRANCH  32  33
ATOM     33  O   UNL     1      44.810   4.133  13.623  0.00  0.00    +0.000 OA
ATOM     34  H   UNL     1      44.871   3.737  14.510  0.00  0.00    +0.000 HD
ENDBRANCH  32  33
ENDBRANCH  31  32
ENDBRANCH  24  31
ENDBRANCH  23  24
ENDBRANCH   4  23
TORSDOF 8
ENDMDL
MODEL 5
REMARK VINA RESULT:    -7.105      2.996      8.600
REMARK INTER + INTRA:         -11.357
REMARK INTER:                  -9.826
REMARK INTRA:                  -1.532
REMARK UNBOUND:                -1.138
REMARK  Name = 
REMARK  8 active torsions:
REMARK  status: ('A' for Active; 'I' for Inactive)
REMARK    1  A    between atoms: C_2  and  C_22
REMARK    2  A    between atoms: N_3  and  C_4
REMARK    3  A    between atoms: C_4  and  C_5
REMARK    4  A    between atoms: C_8  and  C_9
REMARK    5  A    between atoms: C_9  and  N_10
REMARK    6  A    between atoms: N_10  and  C_11
REMARK    7  A    between atoms: C_11  and  C_12
REMARK    8  A    between atoms: C_12  and  O_13
REMARK                            x       y       z     vdW  Elec       q    Type
REMARK                         _______ _______ _______ _____ _____    ______ ____
ROOT
ATOM      1  C   UNL     1      48.494   8.134  13.345  0.00  0.00    +0.000 A 
ATOM      2  C   UNL     1      49.749   7.525  13.469  0.00  0.00    +0.000 A 
ATOM      3  C   UNL     1      50.350   7.385  14.720  0.00  0.00    +0.000 A 
ATOM      4  C   UNL     1      49.689   7.814  15.880  0.00  0.00    +0.000 A 
ATOM      5  C   UNL     1      48.484   8.517  15.749  0.00  0.00    +0.000 A 
ATOM      6  C   UNL     1      47.888   8.670  14.491  0.00  0.00    +0.000 A 
ENDROOT
BRANCH   1   7
ATOM      7  C   UNL     1      47.788   8.138  12.010  0.00  0.00    +0.000 C 
BRANCH   7  10
ATOM      8  O   UNL     1      44.995   7.860  12.287  0.00  0.00    +0.000 OA
ATOM      9  C   UNL     1      45.658   6.878  11.966  0.00  0.00    +0.000 C 
ATOM     10  N   UNL     1      47.018   6.930  11.808  0.00  0.00    +0.000 N 
ATOM     11  H   UNL     1      47.503   6.147  11.382  0.00  0.00    +0.000 HD
BRANCH   9  12
ATOM     12  C   UNL     1      45.017   5.560  11.791  0.00  0.00    +0.000 A 
ATOM     13  C   UNL     1      44.306   4.999  12.845  0.00  0.00    +0.000 A 
ATOM     14  S   UNL     1      43.653   3.462  12.498  0.00  0.00    +0.000 S 
ATOM     15  C   UNL     1      44.254   3.509  10.907  0.00  0.00    +0.000 A 
ATOM     16  N   UNL     1      44.011   2.486  10.041  0.00  0.00    +0.000 NA
ATOM     17  C   UNL     1      44.490   2.668   8.853  0.00  0.00    +0.000 A 
ATOM     18  N   UNL     1      45.209   3.768   8.466  0.00  0.00    +0.000 N 
ATOM     19  C   UNL     1      45.539   4.789   9.325  0.00  0.00    +0.000 A 
ATOM     20  O   UNL     1      46.277   5.702   8.972  0.00  0.00    +0.000 OA
ATOM     21  C   UNL     1      44.975   4.665  10.656  0.00  0.00    +0.000 A 
ATOM     22  H   UNL     1      45.586   3.832   7.531  0.00  0.00    +0.000 HD
ENDBRANCH   9  12
ENDBRANCH   7  10
ENDBRANCH   1   7
BRANCH   4  23
ATOM     23  C   UNL     1      50.136   7.272  17.222  0.00  0.00    +0.000 C 
BRANCH  23  24
ATOM     24  N   UNL     1      50.535   5.864  17.262  0.00  0.00    +0.000 N 
ATOM     25  C   UNL     1      49.457   4.953  17.363  0.00  0.00    +0.000 A 
ATOM     26  C   UNL     1      48.177   5.331  17.797  0.00  0.00    +0.000 A 
ATOM     27  C   UNL     1      47.116   4.426  17.769  0.00  0.00    +0.000 A 
ATOM     28  C   UNL     1      47.349   3.135  17.336  0.00  0.00    +0.000 A 
ATOM     29  C   UNL     1      48.643   2.808  16.979  0.00  0.00    +0.000 A 
ATOM     30  N   UNL     1      49.686   3.675  16.997  0.00  0.00    +0.000 NA
BRANCH  24  31
ATOM     31  C   UNL     1      51.601   5.503  18.228  0.00  0.00    +0.000 C 
BRANCH  31  32
ATOM     32  C   UNL     1      51.203   5.743  19.691  0.00  0.00    +0.000 C 
BRANCH  32  33
ATOM     33  O   UNL     1      50.982   4.523  20.397  0.00  0.00    +0.000 OA
ATOM     34  H   UNL     1      50.575   3.915  19.755  0.00  0.00    +0.000 HD
ENDBRANCH  32  33
ENDBRANCH  31  32
ENDBRANCH  24  31
ENDBRANCH  23  24
ENDBRANCH   4  23
TORSDOF 8
ENDMDL
MODEL 6
REMARK VINA RESULT:    -6.670      3.430      9.181
REMARK INTER + INTRA:         -10.733
REMARK INTER:                  -9.308
REMARK INTRA:                  -1.424
REMARK UNBOUND:                -1.138
REMARK  Name = 
REMARK  8 active torsions:
REMARK  status: ('A' for Active; 'I' for Inactive)
REMARK    1  A    between atoms: C_2  and  C_22
REMARK    2  A    between atoms: N_3  and  C_4
REMARK    3  A    between atoms: C_4  and  C_5
REMARK    4  A    between atoms: C_8  and  C_9
REMARK    5  A    between atoms: C_9  and  N_10
REMARK    6  A    between atoms: N_10  and  C_11
REMARK    7  A    between atoms: C_11  and  C_12
REMARK    8  A    between atoms: C_12  and  O_13
REMARK                            x       y       z     vdW  Elec       q    Type
REMARK                         _______ _______ _______ _____ _____    ______ ____
ROOT
ATOM      1  C   UNL     1      48.389   8.117  13.160  0.00  0.00    +0.000 A 
ATOM      2  C   UNL     1      49.648   7.551  13.396  0.00  0.00    +0.000 A 
ATOM      3  C   UNL     1      50.164   7.481  14.690  0.00  0.00    +0.000 A 
ATOM      4  C   UNL     1      49.413   7.940  15.783  0.00  0.00    +0.000 A 
ATOM      5  C   UNL     1      48.201   8.600  15.538  0.00  0.00    +0.000 A 
ATOM      6  C   UNL     1      47.690   8.683  14.236  0.00  0.00    +0.000 A 
ENDROOT
BRANCH   1   7
ATOM      7  C   UNL     1      47.779   8.044  11.780  0.00  0.00    +0.000 C 
BRANCH   7  10
ATOM      8  O   UNL     1      44.978   7.753  11.948  0.00  0.00    +0.000 OA
ATOM      9  C   UNL     1      45.661   6.765  11.693  0.00  0.00    +0.000 C 
ATOM     10  N   UNL     1      47.026   6.822  11.592  0.00  0.00    +0.000 N 
ATOM     11  H   UNL     1      47.535   6.028  11.218  0.00  0.00    +0.000 HD
BRANCH   9  12
ATOM     12  C   UNL     1      45.037   5.435  11.542  0.00  0.00    +0.000 A 
ATOM     13  C   UNL     1      44.347   4.877  12.611  0.00  0.00    +0.000 A 
ATOM     14  S   UNL     1      43.712   3.327  12.290  0.00  0.00    +0.000 S 
ATOM     15  C   UNL     1      44.294   3.362  10.692  0.00  0.00    +0.000 A 
ATOM     16  N   UNL     1      44.056   2.326   9.841  0.00  0.00    +0.000 NA
ATOM     17  C   UNL     1      44.519   2.500   8.646  0.00  0.00    +0.000 A 
ATOM     18  N   UNL     1      45.217   3.605   8.237  0.00  0.00    +0.000 N 
ATOM     19  C   UNL     1      45.541   4.642   9.080  0.00  0.00    +0.000 A 
ATOM     20  O   UNL     1      46.262   5.561   8.706  0.00  0.00    +0.000 OA
ATOM     21  C   UNL     1      44.995   4.526  10.418  0.00  0.00    +0.000 A 
ATOM     22  H   UNL     1      45.582   3.663   7.297  0.00  0.00    +0.000 HD
ENDBRANCH   9  12
ENDBRANCH   7  10
ENDBRANCH   1   7
BRANCH   4  23
ATOM     23  C   UNL     1      49.780   7.468  17.174  0.00  0.00    +0.000 C 
BRANCH  23  24
ATOM     24  N   UNL     1      48.775   6.677  17.886  0.00  0.00    +0.000 N 
ATOM     25  C   UNL     1      48.666   6.972  19.265  0.00  0.00    +0.000 A 
ATOM     26  C   UNL     1      49.670   7.638  19.985  0.00  0.00    +0.000 A 
ATOM     27  C   UNL     1      49.471   8.011  21.313  0.00  0.00    +0.000 A 
ATOM     28  C   UNL     1      48.276   7.688  21.927  0.00  0.00    +0.000 A 
ATOM     29  C   UNL     1      47.351   6.979  21.185  0.00  0.00    +0.000 A 
ATOM     30  N   UNL     1      47.526   6.610  19.891  0.00  0.00    +0.000 NA
BRANCH  24  31
ATOM     31  C   UNL     1      48.819   5.208  17.681  0.00  0.00    +0.000 C 
BRANCH  31  32
ATOM     32  C   UNL     1      47.529   4.639  17.073  0.00  0.00    +0.000 C 
BRANCH  32  33
ATOM     33  O   UNL     1      46.709   3.999  18.050  0.00  0.00    +0.000 OA
ATOM     34  H   UNL     1      46.499   3.121  17.686  0.00  0.00    +0.000 HD
ENDBRANCH  32  33
ENDBRANCH  31  32
ENDBRANCH  24  31
ENDBRANCH  23  24
ENDBRANCH   4  23
TORSDOF 8
ENDMDL
MODEL 7
REMARK VINA RESULT:    -6.270      2.176      2.780
REMARK INTER + INTRA:         -10.157
REMARK INTER:                  -8.829
REMARK INTRA:                  -1.328
REMARK UNBOUND:                -1.138
REMARK  Name = 
REMARK  8 active torsions:
REMARK  status: ('A' for Active; 'I' for Inactive)
REMARK    1  A    between atoms: C_2  and  C_22
REMARK    2  A    between atoms: N_3  and  C_4
REMARK    3  A    between atoms: C_4  and  C_5
REMARK    4  A    between atoms: C_8  and  C_9
REMARK    5  A    between atoms: C_9  and  N_10
REMARK    6  A    between atoms: N_10  and  C_11
REMARK    7  A    between atoms: C_11  and  C_12
REMARK    8  A    between atoms: C_12  and  O_13
REMARK                            x       y       z     vdW  Elec       q    Type
REMARK                         _______ _______ _______ _____ _____    ______ ____
ROOT
ATOM      1  C   UNL     1      47.072   7.936  13.350  0.00  0.00    +0.000 A 
ATOM      2  C   UNL     1      45.920   8.573  12.874  0.00  0.00    +0.000 A 
ATOM      3  C   UNL     1      45.138   7.978  11.883  0.00  0.00    +0.000 A 
ATOM      4  C   UNL     1      45.469   6.713  11.376  0.00  0.00    +0.000 A 
ATOM      5  C   UNL     1      46.677   6.123  11.774  0.00  0.00    +0.000 A 
ATOM      6  C   UNL     1      47.469   6.727  12.759  0.00  0.00    +0.000 A 
ENDROOT
BRANCH   1   7
ATOM      7  C   UNL     1      47.819   8.515  14.528  0.00  0.00    +0.000 C 
BRANCH   7  10
ATOM      8  O   UNL     1      48.305   8.127  17.279  0.00  0.00    +0.000 OA
ATOM      9  C   UNL     1      48.903   7.425  16.469  0.00  0.00    +0.000 C 
ATOM     10  N   UNL     1      48.722   7.549  15.116  0.00  0.00    +0.000 N 
ATOM     11  H   UNL     1      49.103   6.844  14.493  0.00  0.00    +0.000 HD
BRANCH   9  12
ATOM     12  C   UNL     1      49.907   6.441  16.918  0.00  0.00    +0.000 A 
ATOM     13  C   UNL     1      49.511   5.376  17.720  0.00  0.00    +0.000 A 
ATOM     14  S   UNL     1      50.789   4.346  18.181  0.00  0.00    +0.000 S 
ATOM     15  C   UNL     1      51.914   5.255  17.285  0.00  0.00    +0.000 A 
ATOM     16  N   UNL     1      53.222   4.881  17.227  0.00  0.00    +0.000 NA
ATOM     17  C   UNL     1      53.960   5.636  16.480  0.00  0.00    +0.000 A 
ATOM     18  N   UNL     1      53.509   6.741  15.807  0.00  0.00    +0.000 N 
ATOM     19  C   UNL     1      52.215   7.195  15.894  0.00  0.00    +0.000 A 
ATOM     20  O   UNL     1      51.876   8.250  15.368  0.00  0.00    +0.000 OA
ATOM     21  C   UNL     1      51.329   6.351  16.673  0.00  0.00    +0.000 A 
ATOM     22  H   UNL     1      54.146   7.309  15.267  0.00  0.00    +0.000 HD
ENDBRANCH   9  12
ENDBRANCH   7  10
ENDBRANCH   1   7
BRANCH   4  23
ATOM     23  C   UNL     1      44.407   5.911  10.654  0.00  0.00    +0.000 C 
BRANCH  23  24
ATOM     24  N   UNL     1      44.451   4.458  10.825  0.00  0.00    +0.000 N 
ATOM     25  C   UNL     1      44.890   3.747   9.683  0.00  0.00    +0.000 A 
ATOM     26  C   UNL     1      44.891   4.299   8.393  0.00  0.00    +0.000 A 
ATOM     27  C   UNL     1      45.441   3.604   7.317  0.00  0.00    +0.000 A 
ATOM     28  C   UNL     1      45.961   2.342   7.531  0.00  0.00    +0.000 A 
ATOM     29  C   UNL     1      45.876   1.828   8.811  0.00  0.00    +0.000 A 
ATOM     30  N   UNL     1      45.348   2.491   9.870  0.00  0.00    +0.000 NA
BRANCH  24  31
ATOM     31  C   UNL     1      43.237   3.819  11.388  0.00  0.00    +0.000 C 
BRANCH  31  32
ATOM     32  C   UNL     1      43.498   3.066  12.700  0.00  0.00    +0.000 C 
BRANCH  32  33
ATOM     33  O   UNL     1      44.877   2.743  12.871  0.00  0.00    +0.000 OA
ATOM     34  H   UNL     1      45.373   3.503  12.519  0.00  0.00    +0.000 HD
ENDBRANCH  32  33
ENDBRANCH  31  32
ENDBRANCH  24  31
ENDBRANCH  23  24
ENDBRANCH   4  23
TORSDOF 8
ENDMDL
MODEL 8
REMARK VINA RESULT:    -6.116      1.724      2.316
REMARK INTER + INTRA:          -9.935
REMARK INTER:                  -9.005
REMARK INTRA:                  -0.929
REMARK UNBOUND:                -1.138
REMARK  Name = 
REMARK  8 active torsions:
REMARK  status: ('A' for Active; 'I' for Inactive)
REMARK    1  A    between atoms: C_2  and  C_22
REMARK    2  A    between atoms: N_3  and  C_4
REMARK    3  A    between atoms: C_4  and  C_5
REMARK    4  A    between atoms: C_8  and  C_9
REMARK    5  A    between atoms: C_9  and  N_10
REMARK    6  A    between atoms: N_10  and  C_11
REMARK    7  A    between atoms: C_11  and  C_12
REMARK    8  A    between atoms: C_12  and  O_13
REMARK                            x       y       z     vdW  Elec       q    Type
REMARK                         _______ _______ _______ _____ _____    ______ ____
ROOT
ATOM      1  C   UNL     1      48.475   6.218  15.600  0.00  0.00    +0.000 A 
ATOM      2  C   UNL     1      48.787   7.366  14.862  0.00  0.00    +0.000 A 
ATOM      3  C   UNL     1      48.286   7.538  13.572  0.00  0.00    +0.000 A 
ATOM      4  C   UNL     1      47.428   6.584  13.006  0.00  0.00    +0.000 A 
ATOM      5  C   UNL     1      47.200   5.388  13.700  0.00  0.00    +0.000 A 
ATOM      6  C   UNL     1      47.715   5.209  14.990  0.00  0.00    +0.000 A 
ENDROOT
BRANCH   1   7
ATOM      7  C   UNL     1      48.894   6.117  17.048  0.00  0.00    +0.000 C 
BRANCH   7  10
ATOM      8  O   UNL     1      49.710   4.665  19.324  0.00  0.00    +0.000 OA
ATOM      9  C   UNL     1      50.448   4.690  18.343  0.00  0.00    +0.000 C 
ATOM     10  N   UNL     1      50.124   5.370  17.198  0.00  0.00    +0.000 N 
ATOM     11  H   UNL     1      50.676   5.229  16.358  0.00  0.00    +0.000 HD
BRANCH   9  12
ATOM     12  C   UNL     1      51.767   4.029  18.374  0.00  0.00    +0.000 A 
ATOM     13  C   UNL     1      52.866   4.717  18.877  0.00  0.00    +0.000 A 
ATOM     14  S   UNL     1      54.322   3.831  18.816  0.00  0.00    +0.000 S 
ATOM     15  C   UNL     1      53.531   2.475  18.160  0.00  0.00    +0.000 A 
ATOM     16  N   UNL     1      54.218   1.330  17.894  0.00  0.00    +0.000 NA
ATOM     17  C   UNL     1      53.488   0.365  17.436  0.00  0.00    +0.000 A 
ATOM     18  N   UNL     1      52.142   0.454  17.199  0.00  0.00    +0.000 N 
ATOM     19  C   UNL     1      51.423   1.611  17.386  0.00  0.00    +0.000 A 
ATOM     20  O   UNL     1      50.243   1.684  17.058  0.00  0.00    +0.000 OA
ATOM     21  C   UNL     1      52.180   2.708  17.956  0.00  0.00    +0.000 A 
ATOM     22  H   UNL     1      51.637  -0.327  16.807  0.00  0.00    +0.000 HD
ENDBRANCH   9  12
ENDBRANCH   7  10
ENDBRANCH   1   7
BRANCH   4  23
ATOM     23  C   UNL     1      46.566   6.981  11.826  0.00  0.00    +0.000 C 
BRANCH  23  24
ATOM     24  N   UNL     1      45.140   6.665  11.919  0.00  0.00    +0.000 N 
ATOM     25  C   UNL     1      44.762   5.465  11.272  0.00  0.00    +0.000 A 
ATOM     26  C   UNL     1      45.554   4.844  10.294  0.00  0.00    +0.000 A 
ATOM     27  C   UNL     1      45.198   3.602   9.767  0.00  0.00    +0.000 A 
ATOM     28  C   UNL     1      44.032   3.001  10.200  0.00  0.00    +0.000 A 
ATOM     29  C   UNL     1      43.265   3.691  11.120  0.00  0.00    +0.000 A 
ATOM     30  N   UNL     1      43.596   4.897  11.645  0.00  0.00    +0.000 NA
BRANCH  24  31
ATOM     31  C   UNL     1      44.194   7.753  11.568  0.00  0.00    +0.000 C 
BRANCH  31  32
ATOM     32  C   UNL     1      44.848   9.142  11.540  0.00  0.00    +0.000 C 
BRANCH  32  33
ATOM     33  O   UNL     1      44.522   9.915  12.694  0.00  0.00    +0.000 OA
ATOM     34  H   UNL     1      44.818  10.822  12.498  0.00  0.00    +0.000 HD
ENDBRANCH  32  33
ENDBRANCH  31  32
ENDBRANCH  24  31
ENDBRANCH  23  24
ENDBRANCH   4  23
TORSDOF 8
ENDMDL
MODEL 9
REMARK VINA RESULT:    -6.001      3.932      5.976
REMARK INTER + INTRA:          -9.770
REMARK INTER:                  -8.473
REMARK INTRA:                  -1.297
REMARK UNBOUND:                -1.138
REMARK  Name = 
REMARK  8 active torsions:
REMARK  status: ('A' for Active; 'I' for Inactive)
REMARK    1  A    between atoms: C_2  and  C_22
REMARK    2  A    between atoms: N_3  and  C_4
REMARK    3  A    between atoms: C_4  and  C_5
REMARK    4  A    between atoms: C_8  and  C_9
REMARK    5  A    between atoms: C_9  and  N_10
REMARK    6  A    between atoms: N_10  and  C_11
REMARK    7  A    between atoms: C_11  and  C_12
REMARK    8  A    between atoms: C_12  and  O_13
REMARK                            x       y       z     vdW  Elec       q    Type
REMARK                         _______ _______ _______ _____ _____    ______ ____
ROOT
ATOM      1  C   UNL     1      48.372   5.893  16.074  0.00  0.00    +0.000 A 
ATOM      2  C   UNL     1      48.875   6.963  15.325  0.00  0.00    +0.000 A 
ATOM      3  C   UNL     1      48.544   7.105  13.977  0.00  0.00    +0.000 A 
ATOM      4  C   UNL     1      47.667   6.200  13.360  0.00  0.00    +0.000 A 
ATOM      5  C   UNL     1      47.247   5.072  14.078  0.00  0.00    +0.000 A 
ATOM      6  C   UNL     1      47.592   4.923  15.427  0.00  0.00    +0.000 A 
ENDROOT
BRANCH   1   7
ATOM      7  C   UNL     1      48.611   5.840  17.564  0.00  0.00    +0.000 C 
BRANCH   7  10
ATOM      8  O   UNL     1      49.464   6.945  20.016  0.00  0.00    +0.000 OA
ATOM      9  C   UNL     1      48.514   7.460  19.434  0.00  0.00    +0.000 C 
ATOM     10  N   UNL     1      48.039   6.986  18.239  0.00  0.00    +0.000 N 
ATOM     11  H   UNL     1      47.368   7.535  17.713  0.00  0.00    +0.000 HD
BRANCH   9  12
ATOM     12  C   UNL     1      47.786   8.596  20.035  0.00  0.00    +0.000 A 
ATOM     13  C   UNL     1      47.324   8.498  21.343  0.00  0.00    +0.000 A 
ATOM     14  S   UNL     1      46.478   9.877  21.881  0.00  0.00    +0.000 S 
ATOM     15  C   UNL     1      46.741  10.679  20.403  0.00  0.00    +0.000 A 
ATOM     16  N   UNL     1      46.290  11.950  20.211  0.00  0.00    +0.000 NA
ATOM     17  C   UNL     1      46.592  12.454  19.059  0.00  0.00    +0.000 A 
ATOM     18  N   UNL     1      47.281  11.792  18.078  0.00  0.00    +0.000 N 
ATOM     19  C   UNL     1      47.692  10.486  18.202  0.00  0.00    +0.000 A 
ATOM     20  O   UNL     1      48.208   9.892  17.261  0.00  0.00    +0.000 OA
ATOM     21  C   UNL     1      47.432   9.891  19.498  0.00  0.00    +0.000 A 
ATOM     22  H   UNL     1      47.454  12.232  17.186  0.00  0.00    +0.000 HD
ENDBRANCH   9  12
ENDBRANCH   7  10
ENDBRANCH   1   7
BRANCH   4  23
ATOM     23  C   UNL     1      46.987   6.604  12.068  0.00  0.00    +0.000 C 
BRANCH  23  24
ATOM     24  N   UNL     1      45.543   6.834  12.130  0.00  0.00    +0.000 N 
ATOM     25  C   UNL     1      44.756   5.742  11.695  0.00  0.00    +0.000 A 
ATOM     26  C   UNL     1      45.266   4.704  10.899  0.00  0.00    +0.000 A 
ATOM     27  C   UNL     1      44.486   3.590  10.591  0.00  0.00    +0.000 A 
ATOM     28  C   UNL     1      43.186   3.534  11.055  0.00  0.00    +0.000 A 
ATOM     29  C   UNL     1      42.723   4.614  11.783  0.00  0.00    +0.000 A 
ATOM     30  N   UNL     1      43.468   5.704  12.094  0.00  0.00    +0.000 NA
BRANCH  24  31
ATOM     31  C   UNL     1      45.045   8.094  11.527  0.00  0.00    +0.000 C 
BRANCH  31  32
ATOM     32  C   UNL     1      45.389   9.342  12.352  0.00  0.00    +0.000 C 
BRANCH  32  33
ATOM     33  O   UNL     1      44.258  10.191  12.542  0.00  0.00    +0.000 OA
ATOM     34  H   UNL     1      43.554   9.827  11.976  0.00  0.00    +0.000 HD
ENDBRANCH  32  33
ENDBRANCH  31  32
ENDBRANCH  24  31
ENDBRANCH  23  24
ENDBRANCH   4  23
TORSDOF 8
ENDMDL
