MODEL 1
REMARK VINA RESULT:    -7.160      0.000      0.000
REMARK INTER + INTRA:          -9.337
REMARK INTER:                  -8.834
REMARK INTRA:                  -0.504
REMARK UNBOUND:                -0.504
REMARK  Name = 
REMARK  4 active torsions:
REMARK  status: ('A' for Active; 'I' for Inactive)
REMARK    1  A    between atoms: C_4  and  O_5
REMARK    2  A    between atoms: O_5  and  C_6
REMARK    3  A    between atoms: C_10  and  C_11
REMARK    4  A    between atoms: C_11  and  C_12
REMARK                            x       y       z     vdW  Elec       q    Type
REMARK                         _______ _______ _______ _____ _____    ______ ____
ROOT
ATOM      1  C   UNL     1      44.228   4.796  10.611  0.00  0.00    +0.000 A 
ATOM      2  C   UNL     1      43.626   4.071  11.638  0.00  0.00    +0.000 A 
ATOM      3  C   UNL     1      44.000   4.301  12.955  0.00  0.00    +0.000 A 
ATOM      4  C   UNL     1      44.977   5.258  13.247  0.00  0.00    +0.000 A 
ATOM      5  C   UNL     1      45.580   6.020  12.229  0.00  0.00    +0.000 A 
ATOM      6  C   UNL     1      45.139   5.807  10.912  0.00  0.00    +0.000 A 
ENDROOT
BRANCH   5   7
ATOM      7  C   UNL     1      46.762   6.968  12.507  0.00  0.00    +0.000 C 
ATOM      8  C   UNL     1      47.834   6.993  11.416  0.00  0.00    +0.000 C 
ATOM      9  C   UNL     1      48.113   6.273  12.695  0.00  0.00    +0.000 C 
BRANCH   7  10
ATOM     10  C   UNL     1      46.411   8.217  13.347  0.00  0.00    +0.000 C 
ATOM     11  C   UNL     1      45.145   8.936  12.844  0.00  0.00    +0.000 C 
ATOM     12  C   UNL     1      45.432   9.905  11.700  0.00  0.00    +0.000 C 
ATOM     13  N   UNL     1      46.418  10.915  12.089  0.00  0.00    +0.000 NA
ATOM     14  C   UNL     1      47.685  10.288  12.463  0.00  0.00    +0.000 C 
ATOM     15  C   UNL     1      47.521   9.262  13.584  0.00  0.00    +0.000 C 
ATOM     16  H   UNL     1      46.059  11.435  12.889  0.00  0.00    +0.000 HD
ENDBRANCH   7  10
ENDBRANCH   5   7
BRANCH   1  17
ATOM     17  O   UNL     1      43.979   4.548   9.284  0.00  0.00    +0.000 OA
BRANCH  17  21
ATOM     18  C   UNL     1      46.866   2.200   7.520  0.00  0.00    +0.000 A 
ATOM     19  C   UNL     1      45.935   1.625   8.380  0.00  0.00    +0.000 A 
ATOM     20  C   UNL     1      44.935   2.417   8.937  0.00  0.00    +0.000 A 
ATOM     21  C   UNL     1      44.921   3.764   8.621  0.00  0.00    +0.000 A 
ATOM     22  N   UNL     1      45.783   4.335   7.744  0.00  0.00    +0.000 NA
ATOM     23  C   UNL     1      46.740   3.544   7.221  0.00  0.00    +0.000 A 
ENDBRANCH  17  21
ENDBRANCH   1  17
TORSDOF 4
ENDMDL
MODEL 2
REMARK VINA RESULT:    -6.907      1.391      2.264
REMARK INTER + INTRA:          -9.026
REMARK INTER:                  -8.997
REMARK INTRA:                  -0.029
REMARK UNBOUND:                -0.504
REMARK  Name = 
REMARK  4 active torsions:
REMARK  status: ('A' for Active; 'I' for Inactive)
REMARK    1  A    between atoms: C_4  and  O_5
REMARK    2  A    between atoms: O_5  and  C_6
REMARK    3  A    between atoms: C_10  and  C_11
REMARK    4  A    between atoms: C_11  and  C_12
REMARK                            x       y       z     vdW  Elec       q    Type
REMARK                         _______ _______ _______ _____ _____    ______ ____
ROOT
ATOM      1  C   UNL     1      44.769   4.505  10.880  0.00  0.00    +0.000 A 
ATOM      2  C   UNL     1      44.908   3.620  11.948  0.00  0.00    +0.000 A 
ATOM      3  C   UNL     1      45.539   4.038  13.113  0.00  0.00    +0.000 A 
ATOM      4  C   UNL     1      46.031   5.343  13.210  0.00  0.00    +0.000 A 
ATOM      5  C   UNL     1      45.878   6.262  12.155  0.00  0.00    +0.000 A 
ATOM      6  C   UNL     1      45.184   5.829  11.013  0.00  0.00    +0.000 A 
ENDROOT
BRANCH   5   7
ATOM      7  C   UNL     1      46.542   7.651  12.178  0.00  0.00    +0.000 C 
ATOM      8  C   UNL     1      46.025   8.591  13.268  0.00  0.00    +0.000 C 
ATOM      9  C   UNL     1      45.605   8.817  11.852  0.00  0.00    +0.000 C 
BRANCH   7  10
ATOM     10  C   UNL     1      48.010   7.681  11.693  0.00  0.00    +0.000 C 
ATOM     11  C   UNL     1      48.918   6.725  12.490  0.00  0.00    +0.000 C 
ATOM     12  C   UNL     1      49.435   7.345  13.785  0.00  0.00    +0.000 C 
ATOM     13  N   UNL     1      50.172   8.583  13.528  0.00  0.00    +0.000 NA
ATOM     14  C   UNL     1      49.316   9.573  12.878  0.00  0.00    +0.000 C 
ATOM     15  C   UNL     1      48.704   9.053  11.578  0.00  0.00    +0.000 C 
ATOM     16  H   UNL     1      50.961   8.376  12.915  0.00  0.00    +0.000 HD
ENDBRANCH   7  10
ENDBRANCH   5   7
BRANCH   1  17
ATOM     17  O   UNL     1      44.248   4.127   9.668  0.00  0.00    +0.000 OA
BRANCH  17  21
ATOM     18  C   UNL     1      47.008   2.286   7.226  0.00  0.00    +0.000 A 
ATOM     19  C   UNL     1      46.249   1.526   8.111  0.00  0.00    +0.000 A 
ATOM     20  C   UNL     1      45.287   2.149   8.901  0.00  0.00    +0.000 A 
ATOM     21  C   UNL     1      45.137   3.520   8.783  0.00  0.00    +0.000 A 
ATOM     22  N   UNL     1      45.826   4.272   7.890  0.00  0.00    +0.000 NA
ATOM     23  C   UNL     1      46.750   3.643   7.139  0.00  0.00    +0.000 A 
ENDBRANCH  17  21
ENDBRANCH   1  17
TORSDOF 4
ENDMDL
MODEL 3
REMARK VINA RESULT:    -6.443      1.534      2.391
REMARK INTER + INTRA:          -8.453
REMARK INTER:                  -8.711
REMARK INTRA:                   0.258
REMARK UNBOUND:                -0.504
REMARK  Name = 
REMARK  4 active torsions:
REMARK  status: ('A' for Active; 'I' for Inactive)
REMARK    1  A    between atoms: C_4  and  O_5
REMARK    2  A    between atoms: O_5  and  C_6
REMARK    3  A    between atoms: C_10  and  C_11
REMARK    4  A    between atoms: C_11  and  C_12
REMARK                            x       y       z     vdW  Elec       q    Type
REMARK                         _______ _______ _______ _____ _____    ______ ____
ROOT
ATOM      1  C   UNL     1      44.090   4.171  10.781  0.00  0.00    +0.000 A 
ATOM      2  C   UNL     1      43.106   5.121  11.050  0.00  0.00    +0.000 A 
ATOM      3  C   UNL     1      43.334   6.098  12.010  0.00  0.00    +0.000 A 
ATOM      4  C   UNL     1      44.548   6.127  12.701  0.00  0.00    +0.000 A 
ATOM      5  C   UNL     1      45.567   5.195  12.428  0.00  0.00    +0.000 A 
ATOM      6  C   UNL     1      45.331   4.255  11.411  0.00  0.00    +0.000 A 
ENDROOT
BRANCH   5   7
ATOM      7  C   UNL     1      46.848   5.111  13.278  0.00  0.00    +0.000 C 
ATOM      8  C   UNL     1      47.157   3.722  13.839  0.00  0.00    +0.000 C 
ATOM      9  C   UNL     1      46.621   4.775  14.754  0.00  0.00    +0.000 C 
BRANCH   7  10
ATOM     10  C   UNL     1      47.964   6.103  12.875  0.00  0.00    +0.000 C 
ATOM     11  C   UNL     1      48.509   6.904  14.073  0.00  0.00    +0.000 C 
ATOM     12  C   UNL     1      47.665   8.134  14.394  0.00  0.00    +0.000 C 
ATOM     13  N   UNL     1      47.566   9.030  13.241  0.00  0.00    +0.000 NA
ATOM     14  C   UNL     1      46.941   8.352  12.107  0.00  0.00    +0.000 C 
ATOM     15  C   UNL     1      47.680   7.074  11.710  0.00  0.00    +0.000 C 
ATOM     16  H   UNL     1      48.504   9.325  12.971  0.00  0.00    +0.000 HD
ENDBRANCH   7  10
ENDBRANCH   5   7
BRANCH   1  17
ATOM     17  O   UNL     1      43.891   3.122   9.919  0.00  0.00    +0.000 OA
BRANCH  17  21
ATOM     18  C   UNL     1      46.773   2.407   7.065  0.00  0.00    +0.000 A 
ATOM     19  C   UNL     1      46.193   3.667   7.163  0.00  0.00    +0.000 A 
ATOM     20  C   UNL     1      45.252   3.914   8.159  0.00  0.00    +0.000 A 
ATOM     21  C   UNL     1      44.918   2.874   9.009  0.00  0.00    +0.000 A 
ATOM     22  N   UNL     1      45.509   1.656   8.967  0.00  0.00    +0.000 NA
ATOM     23  C   UNL     1      46.415   1.445   7.993  0.00  0.00    +0.000 A 
ENDBRANCH  17  21
ENDBRANCH   1  17
TORSDOF 4
ENDMDL
MODEL 4
REMARK VINA RESULT:    -6.257      1.801      2.611
REMARK INTER + INTRA:          -8.224
REMARK INTER:                  -8.181
REMARK INTRA:                  -0.043
REMARK UNBOUND:                -0.504
REMARK  Name = 
REMARK  4 active torsions:
REMARK  status: ('A' for Active; 'I' for Inactive)
REMARK    1  A    between atoms: C_4  and  O_5
REMARK    2  A    between atoms: O_5  and  C_6
REMARK    3  A    between atoms: C_10  and  C_11
REMARK    4  A    between atoms: C_11  and  C_12
REMARK                            x       y       z     vdW  Elec       q    Type
REMARK                         _______ _______ _______ _____ _____    ______ ____
ROOT
ATOM      1  C   UNL     1      45.408   5.143  11.610  0.00  0.00    +0.000 A 
ATOM      2  C   UNL     1      45.565   4.064  12.479  0.00  0.00    +0.000 A 
ATOM      3  C   UNL     1      46.430   4.170  13.561  0.00  0.00    +0.000 A 
ATOM      4  C   UNL     1      47.140   5.355  13.774  0.00  0.00    +0.000 A 
ATOM      5  C   UNL     1      46.978   6.466  12.925  0.00  0.00    +0.000 A 
ATOM      6  C   UNL     1      46.052   6.351  11.874  0.00  0.00    +0.000 A 
ENDROOT
BRANCH   5   7
ATOM      7  C   UNL     1      47.857   7.724  13.048  0.00  0.00    +0.000 C 
ATOM      8  C   UNL     1      48.559   7.887  14.397  0.00  0.00    +0.000 C 
ATOM      9  C   UNL     1      47.377   8.746  14.083  0.00  0.00    +0.000 C 
BRANCH   7  10
ATOM     10  C   UNL     1      48.495   8.206  11.724  0.00  0.00    +0.000 C 
ATOM     11  C   UNL     1      49.876   7.574  11.465  0.00  0.00    +0.000 C 
ATOM     12  C   UNL     1      51.007   8.319  12.169  0.00  0.00    +0.000 C 
ATOM     13  N   UNL     1      51.054   9.725  11.764  0.00  0.00    +0.000 NA
ATOM     14  C   UNL     1      49.805  10.405  12.099  0.00  0.00    +0.000 C 
ATOM     15  C   UNL     1      48.585   9.726  11.478  0.00  0.00    +0.000 C 
ATOM     16  H   UNL     1      51.195   9.773  10.755  0.00  0.00    +0.000 HD
ENDBRANCH   7  10
ENDBRANCH   5   7
BRANCH   1  17
ATOM     17  O   UNL     1      44.649   5.071  10.469  0.00  0.00    +0.000 OA
BRANCH  17  21
ATOM     18  C   UNL     1      46.267   2.581   7.614  0.00  0.00    +0.000 A 
ATOM     19  C   UNL     1      45.483   2.050   8.633  0.00  0.00    +0.000 A 
ATOM     20  C   UNL     1      44.902   2.902   9.569  0.00  0.00    +0.000 A 
ATOM     21  C   UNL     1      45.149   4.259   9.452  0.00  0.00    +0.000 A 
ATOM     22  N   UNL     1      45.864   4.804   8.438  0.00  0.00    +0.000 NA
ATOM     23  C   UNL     1      46.414   3.955   7.548  0.00  0.00    +0.000 A 
ENDBRANCH  17  21
ENDBRANCH   1  17
TORSDOF 4
ENDMDL
MODEL 5
REMARK VINA RESULT:    -6.147      3.841      6.923
REMARK INTER + INTRA:          -8.088
REMARK INTER:                  -8.037
REMARK INTRA:                  -0.051
REMARK UNBOUND:                -0.504
REMARK  Name = 
REMARK  4 active torsions:
REMARK  status: ('A' for Active; 'I' for Inactive)
REMARK    1  A    between atoms: C_4  and  O_5
REMARK    2  A    between atoms: O_5  and  C_6
REMARK    3  A    between atoms: C_10  and  C_11
REMARK    4  A    between atoms: C_11  and  C_12
REMARK                            x       y       z     vdW  Elec       q    Type
REMARK                         _______ _______ _______ _____ _____    ______ ____
ROOT
ATOM      1  C   UNL     1      48.490   6.838  14.782  0.00  0.00    +0.000 A 
ATOM      2  C   UNL     1      49.583   7.239  14.015  0.00  0.00    +0.000 A 
ATOM      3  C   UNL     1      49.460   7.334  12.635  0.00  0.00    +0.000 A 
ATOM      4  C   UNL     1      48.242   7.028  12.021  0.00  0.00    +0.000 A 
ATOM      5  C   UNL     1      47.118   6.646  12.777  0.00  0.00    +0.000 A 
ATOM      6  C   UNL     1      47.256   6.616  14.174  0.00  0.00    +0.000 A 
ENDROOT
BRANCH   5   7
ATOM      7  C   UNL     1      45.815   6.158  12.116  0.00  0.00    +0.000 C 
ATOM      8  C   UNL     1      45.835   6.152  10.586  0.00  0.00    +0.000 C 
ATOM      9  C   UNL     1      45.071   7.219  11.300  0.00  0.00    +0.000 C 
BRANCH   7  10
ATOM     10  C   UNL     1      45.020   5.114  12.934  0.00  0.00    +0.000 C 
ATOM     11  C   UNL     1      45.361   3.665  12.538  0.00  0.00    +0.000 C 
ATOM     12  C   UNL     1      44.566   3.181  11.329  0.00  0.00    +0.000 C 
ATOM     13  N   UNL     1      43.124   3.273  11.566  0.00  0.00    +0.000 NA
ATOM     14  C   UNL     1      42.727   4.655  11.828  0.00  0.00    +0.000 C 
ATOM     15  C   UNL     1      43.488   5.268  13.004  0.00  0.00    +0.000 C 
ATOM     16  H   UNL     1      42.886   2.702  12.377  0.00  0.00    +0.000 HD
ENDBRANCH   7  10
ENDBRANCH   5   7
BRANCH   1  17
ATOM     17  O   UNL     1      48.573   6.627  16.135  0.00  0.00    +0.000 OA
BRANCH  17  21
ATOM     18  C   UNL     1      49.109   2.777  17.498  0.00  0.00    +0.000 A 
ATOM     19  C   UNL     1      47.868   3.173  17.010  0.00  0.00    +0.000 A 
ATOM     20  C   UNL     1      47.706   4.461  16.509  0.00  0.00    +0.000 A 
ATOM     21  C   UNL     1      48.799   5.311  16.536  0.00  0.00    +0.000 A 
ATOM     22  N   UNL     1      50.030   4.930  16.957  0.00  0.00    +0.000 NA
ATOM     23  C   UNL     1      50.156   3.678  17.435  0.00  0.00    +0.000 A 
ENDBRANCH  17  21
ENDBRANCH   1  17
TORSDOF 4
ENDMDL
MODEL 6
REMARK VINA RESULT:    -5.789      4.048      5.739
REMARK INTER + INTRA:          -7.646
REMARK INTER:                  -7.105
REMARK INTRA:                  -0.541
REMARK UNBOUND:                -0.504
REMARK  Name = 
REMARK  4 active torsions:
REMARK  status: ('A' for Active; 'I' for Inactive)
REMARK    1  A    between atoms: C_4  and  O_5
REMARK    2  A    between atoms: O_5  and  C_6
REMARK    3  A    between atoms: C_10  and  C_11
REMARK    4  A    between atoms: C_11  and  C_12
REMARK                            x       y       z     vdW  Elec       q    Type
REMARK                         _______ _______ _______ _____ _____    ______ ____
ROOT
ATOM      1  C   UNL     1      46.837   4.354  13.715  0.00  0.00    +0.000 A 
ATOM      2  C   UNL     1      45.507   4.683  13.458  0.00  0.00    +0.000 A 
ATOM      3  C   UNL     1      45.189   5.948  12.983  0.00  0.00    +0.000 A 
ATOM      4  C   UNL     1      46.202   6.886  12.763  0.00  0.00    +0.000 A 
ATOM      5  C   UNL     1      47.554   6.568  12.990  0.00  0.00    +0.000 A 
ATOM      6  C   UNL     1      47.851   5.262  13.414  0.00  0.00    +0.000 A 
ENDROOT
BRANCH   5   7
ATOM      7  C   UNL     1      48.669   7.626  12.901  0.00  0.00    +0.000 C 
ATOM      8  C   UNL     1      48.329   8.847  12.045  0.00  0.00    +0.000 C 
ATOM      9  C   UNL     1      49.266   7.816  11.504  0.00  0.00    +0.000 C 
BRANCH   7  10
ATOM     10  C   UNL     1      49.577   7.723  14.149  0.00  0.00    +0.000 C 
ATOM     11  C   UNL     1      48.775   7.766  15.465  0.00  0.00    +0.000 C 
ATOM     12  C   UNL     1      48.300   9.172  15.820  0.00  0.00    +0.000 C 
ATOM     13  N   UNL     1      49.424  10.105  15.928  0.00  0.00    +0.000 NA
ATOM     14  C   UNL     1      50.149  10.193  14.662  0.00  0.00    +0.000 C 
ATOM     15  C   UNL     1      50.648   8.832  14.178  0.00  0.00    +0.000 C 
ATOM     16  H   UNL     1      50.061   9.771  16.651  0.00  0.00    +0.000 HD
ENDBRANCH   7  10
ENDBRANCH   5   7
BRANCH   1  17
ATOM     17  O   UNL     1      47.209   3.160  14.280  0.00  0.00    +0.000 OA
BRANCH  17  21
ATOM     18  C   UNL     1      48.852   3.575  18.034  0.00  0.00    +0.000 A 
ATOM     19  C   UNL     1      47.746   4.337  17.673  0.00  0.00    +0.000 A 
ATOM     20  C   UNL     1      47.168   4.159  16.419  0.00  0.00    +0.000 A 
ATOM     21  C   UNL     1      47.740   3.231  15.567  0.00  0.00    +0.000 A 
ATOM     22  N   UNL     1      48.783   2.439  15.916  0.00  0.00    +0.000 NA
ATOM     23  C   UNL     1      49.321   2.634  17.135  0.00  0.00    +0.000 A 
ENDBRANCH  17  21
ENDBRANCH   1  17
TORSDOF 4
ENDMDL
MODEL 7
REMARK VINA RESULT:    -5.691      4.881      6.441
REMARK INTER + INTRA:          -7.526
REMARK INTER:                  -7.350
REMARK INTRA:                  -0.176
REMARK UNBOUND:                -0.504
REMARK  Name = 
REMARK  4 active torsions:
REMARK  status: ('A' for Active; 'I' for Inactive)
REMARK    1  A    between atoms: C_4  and  O_5
REMARK    2  A    between atoms: O_5  and  C_6
REMARK    3  A    between atoms: C_10  and  C_11
REMARK    4  A    between atoms: C_11  and  C_12
REMARK                            x       y       z     vdW  Elec       q    Type
REMARK                         _______ _______ _______ _____ _____    ______ ____
ROOT
ATOM      1  C   UNL     1      46.923   4.460  13.809  0.00  0.00    +0.000 A 
ATOM      2  C   UNL     1      47.297   5.610  13.116  0.00  0.00    +0.000 A 
ATOM      3  C   UNL     1      48.038   6.593  13.760  0.00  0.00    +0.000 A 
ATOM      4  C   UNL     1      48.407   6.424  15.098  0.00  0.00    +0.000 A 
ATOM      5  C   UNL     1      48.063   5.260  15.809  0.00  0.00    +0.000 A 
ATOM      6  C   UNL     1      47.364   4.258  15.116  0.00  0.00    +0.000 A 
ENDROOT
BRANCH   5   7
ATOM      7  C   UNL     1      48.325   5.118  17.320  0.00  0.00    +0.000 C 
ATOM      8  C   UNL     1      47.750   3.850  17.954  0.00  0.00    +0.000 C 
ATOM      9  C   UNL     1      47.070   5.158  18.197  0.00  0.00    +0.000 C 
BRANCH   7  10
ATOM     10  C   UNL     1      49.637   5.766  17.819  0.00  0.00    +0.000 C 
ATOM     11  C   UNL     1      50.891   5.003  17.352  0.00  0.00    +0.000 C 
ATOM     12  C   UNL     1      51.240   3.828  18.262  0.00  0.00    +0.000 C 
ATOM     13  N   UNL     1      51.446   4.264  19.644  0.00  0.00    +0.000 NA
ATOM     14  C   UNL     1      50.239   4.891  20.178  0.00  0.00    +0.000 C 
ATOM     15  C   UNL     1      49.765   6.068  19.325  0.00  0.00    +0.000 C 
ATOM     16  H   UNL     1      52.207   4.944  19.664  0.00  0.00    +0.000 HD
ENDBRANCH   7  10
ENDBRANCH   5   7
BRANCH   1  17
ATOM     17  O   UNL     1      46.107   3.500  13.265  0.00  0.00    +0.000 OA
BRANCH  17  21
ATOM     18  C   UNL     1      42.711   5.017  11.494  0.00  0.00    +0.000 A 
ATOM     19  C   UNL     1      43.692   4.416  10.711  0.00  0.00    +0.000 A 
ATOM     20  C   UNL     1      44.815   3.866  11.321  0.00  0.00    +0.000 A 
ATOM     21  C   UNL     1      44.918   3.958  12.698  0.00  0.00    +0.000 A 
ATOM     22  N   UNL     1      43.951   4.489  13.486  0.00  0.00    +0.000 NA
ATOM     23  C   UNL     1      42.875   5.014  12.868  0.00  0.00    +0.000 A 
ENDBRANCH  17  21
ENDBRANCH   1  17
TORSDOF 4
ENDMDL
MODEL 8
REMARK VINA RESULT:    -5.556      3.739      7.301
REMARK INTER + INTRA:          -7.359
REMARK INTER:                  -7.687
REMARK INTRA:                   0.328
REMARK UNBOUND:                -0.504
REMARK  Name = 
REMARK  4 active torsions:
REMARK  status: ('A' for Active; 'I' for Inactive)
REMARK    1  A    between atoms: C_4  and  O_5
REMARK    2  A    between atoms: O_5  and  C_6
REMARK    3  A    between atoms: C_10  and  C_11
REMARK    4  A    between atoms: C_11  and  C_12
REMARK                            x       y       z     vdW  Elec       q    Type
REMARK                         _______ _______ _______ _____ _____    ______ ____
ROOT
ATOM      1  C   UNL     1      49.246   7.089  13.909  0.00  0.00    +0.000 A 
ATOM      2  C   UNL     1      49.507   7.978  12.867  0.00  0.00    +0.000 A 
ATOM      3  C   UNL     1      48.672   8.005  11.758  0.00  0.00    +0.000 A 
ATOM      4  C   UNL     1      47.573   7.143  11.690  0.00  0.00    +0.000 A 
ATOM      5  C   UNL     1      47.275   6.256  12.742  0.00  0.00    +0.000 A 
ATOM      6  C   UNL     1      48.103   6.292  13.876  0.00  0.00    +0.000 A 
ENDROOT
BRANCH   5   7
ATOM      7  C   UNL     1      46.165   5.195  12.626  0.00  0.00    +0.000 C 
ATOM      8  C   UNL     1      45.667   4.639  13.961  0.00  0.00    +0.000 C 
ATOM      9  C   UNL     1      46.559   3.796  13.108  0.00  0.00    +0.000 C 
BRANCH   7  10
ATOM     10  C   UNL     1      45.233   5.356  11.402  0.00  0.00    +0.000 C 
ATOM     11  C   UNL     1      43.945   6.133  11.735  0.00  0.00    +0.000 C 
ATOM     12  C   UNL     1      42.855   5.243  12.326  0.00  0.00    +0.000 C 
ATOM     13  N   UNL     1      42.516   4.142  11.422  0.00  0.00    +0.000 NA
ATOM     14  C   UNL     1      43.682   3.299  11.168  0.00  0.00    +0.000 C 
ATOM     15  C   UNL     1      44.863   4.089  10.605  0.00  0.00    +0.000 C 
ATOM     16  H   UNL     1      42.191   4.531  10.537  0.00  0.00    +0.000 HD
ENDBRANCH   7  10
ENDBRANCH   5   7
BRANCH   1  17
ATOM     17  O   UNL     1      50.085   6.941  14.984  0.00  0.00    +0.000 OA
BRANCH  17  21
ATOM     18  C   UNL     1      48.451   6.028  18.653  0.00  0.00    +0.000 A 
ATOM     19  C   UNL     1      48.364   7.325  18.159  0.00  0.00    +0.000 A 
ATOM     20  C   UNL     1      48.879   7.616  16.899  0.00  0.00    +0.000 A 
ATOM     21  C   UNL     1      49.480   6.591  16.190  0.00  0.00    +0.000 A 
ATOM     22  N   UNL     1      49.528   5.309  16.627  0.00  0.00    +0.000 NA
ATOM     23  C   UNL     1      49.022   5.057  17.850  0.00  0.00    +0.000 A 
ENDBRANCH  17  21
ENDBRANCH   1  17
TORSDOF 4
ENDMDL
MODEL 9
REMARK VINA RESULT:    -5.466      2.181      3.065
REMARK INTER + INTRA:          -7.248
REMARK INTER:                  -7.150
REMARK INTRA:                  -0.097
REMARK UNBOUND:                -0.504
REMARK  Name = 
REMARK  4 active torsions:
REMARK  status: ('A' for Active; 'I' for Inactive)
REMARK    1  A    between atoms: C_4  and  O_5
REMARK    2  A    between atoms: O_5  and  C_6
REMARK    3  A    between atoms: C_10  and  C_11
REMARK    4  A    between atoms: C_11  and  C_12
REMARK                            x       y       z     vdW  Elec       q    Type
REMARK                         _______ _______ _______ _____ _____    ______ ____
ROOT
ATOM      1  C   UNL     1      45.599   5.576  12.463  0.00  0.00    +0.000 A 
ATOM      2  C   UNL     1      45.698   4.632  13.484  0.00  0.00    +0.000 A 
ATOM      3  C   UNL     1      46.768   4.681  14.367  0.00  0.00    +0.000 A 
ATOM      4  C   UNL     1      47.742   5.675  14.230  0.00  0.00    +0.000 A 
ATOM      5  C   UNL     1      47.649   6.654  13.223  0.00  0.00    +0.000 A 
ATOM      6  C   UNL     1      46.525   6.615  12.382  0.00  0.00    +0.000 A 
ENDROOT
BRANCH   5   7
ATOM      7  C   UNL     1      48.782   7.663  12.957  0.00  0.00    +0.000 C 
ATOM      8  C   UNL     1      48.533   8.612  11.783  0.00  0.00    +0.000 C 
ATOM      9  C   UNL     1      49.501   7.485  11.617  0.00  0.00    +0.000 C 
BRANCH   7  10
ATOM     10  C   UNL     1      49.578   8.094  14.210  0.00  0.00    +0.000 C 
ATOM     11  C   UNL     1      48.827   9.134  15.063  0.00  0.00    +0.000 C 
ATOM     12  C   UNL     1      49.026  10.563  14.563  0.00  0.00    +0.000 C 
ATOM     13  N   UNL     1      50.445  10.924  14.530  0.00  0.00    +0.000 NA
ATOM     14  C   UNL     1      51.186  10.037  13.635  0.00  0.00    +0.000 C 
ATOM     15  C   UNL     1      51.034   8.564  14.013  0.00  0.00    +0.000 C 
ATOM     16  H   UNL     1      50.829  10.839  15.471  0.00  0.00    +0.000 HD
ENDBRANCH   7  10
ENDBRANCH   5   7
BRANCH   1  17
ATOM     17  O   UNL     1      44.625   5.524  11.498  0.00  0.00    +0.000 OA
BRANCH  17  21
ATOM     18  C   UNL     1      45.102   2.936   8.329  0.00  0.00    +0.000 A 
ATOM     19  C   UNL     1      45.671   4.205   8.280  0.00  0.00    +0.000 A 
ATOM     20  C   UNL     1      45.544   5.057   9.373  0.00  0.00    +0.000 A 
ATOM     21  C   UNL     1      44.831   4.606  10.470  0.00  0.00    +0.000 A 
ATOM     22  N   UNL     1      44.314   3.356  10.562  0.00  0.00    +0.000 NA
ATOM     23  C   UNL     1      44.452   2.553   9.489  0.00  0.00    +0.000 A 
ENDBRANCH  17  21
ENDBRANCH   1  17
TORSDOF 4
ENDMDL
