MODEL 1
REMARK VINA RESULT:    -8.243      0.000      0.000
REMARK INTER + INTRA:         -12.974
REMARK INTER:                 -11.857
REMARK INTRA:                  -1.117
REMARK UNBOUND:                -1.117
REMARK  Name = 
REMARK  9 active torsions:
REMARK  status: ('A' for Active; 'I' for Inactive)
REMARK    1  A    between atoms: C_1  and  N_2
REMARK    2  A    between atoms: C_4  and  C_5
REMARK    3  A    between atoms: N_7  and  C_8
REMARK    4  A    between atoms: C_8  and  C_9
REMARK    5  A    between atoms: C_12  and  C_13
REMARK    6  A    between atoms: C_13  and  N_14
REMARK    7  A    between atoms: N_14  and  C_15
REMARK    8  A    between atoms: C_15  and  C_16
REMARK    9  A    between atoms: C_25  and  O_26
REMARK                            x       y       z     vdW  Elec       q    Type
REMARK                         _______ _______ _______ _____ _____    ______ ____
ROOT
ATOM      1  C   UNL     1      46.903   8.023  13.151  0.00  0.00    +0.000 C 
ENDROOT
BRANCH   1   2
ATOM      2  C   UNL     1      46.104   6.994  12.401  0.00  0.00    +0.000 A 
ATOM      3  C   UNL     1      46.505   6.582  11.125  0.00  0.00    +0.000 A 
ATOM      4  C   UNL     1      45.765   5.626  10.426  0.00  0.00    +0.000 A 
ATOM      5  C   UNL     1      44.617   5.051  10.993  0.00  0.00    +0.000 A 
ATOM      6  C   UNL     1      44.195   5.500  12.251  0.00  0.00    +0.000 A 
ATOM      7  C   UNL     1      44.930   6.463  12.948  0.00  0.00    +0.000 A 
BRANCH   5   8
ATOM      8  C   UNL     1      43.803   4.004  10.263  0.00  0.00    +0.000 C 
BRANCH   8   9
ATOM      9  N   UNL     1      44.339   2.664  10.477  0.00  0.00    +0.000 NA
ATOM     10  H   UNL     1      43.754   2.176  11.152  0.00  0.00    +0.000 HD
BRANCH   9  11
ATOM     11  C   UNL     1      44.420   1.893   9.236  0.00  0.00    +0.000 C 
BRANCH  11  12
ATOM     12  C   UNL     1      45.741   2.214   8.491  0.00  0.00    +0.000 C 
ATOM     13  C   UNL     1      45.505   3.247   7.373  0.00  0.00    +0.000 C 
ATOM     14  C   UNL     1      46.796   3.551   6.622  0.00  0.00    +0.000 C 
ATOM     15  C   UNL     1      47.445   2.262   6.137  0.00  0.00    +0.000 C 
ATOM     16  C   UNL     1      47.611   1.262   7.277  0.00  0.00    +0.000 C 
ATOM     17  N   UNL     1      46.334   0.983   7.939  0.00  0.00    +0.000 NA
ATOM     18  H   UNL     1      46.490   0.313   8.692  0.00  0.00    +0.000 HD
ENDBRANCH  11  12
ENDBRANCH   9  11
ENDBRANCH   8   9
ENDBRANCH   5   8
ENDBRANCH   1   2
BRANCH   1  21
ATOM     19  C   UNL     1      48.501   6.723  14.469  0.00  0.00    +0.000 C 
ATOM     20  O   UNL     1      49.160   6.430  13.476  0.00  0.00    +0.000 OA
ATOM     21  N   UNL     1      47.371   7.500  14.409  0.00  0.00    +0.000 N 
ATOM     22  H   UNL     1      46.862   7.736  15.246  0.00  0.00    +0.000 HD
BRANCH  19  26
ATOM     23  C   UNL     1      50.749   6.254  18.917  0.00  0.00    +0.000 C 
ATOM     24  N   UNL     1      49.879   6.030  17.787  0.00  0.00    +0.000 N 
ATOM     25  C   UNL     1      49.858   6.776  16.636  0.00  0.00    +0.000 A 
ATOM     26  C   UNL     1      48.885   6.252  15.794  0.00  0.00    +0.000 A 
ATOM     27  C   UNL     1      48.303   5.135  16.487  0.00  0.00    +0.000 A 
ATOM     28  C   UNL     1      47.310   4.180  16.247  0.00  0.00    +0.000 A 
ATOM     29  N   UNL     1      47.025   3.245  17.171  0.00  0.00    +0.000 NA
ATOM     30  C   UNL     1      47.728   3.269  18.316  0.00  0.00    +0.000 A 
ATOM     31  N   UNL     1      48.704   4.123  18.674  0.00  0.00    +0.000 NA
ATOM     32  C   UNL     1      48.945   5.032  17.715  0.00  0.00    +0.000 A 
BRANCH  28  33
ATOM     33  O   UNL     1      46.563   4.110  15.097  0.00  0.00    +0.000 OA
ATOM     34  H   UNL     1      45.670   3.793  15.342  0.00  0.00    +0.000 HD
ENDBRANCH  28  33
ENDBRANCH  19  26
ENDBRANCH   1  21
TORSDOF 8
ENDMDL
MODEL 2
REMARK VINA RESULT:    -7.657      2.098      2.648
REMARK INTER + INTRA:         -12.131
REMARK INTER:                 -11.000
REMARK INTRA:                  -1.131
REMARK UNBOUND:                -1.117
REMARK  Name = 
REMARK  9 active torsions:
REMARK  status: ('A' for Active; 'I' for Inactive)
REMARK    1  A    between atoms: C_1  and  N_2
REMARK    2  A    between atoms: C_4  and  C_5
REMARK    3  A    between atoms: N_7  and  C_8
REMARK    4  A    between atoms: C_8  and  C_9
REMARK    5  A    between atoms: C_12  and  C_13
REMARK    6  A    between atoms: C_13  and  N_14
REMARK    7  A    between atoms: N_14  and  C_15
REMARK    8  A    between atoms: C_15  and  C_16
REMARK    9  A    between atoms: C_25  and  O_26
REMARK                            x       y       z     vdW  Elec       q    Type
REMARK                         _______ _______ _______ _____ _____    ______ ____
ROOT
ATOM      1  C   UNL     1      48.100   6.653  13.577  0.00  0.00    +0.000 C 
ENDROOT
BRANCH   1   2
ATOM      2  C   UNL     1      46.912   6.007  12.921  0.00  0.00    +0.000 A 
ATOM      3  C   UNL     1      46.388   6.533  11.734  0.00  0.00    +0.000 A 
ATOM      4  C   UNL     1      45.285   5.935  11.122  0.00  0.00    +0.000 A 
ATOM      5  C   UNL     1      44.690   4.790  11.674  0.00  0.00    +0.000 A 
ATOM      6  C   UNL     1      45.189   4.294  12.886  0.00  0.00    +0.000 A 
ATOM      7  C   UNL     1      46.288   4.897  13.504  0.00  0.00    +0.000 A 
BRANCH   5   8
ATOM      8  C   UNL     1      43.501   4.115  11.026  0.00  0.00    +0.000 C 
BRANCH   8   9
ATOM      9  N   UNL     1      43.837   3.589   9.707  0.00  0.00    +0.000 NA
ATOM     10  H   UNL     1      44.327   4.309   9.178  0.00  0.00    +0.000 HD
BRANCH   9  11
ATOM     11  C   UNL     1      44.657   2.380   9.782  0.00  0.00    +0.000 C 
BRANCH  11  12
ATOM     12  C   UNL     1      45.827   2.463   8.768  0.00  0.00    +0.000 C 
ATOM     13  C   UNL     1      45.504   3.456   7.636  0.00  0.00    +0.000 C 
ATOM     14  C   UNL     1      46.640   3.526   6.623  0.00  0.00    +0.000 C 
ATOM     15  C   UNL     1      46.998   2.131   6.129  0.00  0.00    +0.000 C 
ATOM     16  C   UNL     1      47.263   1.182   7.293  0.00  0.00    +0.000 C 
ATOM     17  N   UNL     1      46.124   1.130   8.214  0.00  0.00    +0.000 NA
ATOM     18  H   UNL     1      46.342   0.486   8.975  0.00  0.00    +0.000 HD
ENDBRANCH  11  12
ENDBRANCH   9  11
ENDBRANCH   8   9
ENDBRANCH   5   8
ENDBRANCH   1   2
BRANCH   1  21
ATOM     19  C   UNL     1      49.125   6.563  15.796  0.00  0.00    +0.000 C 
ATOM     20  O   UNL     1      50.259   6.592  15.330  0.00  0.00    +0.000 OA
ATOM     21  N   UNL     1      47.998   6.586  15.013  0.00  0.00    +0.000 N 
ATOM     22  H   UNL     1      47.080   6.579  15.429  0.00  0.00    +0.000 HD
BRANCH  19  26
ATOM     23  C   UNL     1      49.006   5.031  20.561  0.00  0.00    +0.000 C 
ATOM     24  N   UNL     1      48.843   5.832  19.371  0.00  0.00    +0.000 N 
ATOM     25  C   UNL     1      49.219   5.464  18.103  0.00  0.00    +0.000 A 
ATOM     26  C   UNL     1      48.902   6.502  17.236  0.00  0.00    +0.000 A 
ATOM     27  C   UNL     1      48.304   7.535  18.035  0.00  0.00    +0.000 A 
ATOM     28  C   UNL     1      47.765   8.810  17.834  0.00  0.00    +0.000 A 
ATOM     29  N   UNL     1      47.277   9.516  18.869  0.00  0.00    +0.000 NA
ATOM     30  C   UNL     1      47.329   8.951  20.086  0.00  0.00    +0.000 A 
ATOM     31  N   UNL     1      47.814   7.741  20.420  0.00  0.00    +0.000 NA
ATOM     32  C   UNL     1      48.287   7.082  19.349  0.00  0.00    +0.000 A 
BRANCH  28  33
ATOM     33  O   UNL     1      47.688   9.435  16.613  0.00  0.00    +0.000 OA
ATOM     34  H   UNL     1      47.850   8.759  15.923  0.00  0.00    +0.000 HD
ENDBRANCH  28  33
ENDBRANCH  19  26
ENDBRANCH   1  21
TORSDOF 8
ENDMDL
MODEL 3
REMARK VINA RESULT:    -7.623      1.689      2.008
REMARK INTER + INTRA:         -12.083
REMARK INTER:                 -11.097
REMARK INTRA:                  -0.985
REMARK UNBOUND:                -1.117
REMARK  Name = 
REMARK  9 active torsions:
REMARK  status: ('A' for Active; 'I' for Inactive)
REMARK    1  A    between atoms: C_1  and  N_2
REMARK    2  A    between atoms: C_4  and  C_5
REMARK    3  A    between atoms: N_7  and  C_8
REMARK    4  A    between atoms: C_8  and  C_9
REMARK    5  A    between atoms: C_12  and  C_13
REMARK    6  A    between atoms: C_13  and  N_14
REMARK    7  A    between atoms: N_14  and  C_15
REMARK    8  A    between atoms: C_15  and  C_16
REMARK    9  A    between atoms: C_25  and  O_26
REMARK                            x       y       z     vdW  Elec       q    Type
REMARK                         _______ _______ _______ _____ _____    ______ ____
ROOT
ATOM      1  C   UNL     1      48.249   6.436  13.360  0.00  0.00    +0.000 C 
ENDROOT
BRANCH   1   2
ATOM      2  C   UNL     1      47.018   5.851  12.727  0.00  0.00    +0.000 A 
ATOM      3  C   UNL     1      46.402   4.725  13.286  0.00  0.00    +0.000 A 
ATOM      4  C   UNL     1      45.259   4.180  12.700  0.00  0.00    +0.000 A 
ATOM      5  C   UNL     1      44.696   4.757  11.550  0.00  0.00    +0.000 A 
ATOM      6  C   UNL     1      45.341   5.856  10.968  0.00  0.00    +0.000 A 
ATOM      7  C   UNL     1      46.491   6.397  11.550  0.00  0.00    +0.000 A 
BRANCH   5   8
ATOM      8  C   UNL     1      43.450   4.195  10.901  0.00  0.00    +0.000 C 
BRANCH   8   9
ATOM      9  N   UNL     1      43.744   3.607   9.598  0.00  0.00    +0.000 NA
ATOM     10  H   UNL     1      44.246   4.290   9.033  0.00  0.00    +0.000 HD
BRANCH   9  11
ATOM     11  C   UNL     1      44.527   2.376   9.706  0.00  0.00    +0.000 C 
BRANCH  11  12
ATOM     12  C   UNL     1      45.736   2.424   8.739  0.00  0.00    +0.000 C 
ATOM     13  C   UNL     1      45.488   3.427   7.597  0.00  0.00    +0.000 C 
ATOM     14  C   UNL     1      46.664   3.463   6.629  0.00  0.00    +0.000 C 
ATOM     15  C   UNL     1      46.999   2.058   6.146  0.00  0.00    +0.000 C 
ATOM     16  C   UNL     1      47.189   1.100   7.319  0.00  0.00    +0.000 C 
ATOM     17  N   UNL     1      46.015   1.082   8.195  0.00  0.00    +0.000 NA
ATOM     18  H   UNL     1      46.184   0.433   8.963  0.00  0.00    +0.000 HD
ENDBRANCH  11  12
ENDBRANCH   9  11
ENDBRANCH   8   9
ENDBRANCH   5   8
ENDBRANCH   1   2
BRANCH   1  21
ATOM     19  C   UNL     1      49.115   7.009  15.574  0.00  0.00    +0.000 C 
ATOM     20  O   UNL     1      50.234   7.249  15.131  0.00  0.00    +0.000 OA
ATOM     21  N   UNL     1      48.073   6.599  14.781  0.00  0.00    +0.000 N 
ATOM     22  H   UNL     1      47.161   6.427  15.174  0.00  0.00    +0.000 HD
BRANCH  19  26
ATOM     23  C   UNL     1      47.896   8.888  20.051  0.00  0.00    +0.000 C 
ATOM     24  N   UNL     1      48.277   7.971  19.004  0.00  0.00    +0.000 N 
ATOM     25  C   UNL     1      48.471   8.300  17.686  0.00  0.00    +0.000 A 
ATOM     26  C   UNL     1      48.822   7.147  16.996  0.00  0.00    +0.000 A 
ATOM     27  C   UNL     1      48.839   6.082  17.960  0.00  0.00    +0.000 A 
ATOM     28  C   UNL     1      49.101   4.707  17.972  0.00  0.00    +0.000 A 
ATOM     29  N   UNL     1      49.011   4.005  19.115  0.00  0.00    +0.000 NA
ATOM     30  C   UNL     1      48.666   4.672  20.229  0.00  0.00    +0.000 A 
ATOM     31  N   UNL     1      48.392   5.983  20.360  0.00  0.00    +0.000 NA
ATOM     32  C   UNL     1      48.496   6.633  19.189  0.00  0.00    +0.000 A 
BRANCH  28  33
ATOM     33  O   UNL     1      49.456   3.977  16.865  0.00  0.00    +0.000 OA
ATOM     34  H   UNL     1      50.392   3.710  16.973  0.00  0.00    +0.000 HD
ENDBRANCH  28  33
ENDBRANCH  19  26
ENDBRANCH   1  21
TORSDOF 8
ENDMDL
MODEL 4
REMARK VINA RESULT:    -7.405      2.038      8.017
REMARK INTER + INTRA:         -11.769
REMARK INTER:                 -10.298
REMARK INTRA:                  -1.471
REMARK UNBOUND:                -1.117
REMARK  Name = 
REMARK  9 active torsions:
REMARK  status: ('A' for Active; 'I' for Inactive)
REMARK    1  A    between atoms: C_1  and  N_2
REMARK    2  A    between atoms: C_4  and  C_5
REMARK    3  A    between atoms: N_7  and  C_8
REMARK    4  A    between atoms: C_8  and  C_9
REMARK    5  A    between atoms: C_12  and  C_13
REMARK    6  A    between atoms: C_13  and  N_14
REMARK    7  A    between atoms: N_14  and  C_15
REMARK    8  A    between atoms: C_15  and  C_16
REMARK    9  A    between atoms: C_25  and  O_26
REMARK                            x       y       z     vdW  Elec       q    Type
REMARK                         _______ _______ _______ _____ _____    ______ ____
ROOT
ATOM      1  C   UNL     1      48.428   8.149  11.966  0.00  0.00    +0.000 C 
ENDROOT
BRANCH   1   2
ATOM      2  C   UNL     1      48.489   8.049  13.464  0.00  0.00    +0.000 A 
ATOM      3  C   UNL     1      48.754   6.821  14.081  0.00  0.00    +0.000 A 
ATOM      4  C   UNL     1      48.811   6.725  15.472  0.00  0.00    +0.000 A 
ATOM      5  C   UNL     1      48.621   7.859  16.278  0.00  0.00    +0.000 A 
ATOM      6  C   UNL     1      48.311   9.077  15.658  0.00  0.00    +0.000 A 
ATOM      7  C   UNL     1      48.244   9.171  14.266  0.00  0.00    +0.000 A 
BRANCH   5   8
ATOM      8  C   UNL     1      48.690   7.787  17.788  0.00  0.00    +0.000 C 
BRANCH   8   9
ATOM      9  N   UNL     1      47.625   6.952  18.333  0.00  0.00    +0.000 NA
ATOM     10  H   UNL     1      47.217   6.401  17.580  0.00  0.00    +0.000 HD
BRANCH   9  11
ATOM     11  C   UNL     1      48.100   6.067  19.397  0.00  0.00    +0.000 C 
BRANCH  11  12
ATOM     12  C   UNL     1      48.220   4.614  18.871  0.00  0.00    +0.000 C 
ATOM     13  C   UNL     1      49.579   4.390  18.181  0.00  0.00    +0.000 C 
ATOM     14  C   UNL     1      49.695   2.970  17.641  0.00  0.00    +0.000 C 
ATOM     15  C   UNL     1      48.500   2.637  16.759  0.00  0.00    +0.000 C 
ATOM     16  C   UNL     1      47.184   2.921  17.478  0.00  0.00    +0.000 C 
ATOM     17  N   UNL     1      47.115   4.308  17.944  0.00  0.00    +0.000 NA
ATOM     18  H   UNL     1      46.224   4.455  18.418  0.00  0.00    +0.000 HD
ENDBRANCH  11  12
ENDBRANCH   9  11
ENDBRANCH   8   9
ENDBRANCH   5   8
ENDBRANCH   1   2
BRANCH   1  21
ATOM     19  C   UNL     1      46.342   7.024  11.360  0.00  0.00    +0.000 C 
ATOM     20  O   UNL     1      45.658   7.944  11.797  0.00  0.00    +0.000 OA
ATOM     21  N   UNL     1      47.714   7.032  11.401  0.00  0.00    +0.000 N 
ATOM     22  H   UNL     1      48.247   6.267  11.017  0.00  0.00    +0.000 HD
BRANCH  19  26
ATOM     23  C   UNL     1      44.920   3.497   8.104  0.00  0.00    +0.000 C 
ATOM     24  N   UNL     1      45.083   4.260   9.319  0.00  0.00    +0.000 N 
ATOM     25  C   UNL     1      45.806   5.420   9.441  0.00  0.00    +0.000 A 
ATOM     26  C   UNL     1      45.727   5.846  10.761  0.00  0.00    +0.000 A 
ATOM     27  C   UNL     1      44.910   4.886  11.452  0.00  0.00    +0.000 A 
ATOM     28  C   UNL     1      44.426   4.691  12.750  0.00  0.00    +0.000 A 
ATOM     29  N   UNL     1      43.656   3.627  13.038  0.00  0.00    +0.000 NA
ATOM     30  C   UNL     1      43.374   2.775  12.039  0.00  0.00    +0.000 A 
ATOM     31  N   UNL     1      43.768   2.842  10.755  0.00  0.00    +0.000 NA
ATOM     32  C   UNL     1      44.534   3.921  10.525  0.00  0.00    +0.000 A 
BRANCH  28  33
ATOM     33  O   UNL     1      44.683   5.529  13.807  0.00  0.00    +0.000 OA
ATOM     34  H   UNL     1      45.001   4.980  14.552  0.00  0.00    +0.000 HD
ENDBRANCH  28  33
ENDBRANCH  19  26
ENDBRANCH   1  21
TORSDOF 8
ENDMDL
MODEL 5
REMARK VINA RESULT:    -7.277      2.894      5.278
REMARK INTER + INTRA:         -11.584
REMARK INTER:                 -10.742
REMARK INTRA:                  -0.842
REMARK UNBOUND:                -1.117
REMARK  Name = 
REMARK  9 active torsions:
REMARK  status: ('A' for Active; 'I' for Inactive)
REMARK    1  A    between atoms: C_1  and  N_2
REMARK    2  A    between atoms: C_4  and  C_5
REMARK    3  A    between atoms: N_7  and  C_8
REMARK    4  A    between atoms: C_8  and  C_9
REMARK    5  A    between atoms: C_12  and  C_13
REMARK    6  A    between atoms: C_13  and  N_14
REMARK    7  A    between atoms: N_14  and  C_15
REMARK    8  A    between atoms: C_15  and  C_16
REMARK    9  A    between atoms: C_25  and  O_26
REMARK                            x       y       z     vdW  Elec       q    Type
REMARK                         _______ _______ _______ _____ _____    ______ ____
ROOT
ATOM      1  C   UNL     1      47.318   6.005  14.374  0.00  0.00    +0.000 C 
ENDROOT
BRANCH   1   2
ATOM      2  C   UNL     1      46.311   5.178  13.625  0.00  0.00    +0.000 A 
ATOM      3  C   UNL     1      45.057   5.711  13.305  0.00  0.00    +0.000 A 
ATOM      4  C   UNL     1      44.120   4.945  12.609  0.00  0.00    +0.000 A 
ATOM      5  C   UNL     1      44.421   3.635  12.205  0.00  0.00    +0.000 A 
ATOM      6  C   UNL     1      45.660   3.090  12.567  0.00  0.00    +0.000 A 
ATOM      7  C   UNL     1      46.595   3.853  13.271  0.00  0.00    +0.000 A 
BRANCH   5   8
ATOM      8  C   UNL     1      43.428   2.786  11.439  0.00  0.00    +0.000 C 
BRANCH   8   9
ATOM      9  N   UNL     1      43.981   2.332  10.167  0.00  0.00    +0.000 NA
ATOM     10  H   UNL     1      43.311   1.711   9.718  0.00  0.00    +0.000 HD
BRANCH   9  11
ATOM     11  C   UNL     1      44.308   3.444   9.274  0.00  0.00    +0.000 C 
BRANCH  11  12
ATOM     12  C   UNL     1      45.191   2.946   8.102  0.00  0.00    +0.000 C 
ATOM     13  C   UNL     1      46.029   1.725   8.525  0.00  0.00    +0.000 C 
ATOM     14  C   UNL     1      46.917   1.244   7.384  0.00  0.00    +0.000 C 
ATOM     15  C   UNL     1      47.749   2.396   6.835  0.00  0.00    +0.000 C 
ATOM     16  C   UNL     1      46.871   3.591   6.477  0.00  0.00    +0.000 C 
ATOM     17  N   UNL     1      46.067   4.030   7.620  0.00  0.00    +0.000 NA
ATOM     18  H   UNL     1      45.496   4.827   7.338  0.00  0.00    +0.000 HD
ENDBRANCH  11  12
ENDBRANCH   9  11
ENDBRANCH   8   9
ENDBRANCH   5   8
ENDBRANCH   1   2
BRANCH   1  21
ATOM     19  C   UNL     1      47.982   7.687  12.727  0.00  0.00    +0.000 C 
ATOM     20  O   UNL     1      48.577   6.859  12.045  0.00  0.00    +0.000 OA
ATOM     21  N   UNL     1      47.334   7.363  13.893  0.00  0.00    +0.000 N 
ATOM     22  H   UNL     1      46.839   8.064  14.421  0.00  0.00    +0.000 HD
BRANCH  19  26
ATOM     23  C   UNL     1      49.263  12.329  11.360  0.00  0.00    +0.000 C 
ATOM     24  N   UNL     1      48.483  11.169  11.720  0.00  0.00    +0.000 N 
ATOM     25  C   UNL     1      48.991   9.940  12.059  0.00  0.00    +0.000 A 
ATOM     26  C   UNL     1      47.927   9.090  12.333  0.00  0.00    +0.000 A 
ATOM     27  C   UNL     1      46.729   9.861  12.148  0.00  0.00    +0.000 A 
ATOM     28  C   UNL     1      45.348   9.658  12.250  0.00  0.00    +0.000 A 
ATOM     29  N   UNL     1      44.490  10.658  11.985  0.00  0.00    +0.000 NA
ATOM     30  C   UNL     1      45.009  11.844  11.627  0.00  0.00    +0.000 A 
ATOM     31  N   UNL     1      46.306  12.176  11.493  0.00  0.00    +0.000 NA
ATOM     32  C   UNL     1      47.116  11.140  11.768  0.00  0.00    +0.000 A 
BRANCH  28  33
ATOM     33  O   UNL     1      44.764   8.469  12.611  0.00  0.00    +0.000 OA
ATOM     34  H   UNL     1      45.372   7.747  12.348  0.00  0.00    +0.000 HD
ENDBRANCH  28  33
ENDBRANCH  19  26
ENDBRANCH   1  21
TORSDOF 8
ENDMDL
MODEL 6
REMARK VINA RESULT:    -7.262      1.506      2.746
REMARK INTER + INTRA:         -11.563
REMARK INTER:                 -10.479
REMARK INTRA:                  -1.084
REMARK UNBOUND:                -1.117
REMARK  Name = 
REMARK  9 active torsions:
REMARK  status: ('A' for Active; 'I' for Inactive)
REMARK    1  A    between atoms: C_1  and  N_2
REMARK    2  A    between atoms: C_4  and  C_5
REMARK    3  A    between atoms: N_7  and  C_8
REMARK    4  A    between atoms: C_8  and  C_9
REMARK    5  A    between atoms: C_12  and  C_13
REMARK    6  A    between atoms: C_13  and  N_14
REMARK    7  A    between atoms: N_14  and  C_15
REMARK    8  A    between atoms: C_15  and  C_16
REMARK    9  A    between atoms: C_25  and  O_26
REMARK                            x       y       z     vdW  Elec       q    Type
REMARK                         _______ _______ _______ _____ _____    ______ ____
ROOT
ATOM      1  C   UNL     1      46.932   7.669  13.028  0.00  0.00    +0.000 C 
ENDROOT
BRANCH   1   2
ATOM      2  C   UNL     1      46.103   6.526  12.515  0.00  0.00    +0.000 A 
ATOM      3  C   UNL     1      45.677   5.515  13.386  0.00  0.00    +0.000 A 
ATOM      4  C   UNL     1      44.906   4.452  12.912  0.00  0.00    +0.000 A 
ATOM      5  C   UNL     1      44.531   4.383  11.561  0.00  0.00    +0.000 A 
ATOM      6  C   UNL     1      44.998   5.372  10.685  0.00  0.00    +0.000 A 
ATOM      7  C   UNL     1      45.777   6.432  11.157  0.00  0.00    +0.000 A 
BRANCH   5   8
ATOM      8  C   UNL     1      43.687   3.248  11.023  0.00  0.00    +0.000 C 
BRANCH   8   9
ATOM      9  N   UNL     1      43.865   3.084   9.584  0.00  0.00    +0.000 NA
ATOM     10  H   UNL     1      44.339   3.905   9.213  0.00  0.00    +0.000 HD
BRANCH   9  11
ATOM     11  C   UNL     1      44.623   1.877   9.251  0.00  0.00    +0.000 C 
BRANCH  11  12
ATOM     12  C   UNL     1      45.891   2.249   8.442  0.00  0.00    +0.000 C 
ATOM     13  C   UNL     1      45.577   3.332   7.393  0.00  0.00    +0.000 C 
ATOM     14  C   UNL     1      46.815   3.686   6.578  0.00  0.00    +0.000 C 
ATOM     15  C   UNL     1      47.441   2.429   5.989  0.00  0.00    +0.000 C 
ATOM     16  C   UNL     1      47.687   1.376   7.066  0.00  0.00    +0.000 C 
ATOM     17  N   UNL     1      46.457   1.052   7.793  0.00  0.00    +0.000 NA
ATOM     18  H   UNL     1      46.666   0.348   8.501  0.00  0.00    +0.000 HD
ENDBRANCH  11  12
ENDBRANCH   9  11
ENDBRANCH   8   9
ENDBRANCH   5   8
ENDBRANCH   1   2
BRANCH   1  21
ATOM     19  C   UNL     1      48.825   6.949  14.399  0.00  0.00    +0.000 C 
ATOM     20  O   UNL     1      49.555   6.830  13.420  0.00  0.00    +0.000 OA
ATOM     21  N   UNL     1      47.516   7.353  14.307  0.00  0.00    +0.000 N 
ATOM     22  H   UNL     1      46.949   7.457  15.133  0.00  0.00    +0.000 HD
BRANCH  19  26
ATOM     23  C   UNL     1      49.078   5.600  19.214  0.00  0.00    +0.000 C 
ATOM     24  N   UNL     1      49.443   6.061  17.895  0.00  0.00    +0.000 N 
ATOM     25  C   UNL     1      48.585   6.202  16.833  0.00  0.00    +0.000 A 
ATOM     26  C   UNL     1      49.312   6.661  15.743  0.00  0.00    +0.000 A 
ATOM     27  C   UNL     1      50.672   6.801  16.188  0.00  0.00    +0.000 A 
ATOM     28  C   UNL     1      51.897   7.203  15.643  0.00  0.00    +0.000 A 
ATOM     29  N   UNL     1      53.011   7.201  16.396  0.00  0.00    +0.000 NA
ATOM     30  C   UNL     1      52.897   6.804  17.674  0.00  0.00    +0.000 A 
ATOM     31  N   UNL     1      51.790   6.397  18.322  0.00  0.00    +0.000 NA
ATOM     32  C   UNL     1      50.710   6.418  17.523  0.00  0.00    +0.000 A 
BRANCH  28  33
ATOM     33  O   UNL     1      52.069   7.618  14.346  0.00  0.00    +0.000 OA
ATOM     34  H   UNL     1      53.031   7.708  14.188  0.00  0.00    +0.000 HD
ENDBRANCH  28  33
ENDBRANCH  19  26
ENDBRANCH   1  21
TORSDOF 8
ENDMDL
MODEL 7
REMARK VINA RESULT:    -6.428      3.067      8.145
REMARK INTER + INTRA:         -10.364
REMARK INTER:                  -8.675
REMARK INTRA:                  -1.689
REMARK UNBOUND:                -1.117
REMARK  Name = 
REMARK  9 active torsions:
REMARK  status: ('A' for Active; 'I' for Inactive)
REMARK    1  A    between atoms: C_1  and  N_2
REMARK    2  A    between atoms: C_4  and  C_5
REMARK    3  A    between atoms: N_7  and  C_8
REMARK    4  A    between atoms: C_8  and  C_9
REMARK    5  A    between atoms: C_12  and  C_13
REMARK    6  A    between atoms: C_13  and  N_14
REMARK    7  A    between atoms: N_14  and  C_15
REMARK    8  A    between atoms: C_15  and  C_16
REMARK    9  A    between atoms: C_25  and  O_26
REMARK                            x       y       z     vdW  Elec       q    Type
REMARK                         _______ _______ _______ _____ _____    ______ ____
ROOT
ATOM      1  C   UNL     1      47.977   9.339  14.909  0.00  0.00    +0.000 C 
ENDROOT
BRANCH   1   2
ATOM      2  C   UNL     1      48.580   8.844  16.193  0.00  0.00    +0.000 A 
ATOM      3  C   UNL     1      48.059   9.258  17.425  0.00  0.00    +0.000 A 
ATOM      4  C   UNL     1      48.616   8.800  18.619  0.00  0.00    +0.000 A 
ATOM      5  C   UNL     1      49.698   7.904  18.610  0.00  0.00    +0.000 A 
ATOM      6  C   UNL     1      50.245   7.528  17.376  0.00  0.00    +0.000 A 
ATOM      7  C   UNL     1      49.693   7.994  16.180  0.00  0.00    +0.000 A 
BRANCH   5   8
ATOM      8  C   UNL     1      50.314   7.382  19.889  0.00  0.00    +0.000 C 
BRANCH   8   9
ATOM      9  N   UNL     1      50.284   5.924  19.941  0.00  0.00    +0.000 NA
ATOM     10  H   UNL     1      50.856   5.608  20.723  0.00  0.00    +0.000 HD
BRANCH   9  11
ATOM     11  C   UNL     1      48.925   5.399  20.073  0.00  0.00    +0.000 C 
BRANCH  11  12
ATOM     12  C   UNL     1      48.748   4.143  19.182  0.00  0.00    +0.000 C 
ATOM     13  C   UNL     1      49.979   3.929  18.283  0.00  0.00    +0.000 C 
ATOM     14  C   UNL     1      49.802   2.708  17.388  0.00  0.00    +0.000 C 
ATOM     15  C   UNL     1      48.492   2.798  16.618  0.00  0.00    +0.000 C 
ATOM     16  C   UNL     1      47.316   3.056  17.555  0.00  0.00    +0.000 C 
ATOM     17  N   UNL     1      47.526   4.259  18.365  0.00  0.00    +0.000 NA
ATOM     18  H   UNL     1      46.720   4.394  18.975  0.00  0.00    +0.000 HD
ENDBRANCH  11  12
ENDBRANCH   9  11
ENDBRANCH   8   9
ENDBRANCH   5   8
ENDBRANCH   1   2
BRANCH   1  21
ATOM     19  C   UNL     1      46.916   8.223  13.008  0.00  0.00    +0.000 C 
ATOM     20  O   UNL     1      47.556   8.886  12.197  0.00  0.00    +0.000 OA
ATOM     21  N   UNL     1      47.052   8.377  14.365  0.00  0.00    +0.000 N 
ATOM     22  H   UNL     1      46.524   7.805  15.005  0.00  0.00    +0.000 HD
BRANCH  19  26
ATOM     23  C   UNL     1      42.963   5.961  10.931  0.00  0.00    +0.000 C 
ATOM     24  N   UNL     1      44.196   6.190  11.647  0.00  0.00    +0.000 N 
ATOM     25  C   UNL     1      44.788   7.412  11.845  0.00  0.00    +0.000 A 
ATOM     26  C   UNL     1      45.957   7.217  12.571  0.00  0.00    +0.000 A 
ATOM     27  C   UNL     1      46.055   5.805  12.816  0.00  0.00    +0.000 A 
ATOM     28  C   UNL     1      46.937   4.931  13.462  0.00  0.00    +0.000 A 
ATOM     29  N   UNL     1      46.693   3.609  13.486  0.00  0.00    +0.000 NA
ATOM     30  C   UNL     1      45.581   3.171  12.872  0.00  0.00    +0.000 A 
ATOM     31  N   UNL     1      44.653   3.895  12.219  0.00  0.00    +0.000 NA
ATOM     32  C   UNL     1      44.948   5.205  12.227  0.00  0.00    +0.000 A 
BRANCH  28  33
ATOM     33  O   UNL     1      48.085   5.324  14.104  0.00  0.00    +0.000 OA
ATOM     34  H   UNL     1      48.237   4.705  14.848  0.00  0.00    +0.000 HD
ENDBRANCH  28  33
ENDBRANCH  19  26
ENDBRANCH   1  21
TORSDOF 8
ENDMDL
MODEL 8
REMARK VINA RESULT:    -6.232      5.181      7.314
REMARK INTER + INTRA:         -10.082
REMARK INTER:                  -8.853
REMARK INTRA:                  -1.228
REMARK UNBOUND:                -1.117
REMARK  Name = 
REMARK  9 active torsions:
REMARK  status: ('A' for Active; 'I' for Inactive)
REMARK    1  A    between atoms: C_1  and  N_2
REMARK    2  A    between atoms: C_4  and  C_5
REMARK    3  A    between atoms: N_7  and  C_8
REMARK    4  A    between atoms: C_8  and  C_9
REMARK    5  A    between atoms: C_12  and  C_13
REMARK    6  A    between atoms: C_13  and  N_14
REMARK    7  A    between atoms: N_14  and  C_15
REMARK    8  A    between atoms: C_15  and  C_16
REMARK    9  A    between atoms: C_25  and  O_26
REMARK                            x       y       z     vdW  Elec       q    Type
REMARK                         _______ _______ _______ _____ _____    ______ ____
ROOT
ATOM      1  C   UNL     1      50.578   8.880  12.556  0.00  0.00    +0.000 C 
ENDROOT
BRANCH   1   2
ATOM      2  C   UNL     1      49.407   7.963  12.770  0.00  0.00    +0.000 A 
ATOM      3  C   UNL     1      49.257   7.278  13.981  0.00  0.00    +0.000 A 
ATOM      4  C   UNL     1      48.170   6.426  14.182  0.00  0.00    +0.000 A 
ATOM      5  C   UNL     1      47.200   6.251  13.182  0.00  0.00    +0.000 A 
ATOM      6  C   UNL     1      47.378   6.903  11.955  0.00  0.00    +0.000 A 
ATOM      7  C   UNL     1      48.471   7.749  11.750  0.00  0.00    +0.000 A 
BRANCH   5   8
ATOM      8  C   UNL     1      46.005   5.342  13.377  0.00  0.00    +0.000 C 
BRANCH   8   9
ATOM      9  N   UNL     1      44.863   5.782  12.582  0.00  0.00    +0.000 NA
ATOM     10  H   UNL     1      45.199   6.347  11.803  0.00  0.00    +0.000 HD
BRANCH   9  11
ATOM     11  C   UNL     1      44.069   4.660  12.079  0.00  0.00    +0.000 C 
BRANCH  11  12
ATOM     12  C   UNL     1      44.771   4.013  10.859  0.00  0.00    +0.000 C 
ATOM     13  C   UNL     1      45.095   5.069   9.786  0.00  0.00    +0.000 C 
ATOM     14  C   UNL     1      45.766   4.435   8.573  0.00  0.00    +0.000 C 
ATOM     15  C   UNL     1      44.933   3.272   8.053  0.00  0.00    +0.000 C 
ATOM     16  C   UNL     1      44.604   2.283   9.168  0.00  0.00    +0.000 C 
ATOM     17  N   UNL     1      43.932   2.942  10.290  0.00  0.00    +0.000 NA
ATOM     18  H   UNL     1      43.732   2.248  11.011  0.00  0.00    +0.000 HD
ENDBRANCH  11  12
ENDBRANCH   9  11
ENDBRANCH   8   9
ENDBRANCH   5   8
ENDBRANCH   1   2
BRANCH   1  21
ATOM     19  C   UNL     1      52.326   8.340  10.933  0.00  0.00    +0.000 C 
ATOM     20  O   UNL     1      53.106   7.988  11.812  0.00  0.00    +0.000 OA
ATOM     21  N   UNL     1      51.060   8.798  11.201  0.00  0.00    +0.000 N 
ATOM     22  H   UNL     1      50.438   9.064  10.454  0.00  0.00    +0.000 HD
BRANCH  19  26
ATOM     23  C   UNL     1      53.203   9.598   6.167  0.00  0.00    +0.000 C 
ATOM     24  N   UNL     1      53.104   8.841   7.393  0.00  0.00    +0.000 N 
ATOM     25  C   UNL     1      52.639   9.320   8.591  0.00  0.00    +0.000 A 
ATOM     26  C   UNL     1      52.705   8.295   9.526  0.00  0.00    +0.000 A 
ATOM     27  C   UNL     1      53.235   7.149   8.839  0.00  0.00    +0.000 A 
ATOM     28  C   UNL     1      53.555   5.822   9.146  0.00  0.00    +0.000 A 
ATOM     29  N   UNL     1      54.056   5.005   8.203  0.00  0.00    +0.000 NA
ATOM     30  C   UNL     1      54.231   5.511   6.971  0.00  0.00    +0.000 A 
ATOM     31  N   UNL     1      53.966   6.758   6.541  0.00  0.00    +0.000 NA
ATOM     32  C   UNL     1      53.469   7.528   7.523  0.00  0.00    +0.000 A 
BRANCH  28  33
ATOM     33  O   UNL     1      53.396   5.253  10.386  0.00  0.00    +0.000 OA
ATOM     34  H   UNL     1      53.025   5.937  10.981  0.00  0.00    +0.000 HD
ENDBRANCH  28  33
ENDBRANCH  19  26
ENDBRANCH   1  21
TORSDOF 8
ENDMDL
MODEL 9
REMARK VINA RESULT:    -6.114      4.699      7.923
REMARK INTER + INTRA:          -9.912
REMARK INTER:                  -8.671
REMARK INTRA:                  -1.241
REMARK UNBOUND:                -1.117
REMARK  Name = 
REMARK  9 active torsions:
REMARK  status: ('A' for Active; 'I' for Inactive)
REMARK    1  A    between atoms: C_1  and  N_2
REMARK    2  A    between atoms: C_4  and  C_5
REMARK    3  A    between atoms: N_7  and  C_8
REMARK    4  A    between atoms: C_8  and  C_9
REMARK    5  A    between atoms: C_12  and  C_13
REMARK    6  A    between atoms: C_13  and  N_14
REMARK    7  A    between atoms: N_14  and  C_15
REMARK    8  A    between atoms: C_15  and  C_16
REMARK    9  A    between atoms: C_25  and  O_26
REMARK                            x       y       z     vdW  Elec       q    Type
REMARK                         _______ _______ _______ _____ _____    ______ ____
ROOT
ATOM      1  C   UNL     1      47.773   7.944  12.914  0.00  0.00    +0.000 C 
ENDROOT
BRANCH   1   2
ATOM      2  C   UNL     1      48.869   8.627  12.146  0.00  0.00    +0.000 A 
ATOM      3  C   UNL     1      48.742   9.972  11.778  0.00  0.00    +0.000 A 
ATOM      4  C   UNL     1      49.758  10.610  11.065  0.00  0.00    +0.000 A 
ATOM      5  C   UNL     1      50.931   9.921  10.716  0.00  0.00    +0.000 A 
ATOM      6  C   UNL     1      51.034   8.564  11.046  0.00  0.00    +0.000 A 
ATOM      7  C   UNL     1      50.013   7.923  11.752  0.00  0.00    +0.000 A 
BRANCH   5   8
ATOM      8  C   UNL     1      52.054  10.591   9.953  0.00  0.00    +0.000 C 
BRANCH   8   9
ATOM      9  N   UNL     1      53.359  10.095  10.378  0.00  0.00    +0.000 NA
ATOM     10  H   UNL     1      53.226   9.295  10.994  0.00  0.00    +0.000 HD
BRANCH   9  11
ATOM     11  C   UNL     1      54.207   9.718   9.247  0.00  0.00    +0.000 C 
BRANCH  11  12
ATOM     12  C   UNL     1      54.449   8.188   9.247  0.00  0.00    +0.000 C 
ATOM     13  C   UNL     1      53.350   7.457   8.453  0.00  0.00    +0.000 C 
ATOM     14  C   UNL     1      53.569   5.949   8.468  0.00  0.00    +0.000 C 
ATOM     15  C   UNL     1      53.726   5.448   9.898  0.00  0.00    +0.000 C 
ATOM     16  C   UNL     1      54.795   6.239  10.647  0.00  0.00    +0.000 C 
ATOM     17  N   UNL     1      54.514   7.676  10.628  0.00  0.00    +0.000 NA
ATOM     18  H   UNL     1      55.250   8.165  11.137  0.00  0.00    +0.000 HD
ENDBRANCH  11  12
ENDBRANCH   9  11
ENDBRANCH   8   9
ENDBRANCH   5   8
ENDBRANCH   1   2
BRANCH   1  21
ATOM     19  C   UNL     1      46.002   6.950  11.550  0.00  0.00    +0.000 C 
ATOM     20  O   UNL     1      45.317   7.966  11.607  0.00  0.00    +0.000 OA
ATOM     21  N   UNL     1      47.225   6.842  12.165  0.00  0.00    +0.000 N 
ATOM     22  H   UNL     1      47.771   5.998  12.084  0.00  0.00    +0.000 HD
BRANCH  19  26
ATOM     23  C   UNL     1      45.193   3.583   7.935  0.00  0.00    +0.000 C 
ATOM     24  N   UNL     1      45.180   4.259   9.210  0.00  0.00    +0.000 N 
ATOM     25  C   UNL     1      45.782   5.462   9.482  0.00  0.00    +0.000 A 
ATOM     26  C   UNL     1      45.549   5.775  10.815  0.00  0.00    +0.000 A 
ATOM     27  C   UNL     1      44.764   4.700  11.356  0.00  0.00    +0.000 A 
ATOM     28  C   UNL     1      44.188   4.365  12.587  0.00  0.00    +0.000 A 
ATOM     29  N   UNL     1      43.493   3.222  12.725  0.00  0.00    +0.000 NA
ATOM     30  C   UNL     1      43.377   2.430  11.647  0.00  0.00    +0.000 A 
ATOM     31  N   UNL     1      43.875   2.630  10.413  0.00  0.00    +0.000 NA
ATOM     32  C   UNL     1      44.558   3.783  10.333  0.00  0.00    +0.000 A 
BRANCH  28  33
ATOM     33  O   UNL     1      44.274   5.136  13.719  0.00  0.00    +0.000 OA
ATOM     34  H   UNL     1      43.663   4.759  14.384  0.00  0.00    +0.000 HD
ENDBRANCH  28  33
ENDBRANCH  19  26
ENDBRANCH   1  21
TORSDOF 8
ENDMDL
