MODEL 1
REMARK VINA RESULT:    -7.386      0.000      0.000
REMARK INTER + INTRA:          -9.131
REMARK INTER:                  -8.681
REMARK INTRA:                  -0.450
REMARK UNBOUND:                -0.450
REMARK  Name = 
REMARK  3 active torsions:
REMARK  status: ('A' for Active; 'I' for Inactive)
REMARK    1  A    between atoms: C_4  and  C_5
REMARK    2  A    between atoms: C_9  and  C_10
REMARK    3  A    between atoms: C_10  and  N_11
REMARK                            x       y       z     vdW  Elec       q    Type
REMARK                         _______ _______ _______ _____ _____    ______ ____
ROOT
ATOM      1  C   UNL     1      46.958   6.587  12.561  0.00  0.00    +0.000 A 
ATOM      2  C   UNL     1      47.444   5.930  13.703  0.00  0.00    +0.000 A 
ATOM      3  C   UNL     1      46.979   4.658  14.052  0.00  0.00    +0.000 A 
ATOM      4  C   UNL     1      46.038   4.007  13.255  0.00  0.00    +0.000 A 
ATOM      5  C   UNL     1      45.537   4.609  12.092  0.00  0.00    +0.000 A 
ATOM      6  C   UNL     1      45.999   5.903  11.794  0.00  0.00    +0.000 A 
ENDROOT
BRANCH   1  10
ATOM      7  C   UNL     1      48.267  10.559  11.526  0.00  0.00    +0.000 A 
ATOM      8  C   UNL     1      46.947  10.332  11.892  0.00  0.00    +0.000 A 
ATOM      9  C   UNL     1      46.522   9.037  12.196  0.00  0.00    +0.000 A 
ATOM     10  C   UNL     1      47.406   7.939  12.163  0.00  0.00    +0.000 A 
ATOM     11  C   UNL     1      48.733   8.197  11.775  0.00  0.00    +0.000 A 
ATOM     12  C   UNL     1      49.159   9.491  11.458  0.00  0.00    +0.000 A 
ENDBRANCH   1  10
BRANCH   5  13
ATOM     13  C   UNL     1      44.547   3.916  11.163  0.00  0.00    +0.000 C 
ATOM     14  C   UNL     1      43.597   4.816  10.388  0.00  0.00    +0.000 C 
ATOM     15  C   UNL     1      43.061   3.977  11.498  0.00  0.00    +0.000 C 
BRANCH  13  16
ATOM     16  N   UNL     1      45.049   2.691  10.531  0.00  0.00    +0.000 N 
ATOM     17  C   UNL     1      45.609   2.721   9.249  0.00  0.00    +0.000 A 
ATOM     18  N   UNL     1      45.921   3.895   8.669  0.00  0.00    +0.000 NA
ATOM     19  C   UNL     1      46.477   3.858   7.447  0.00  0.00    +0.000 A 
ATOM     20  C   UNL     1      46.765   2.693   6.785  0.00  0.00    +0.000 A 
ATOM     21  C   UNL     1      46.422   1.546   7.455  0.00  0.00    +0.000 A 
ATOM     22  N   UNL     1      45.834   1.532   8.669  0.00  0.00    +0.000 NA
ATOM     23  H   UNL     1      44.560   1.813  10.642  0.00  0.00    +0.000 HD
ENDBRANCH  13  16
ENDBRANCH   5  13
TORSDOF 3
ENDMDL
MODEL 2
REMARK VINA RESULT:    -7.313      0.988      1.772
REMARK INTER + INTRA:          -9.045
REMARK INTER:                  -9.218
REMARK INTRA:                   0.172
REMARK UNBOUND:                -0.450
REMARK  Name = 
REMARK  3 active torsions:
REMARK  status: ('A' for Active; 'I' for Inactive)
REMARK    1  A    between atoms: C_4  and  C_5
REMARK    2  A    between atoms: C_9  and  C_10
REMARK    3  A    between atoms: C_10  and  N_11
REMARK                            x       y       z     vdW  Elec       q    Type
REMARK                         _______ _______ _______ _____ _____    ______ ____
ROOT
ATOM      1  C   UNL     1      47.342   6.599  12.454  0.00  0.00    +0.000 A 
ATOM      2  C   UNL     1      47.530   5.770  13.572  0.00  0.00    +0.000 A 
ATOM      3  C   UNL     1      46.645   4.723  13.846  0.00  0.00    +0.000 A 
ATOM      4  C   UNL     1      45.570   4.466  12.995  0.00  0.00    +0.000 A 
ATOM      5  C   UNL     1      45.350   5.249  11.853  0.00  0.00    +0.000 A 
ATOM      6  C   UNL     1      46.237   6.317  11.632  0.00  0.00    +0.000 A 
ENDROOT
BRANCH   1  10
ATOM      7  C   UNL     1      49.955   9.859  11.403  0.00  0.00    +0.000 A 
ATOM      8  C   UNL     1      50.450   8.564  11.479  0.00  0.00    +0.000 A 
ATOM      9  C   UNL     1      49.605   7.516  11.851  0.00  0.00    +0.000 A 
ATOM     10  C   UNL     1      48.241   7.730  12.135  0.00  0.00    +0.000 A 
ATOM     11  C   UNL     1      47.770   9.052  12.064  0.00  0.00    +0.000 A 
ATOM     12  C   UNL     1      48.617  10.106  11.703  0.00  0.00    +0.000 A 
ENDBRANCH   1  10
BRANCH   5  13
ATOM     13  C   UNL     1      44.219   4.976  10.868  0.00  0.00    +0.000 C 
ATOM     14  C   UNL     1      42.825   5.404  11.297  0.00  0.00    +0.000 C 
ATOM     15  C   UNL     1      43.154   3.950  11.239  0.00  0.00    +0.000 C 
BRANCH  13  16
ATOM     16  N   UNL     1      44.597   5.079   9.454  0.00  0.00    +0.000 N 
ATOM     17  C   UNL     1      45.233   4.017   8.800  0.00  0.00    +0.000 A 
ATOM     18  N   UNL     1      45.291   2.801   9.375  0.00  0.00    +0.000 NA
ATOM     19  C   UNL     1      45.893   1.816   8.688  0.00  0.00    +0.000 A 
ATOM     20  C   UNL     1      46.417   1.984   7.433  0.00  0.00    +0.000 A 
ATOM     21  C   UNL     1      46.304   3.253   6.922  0.00  0.00    +0.000 A 
ATOM     22  N   UNL     1      45.736   4.281   7.585  0.00  0.00    +0.000 NA
ATOM     23  H   UNL     1      44.960   5.944   9.077  0.00  0.00    +0.000 HD
ENDBRANCH  13  16
ENDBRANCH   5  13
TORSDOF 3
ENDMDL
MODEL 3
REMARK VINA RESULT:    -7.255      1.563      3.792
REMARK INTER + INTRA:          -8.978
REMARK INTER:                  -8.559
REMARK INTRA:                  -0.419
REMARK UNBOUND:                -0.450
REMARK  Name = 
REMARK  3 active torsions:
REMARK  status: ('A' for Active; 'I' for Inactive)
REMARK    1  A    between atoms: C_4  and  C_5
REMARK    2  A    between atoms: C_9  and  C_10
REMARK    3  A    between atoms: C_10  and  N_11
REMARK                            x       y       z     vdW  Elec       q    Type
REMARK                         _______ _______ _______ _____ _____    ______ ____
ROOT
ATOM      1  C   UNL     1      47.001   5.367  13.841  0.00  0.00    +0.000 A 
ATOM      2  C   UNL     1      47.407   6.570  13.241  0.00  0.00    +0.000 A 
ATOM      3  C   UNL     1      46.930   6.939  11.980  0.00  0.00    +0.000 A 
ATOM      4  C   UNL     1      46.020   6.128  11.303  0.00  0.00    +0.000 A 
ATOM      5  C   UNL     1      45.565   4.927  11.868  0.00  0.00    +0.000 A 
ATOM      6  C   UNL     1      46.096   4.569  13.119  0.00  0.00    +0.000 A 
ENDROOT
BRANCH   1  10
ATOM      7  C   UNL     1      48.523   4.009  17.637  0.00  0.00    +0.000 A 
ATOM      8  C   UNL     1      47.707   3.183  16.875  0.00  0.00    +0.000 A 
ATOM      9  C   UNL     1      47.192   3.640  15.661  0.00  0.00    +0.000 A 
ATOM     10  C   UNL     1      47.494   4.925  15.165  0.00  0.00    +0.000 A 
ATOM     11  C   UNL     1      48.310   5.745  15.963  0.00  0.00    +0.000 A 
ATOM     12  C   UNL     1      48.818   5.294  17.186  0.00  0.00    +0.000 A 
ENDBRANCH   1  10
BRANCH   5  13
ATOM     13  C   UNL     1      44.533   4.033  11.189  0.00  0.00    +0.000 C 
ATOM     14  C   UNL     1      43.391   4.734  10.473  0.00  0.00    +0.000 C 
ATOM     15  C   UNL     1      43.113   4.002  11.742  0.00  0.00    +0.000 C 
BRANCH  13  16
ATOM     16  N   UNL     1      45.071   2.786  10.632  0.00  0.00    +0.000 N 
ATOM     17  C   UNL     1      45.584   2.743   9.331  0.00  0.00    +0.000 A 
ATOM     18  N   UNL     1      45.821   3.882   8.654  0.00  0.00    +0.000 NA
ATOM     19  C   UNL     1      46.336   3.777   7.418  0.00  0.00    +0.000 A 
ATOM     20  C   UNL     1      46.655   2.579   6.835  0.00  0.00    +0.000 A 
ATOM     21  C   UNL     1      46.390   1.471   7.601  0.00  0.00    +0.000 A 
ATOM     22  N   UNL     1      45.845   1.525   8.833  0.00  0.00    +0.000 NA
ATOM     23  H   UNL     1      44.627   1.898  10.827  0.00  0.00    +0.000 HD
ENDBRANCH  13  16
ENDBRANCH   5  13
TORSDOF 3
ENDMDL
MODEL 4
REMARK VINA RESULT:    -7.065      2.394      6.561
REMARK INTER + INTRA:          -8.754
REMARK INTER:                  -8.600
REMARK INTRA:                  -0.154
REMARK UNBOUND:                -0.450
REMARK  Name = 
REMARK  3 active torsions:
REMARK  status: ('A' for Active; 'I' for Inactive)
REMARK    1  A    between atoms: C_4  and  C_5
REMARK    2  A    between atoms: C_9  and  C_10
REMARK    3  A    between atoms: C_10  and  N_11
REMARK                            x       y       z     vdW  Elec       q    Type
REMARK                         _______ _______ _______ _____ _____    ______ ____
ROOT
ATOM      1  C   UNL     1      45.259   3.065   9.191  0.00  0.00    +0.000 A 
ATOM      2  C   UNL     1      44.311   2.279   9.865  0.00  0.00    +0.000 A 
ATOM      3  C   UNL     1      43.669   2.755  11.012  0.00  0.00    +0.000 A 
ATOM      4  C   UNL     1      43.942   4.034  11.495  0.00  0.00    +0.000 A 
ATOM      5  C   UNL     1      44.863   4.869  10.846  0.00  0.00    +0.000 A 
ATOM      6  C   UNL     1      45.517   4.342   9.719  0.00  0.00    +0.000 A 
ENDROOT
BRANCH   1  10
ATOM      7  C   UNL     1      47.453   1.770   5.716  0.00  0.00    +0.000 A 
ATOM      8  C   UNL     1      46.911   3.047   5.764  0.00  0.00    +0.000 A 
ATOM      9  C   UNL     1      46.175   3.450   6.879  0.00  0.00    +0.000 A 
ATOM     10  C   UNL     1      45.977   2.597   7.985  0.00  0.00    +0.000 A 
ATOM     11  C   UNL     1      46.525   1.305   7.903  0.00  0.00    +0.000 A 
ATOM     12  C   UNL     1      47.253   0.894   6.782  0.00  0.00    +0.000 A 
ENDBRANCH   1  10
BRANCH   5  13
ATOM     13  C   UNL     1      45.157   6.292  11.307  0.00  0.00    +0.000 C 
ATOM     14  C   UNL     1      44.460   6.754  12.577  0.00  0.00    +0.000 C 
ATOM     15  C   UNL     1      44.034   7.323  11.266  0.00  0.00    +0.000 C 
BRANCH  13  16
ATOM     16  N   UNL     1      46.518   6.762  11.025  0.00  0.00    +0.000 N 
ATOM     17  C   UNL     1      47.459   6.898  12.052  0.00  0.00    +0.000 A 
ATOM     18  N   UNL     1      47.219   6.375  13.269  0.00  0.00    +0.000 NA
ATOM     19  C   UNL     1      48.170   6.517  14.207  0.00  0.00    +0.000 A 
ATOM     20  C   UNL     1      49.370   7.136  13.974  0.00  0.00    +0.000 A 
ATOM     21  C   UNL     1      49.532   7.630  12.704  0.00  0.00    +0.000 A 
ATOM     22  N   UNL     1      48.595   7.539  11.738  0.00  0.00    +0.000 NA
ATOM     23  H   UNL     1      46.683   7.493  10.346  0.00  0.00    +0.000 HD
ENDBRANCH  13  16
ENDBRANCH   5  13
TORSDOF 3
ENDMDL
MODEL 5
REMARK VINA RESULT:    -7.026      3.236      6.851
REMARK INTER + INTRA:          -8.708
REMARK INTER:                  -8.192
REMARK INTRA:                  -0.516
REMARK UNBOUND:                -0.450
REMARK  Name = 
REMARK  3 active torsions:
REMARK  status: ('A' for Active; 'I' for Inactive)
REMARK    1  A    between atoms: C_4  and  C_5
REMARK    2  A    between atoms: C_9  and  C_10
REMARK    3  A    between atoms: C_10  and  N_11
REMARK                            x       y       z     vdW  Elec       q    Type
REMARK                         _______ _______ _______ _____ _____    ______ ____
ROOT
ATOM      1  C   UNL     1      44.609   4.681  10.462  0.00  0.00    +0.000 A 
ATOM      2  C   UNL     1      43.355   4.391  11.023  0.00  0.00    +0.000 A 
ATOM      3  C   UNL     1      42.829   5.178  12.052  0.00  0.00    +0.000 A 
ATOM      4  C   UNL     1      43.532   6.286  12.524  0.00  0.00    +0.000 A 
ATOM      5  C   UNL     1      44.779   6.633  11.982  0.00  0.00    +0.000 A 
ATOM      6  C   UNL     1      45.293   5.796  10.977  0.00  0.00    +0.000 A 
ENDROOT
BRANCH   1  10
ATOM      7  C   UNL     1      46.485   2.329   7.379  0.00  0.00    +0.000 A 
ATOM      8  C   UNL     1      46.519   3.716   7.317  0.00  0.00    +0.000 A 
ATOM      9  C   UNL     1      45.882   4.472   8.303  0.00  0.00    +0.000 A 
ATOM     10  C   UNL     1      45.213   3.865   9.386  0.00  0.00    +0.000 A 
ATOM     11  C   UNL     1      45.184   2.461   9.415  0.00  0.00    +0.000 A 
ATOM     12  C   UNL     1      45.810   1.700   8.422  0.00  0.00    +0.000 A 
ENDBRANCH   1  10
BRANCH   5  13
ATOM     13  C   UNL     1      45.561   7.863  12.430  0.00  0.00    +0.000 C 
ATOM     14  C   UNL     1      46.928   8.068  11.796  0.00  0.00    +0.000 C 
ATOM     15  C   UNL     1      46.844   7.665  13.229  0.00  0.00    +0.000 C 
BRANCH  13  16
ATOM     16  N   UNL     1      44.737   9.034  12.750  0.00  0.00    +0.000 N 
ATOM     17  C   UNL     1      44.237   9.860  11.737  0.00  0.00    +0.000 A 
ATOM     18  N   UNL     1      44.292   9.469  10.451  0.00  0.00    +0.000 NA
ATOM     19  C   UNL     1      43.775  10.295   9.525  0.00  0.00    +0.000 A 
ATOM     20  C   UNL     1      43.175  11.487   9.833  0.00  0.00    +0.000 A 
ATOM     21  C   UNL     1      43.154  11.800  11.169  0.00  0.00    +0.000 A 
ATOM     22  N   UNL     1      43.688  11.019  12.130  0.00  0.00    +0.000 NA
ATOM     23  H   UNL     1      44.947   9.611  13.554  0.00  0.00    +0.000 HD
ENDBRANCH  13  16
ENDBRANCH   5  13
TORSDOF 3
ENDMDL
MODEL 6
REMARK VINA RESULT:    -6.628      2.401      6.500
REMARK INTER + INTRA:          -8.241
REMARK INTER:                  -7.771
REMARK INTRA:                  -0.470
REMARK UNBOUND:                -0.450
REMARK  Name = 
REMARK  3 active torsions:
REMARK  status: ('A' for Active; 'I' for Inactive)
REMARK    1  A    between atoms: C_4  and  C_5
REMARK    2  A    between atoms: C_9  and  C_10
REMARK    3  A    between atoms: C_10  and  N_11
REMARK                            x       y       z     vdW  Elec       q    Type
REMARK                         _______ _______ _______ _____ _____    ______ ____
ROOT
ATOM      1  C   UNL     1      44.937   4.104  10.000  0.00  0.00    +0.000 A 
ATOM      2  C   UNL     1      43.578   4.456  10.030  0.00  0.00    +0.000 A 
ATOM      3  C   UNL     1      43.034   5.122  11.132  0.00  0.00    +0.000 A 
ATOM      4  C   UNL     1      43.839   5.471  12.215  0.00  0.00    +0.000 A 
ATOM      5  C   UNL     1      45.208   5.163  12.225  0.00  0.00    +0.000 A 
ATOM      6  C   UNL     1      45.711   4.460  11.118  0.00  0.00    +0.000 A 
ENDROOT
BRANCH   1  10
ATOM      7  C   UNL     1      46.846   2.043   6.733  0.00  0.00    +0.000 A 
ATOM      8  C   UNL     1      46.698   3.423   6.697  0.00  0.00    +0.000 A 
ATOM      9  C   UNL     1      46.050   4.081   7.743  0.00  0.00    +0.000 A 
ATOM     10  C   UNL     1      45.553   3.383   8.864  0.00  0.00    +0.000 A 
ATOM     11  C   UNL     1      45.705   1.986   8.867  0.00  0.00    +0.000 A 
ATOM     12  C   UNL     1      46.342   1.322   7.814  0.00  0.00    +0.000 A 
ENDBRANCH   1  10
BRANCH   5  13
ATOM     13  C   UNL     1      46.138   5.569  13.363  0.00  0.00    +0.000 C 
ATOM     14  C   UNL     1      47.364   4.698  13.583  0.00  0.00    +0.000 C 
ATOM     15  C   UNL     1      46.254   4.655  14.577  0.00  0.00    +0.000 C 
BRANCH  13  16
ATOM     16  N   UNL     1      46.236   7.015  13.592  0.00  0.00    +0.000 N 
ATOM     17  C   UNL     1      47.258   7.768  13.003  0.00  0.00    +0.000 A 
ATOM     18  N   UNL     1      48.021   7.237  12.030  0.00  0.00    +0.000 NA
ATOM     19  C   UNL     1      48.971   8.017  11.487  0.00  0.00    +0.000 A 
ATOM     20  C   UNL     1      49.175   9.321  11.855  0.00  0.00    +0.000 A 
ATOM     21  C   UNL     1      48.346   9.781  12.847  0.00  0.00    +0.000 A 
ATOM     22  N   UNL     1      47.399   9.028  13.443  0.00  0.00    +0.000 NA
ATOM     23  H   UNL     1      46.036   7.410  14.501  0.00  0.00    +0.000 HD
ENDBRANCH  13  16
ENDBRANCH   5  13
TORSDOF 3
ENDMDL
MODEL 7
REMARK VINA RESULT:    -6.403      3.428      7.335
REMARK INTER + INTRA:          -7.977
REMARK INTER:                  -7.533
REMARK INTRA:                  -0.444
REMARK UNBOUND:                -0.450
REMARK  Name = 
REMARK  3 active torsions:
REMARK  status: ('A' for Active; 'I' for Inactive)
REMARK    1  A    between atoms: C_4  and  C_5
REMARK    2  A    between atoms: C_9  and  C_10
REMARK    3  A    between atoms: C_10  and  N_11
REMARK                            x       y       z     vdW  Elec       q    Type
REMARK                         _______ _______ _______ _____ _____    ______ ____
ROOT
ATOM      1  C   UNL     1      45.637   6.367  11.125  0.00  0.00    +0.000 A 
ATOM      2  C   UNL     1      44.772   7.445  11.374  0.00  0.00    +0.000 A 
ATOM      3  C   UNL     1      45.225   8.591  12.033  0.00  0.00    +0.000 A 
ATOM      4  C   UNL     1      46.556   8.696  12.434  0.00  0.00    +0.000 A 
ATOM      5  C   UNL     1      47.467   7.658  12.189  0.00  0.00    +0.000 A 
ATOM      6  C   UNL     1      46.967   6.506  11.559  0.00  0.00    +0.000 A 
ENDROOT
BRANCH   1  10
ATOM      7  C   UNL     1      44.477   2.710   9.165  0.00  0.00    +0.000 A 
ATOM      8  C   UNL     1      45.188   3.679   8.470  0.00  0.00    +0.000 A 
ATOM      9  C   UNL     1      45.533   4.875   9.101  0.00  0.00    +0.000 A 
ATOM     10  C   UNL     1      45.197   5.127  10.448  0.00  0.00    +0.000 A 
ATOM     11  C   UNL     1      44.466   4.134  11.122  0.00  0.00    +0.000 A 
ATOM     12  C   UNL     1      44.107   2.939  10.489  0.00  0.00    +0.000 A 
ENDBRANCH   1  10
BRANCH   5  13
ATOM     13  C   UNL     1      48.943   7.747  12.563  0.00  0.00    +0.000 C 
ATOM     14  C   UNL     1      49.578   9.127  12.503  0.00  0.00    +0.000 C 
ATOM     15  C   UNL     1      49.953   8.108  11.480  0.00  0.00    +0.000 C 
BRANCH  13  16
ATOM     16  N   UNL     1      49.371   6.805  13.604  0.00  0.00    +0.000 N 
ATOM     17  C   UNL     1      49.250   7.129  14.959  0.00  0.00    +0.000 A 
ATOM     18  N   UNL     1      48.522   8.193  15.343  0.00  0.00    +0.000 NA
ATOM     19  C   UNL     1      48.423   8.439  16.660  0.00  0.00    +0.000 A 
ATOM     20  C   UNL     1      48.999   7.647  17.619  0.00  0.00    +0.000 A 
ATOM     21  C   UNL     1      49.714   6.580  17.137  0.00  0.00    +0.000 A 
ATOM     22  N   UNL     1      49.867   6.310  15.825  0.00  0.00    +0.000 NA
ATOM     23  H   UNL     1      50.207   6.248  13.485  0.00  0.00    +0.000 HD
ENDBRANCH  13  16
ENDBRANCH   5  13
TORSDOF 3
ENDMDL
MODEL 8
REMARK VINA RESULT:    -6.148      2.859      6.611
REMARK INTER + INTRA:          -7.676
REMARK INTER:                  -7.110
REMARK INTRA:                  -0.566
REMARK UNBOUND:                -0.450
REMARK  Name = 
REMARK  3 active torsions:
REMARK  status: ('A' for Active; 'I' for Inactive)
REMARK    1  A    between atoms: C_4  and  C_5
REMARK    2  A    between atoms: C_9  and  C_10
REMARK    3  A    between atoms: C_10  and  N_11
REMARK                            x       y       z     vdW  Elec       q    Type
REMARK                         _______ _______ _______ _____ _____    ______ ____
ROOT
ATOM      1  C   UNL     1      45.077   4.637  10.630  0.00  0.00    +0.000 A 
ATOM      2  C   UNL     1      44.147   4.201  11.587  0.00  0.00    +0.000 A 
ATOM      3  C   UNL     1      43.811   5.004  12.680  0.00  0.00    +0.000 A 
ATOM      4  C   UNL     1      44.378   6.270  12.828  0.00  0.00    +0.000 A 
ATOM      5  C   UNL     1      45.295   6.763  11.888  0.00  0.00    +0.000 A 
ATOM      6  C   UNL     1      45.638   5.912  10.824  0.00  0.00    +0.000 A 
ENDROOT
BRANCH   1  10
ATOM      7  C   UNL     1      46.119   2.224   7.216  0.00  0.00    +0.000 A 
ATOM      8  C   UNL     1      45.662   1.624   8.382  0.00  0.00    +0.000 A 
ATOM      9  C   UNL     1      45.356   2.409   9.495  0.00  0.00    +0.000 A 
ATOM     10  C   UNL     1      45.477   3.814   9.467  0.00  0.00    +0.000 A 
ATOM     11  C   UNL     1      45.955   4.393   8.279  0.00  0.00    +0.000 A 
ATOM     12  C   UNL     1      46.275   3.608   7.166  0.00  0.00    +0.000 A 
ENDBRANCH   1  10
BRANCH   5  13
ATOM     13  C   UNL     1      45.903   8.159  11.979  0.00  0.00    +0.000 C 
ATOM     14  C   UNL     1      45.228   9.134  12.930  0.00  0.00    +0.000 C 
ATOM     15  C   UNL     1      45.098   9.344  11.460  0.00  0.00    +0.000 C 
BRANCH  13  16
ATOM     16  N   UNL     1      47.360   8.207  11.819  0.00  0.00    +0.000 N 
ATOM     17  C   UNL     1      48.211   7.915  12.891  0.00  0.00    +0.000 A 
ATOM     18  N   UNL     1      47.725   7.351  14.012  0.00  0.00    +0.000 NA
ATOM     19  C   UNL     1      48.595   7.072  14.997  0.00  0.00    +0.000 A 
ATOM     20  C   UNL     1      49.942   7.306  14.901  0.00  0.00    +0.000 A 
ATOM     21  C   UNL     1      50.349   7.873  13.720  0.00  0.00    +0.000 A 
ATOM     22  N   UNL     1      49.511   8.199  12.715  0.00  0.00    +0.000 NA
ATOM     23  H   UNL     1      47.796   8.926  11.257  0.00  0.00    +0.000 HD
ENDBRANCH  13  16
ENDBRANCH   5  13
TORSDOF 3
ENDMDL
MODEL 9
REMARK VINA RESULT:    -6.073      4.568      7.532
REMARK INTER + INTRA:          -7.588
REMARK INTER:                  -7.349
REMARK INTRA:                  -0.238
REMARK UNBOUND:                -0.450
REMARK  Name = 
REMARK  3 active torsions:
REMARK  status: ('A' for Active; 'I' for Inactive)
REMARK    1  A    between atoms: C_4  and  C_5
REMARK    2  A    between atoms: C_9  and  C_10
REMARK    3  A    between atoms: C_10  and  N_11
REMARK                            x       y       z     vdW  Elec       q    Type
REMARK                         _______ _______ _______ _____ _____    ______ ____
ROOT
ATOM      1  C   UNL     1      47.113   5.675  13.477  0.00  0.00    +0.000 A 
ATOM      2  C   UNL     1      47.896   6.779  13.106  0.00  0.00    +0.000 A 
ATOM      3  C   UNL     1      48.792   7.360  14.009  0.00  0.00    +0.000 A 
ATOM      4  C   UNL     1      48.943   6.834  15.292  0.00  0.00    +0.000 A 
ATOM      5  C   UNL     1      48.201   5.718  15.705  0.00  0.00    +0.000 A 
ATOM      6  C   UNL     1      47.282   5.186  14.785  0.00  0.00    +0.000 A 
ENDROOT
BRANCH   1  10
ATOM      7  C   UNL     1      44.373   3.788  10.740  0.00  0.00    +0.000 A 
ATOM      8  C   UNL     1      44.946   5.012  10.421  0.00  0.00    +0.000 A 
ATOM      9  C   UNL     1      45.809   5.633  11.326  0.00  0.00    +0.000 A 
ATOM     10  C   UNL     1      46.138   5.040  12.563  0.00  0.00    +0.000 A 
ATOM     11  C   UNL     1      45.533   3.808  12.865  0.00  0.00    +0.000 A 
ATOM     12  C   UNL     1      44.658   3.189  11.965  0.00  0.00    +0.000 A 
ENDBRANCH   1  10
BRANCH   5  13
ATOM     13  C   UNL     1      48.367   5.078  17.079  0.00  0.00    +0.000 C 
ATOM     14  C   UNL     1      47.398   3.960  17.431  0.00  0.00    +0.000 C 
ATOM     15  C   UNL     1      47.270   5.277  18.119  0.00  0.00    +0.000 C 
BRANCH  13  16
ATOM     16  N   UNL     1      49.751   5.004  17.560  0.00  0.00    +0.000 N 
ATOM     17  C   UNL     1      50.449   3.791  17.558  0.00  0.00    +0.000 A 
ATOM     18  N   UNL     1      49.961   2.726  16.896  0.00  0.00    +0.000 NA
ATOM     19  C   UNL     1      50.689   1.596  16.910  0.00  0.00    +0.000 A 
ATOM     20  C   UNL     1      51.903   1.491  17.536  0.00  0.00    +0.000 A 
ATOM     21  C   UNL     1      52.326   2.628  18.177  0.00  0.00    +0.000 A 
ATOM     22  N   UNL     1      51.618   3.775  18.216  0.00  0.00    +0.000 NA
ATOM     23  H   UNL     1      50.049   5.538  18.366  0.00  0.00    +0.000 HD
ENDBRANCH  13  16
ENDBRANCH   5  13
TORSDOF 3
ENDMDL
