MODEL 1
REMARK VINA RESULT:    -7.545      0.000      0.000
REMARK INTER + INTRA:         -11.230
REMARK INTER:                  -9.750
REMARK INTRA:                  -1.480
REMARK UNBOUND:                -1.480
REMARK  Name = 
REMARK  5 active torsions:
REMARK  status: ('A' for Active; 'I' for Inactive)
REMARK    1  A    between atoms: C_2  and  C_5
REMARK    2  A    between atoms: C_10  and  N_11
REMARK    3  A    between atoms: N_11  and  C_12
REMARK    4  A    between atoms: C_12  and  C_13
REMARK    5  A    between atoms: C_17  and  C_18
REMARK                            x       y       z     vdW  Elec       q    Type
REMARK                         _______ _______ _______ _____ _____    ______ ____
ROOT
ATOM      1  C   UNL     1      43.607   6.558  11.422  0.00  0.00    +0.000 C 
ENDROOT
BRANCH   1   2
ATOM      2  C   UNL     1      43.632   5.107  11.008  0.00  0.00    +0.000 A 
ATOM      3  C   UNL     1      43.075   4.114  11.818  0.00  0.00    +0.000 A 
ATOM      4  C   UNL     1      43.240   2.789  11.450  0.00  0.00    +0.000 A 
ATOM      5  N   UNL     1      43.903   2.394  10.341  0.00  0.00    +0.000 NA
ATOM      6  C   UNL     1      44.418   3.358   9.540  0.00  0.00    +0.000 A 
ATOM      7  C   UNL     1      44.288   4.714   9.838  0.00  0.00    +0.000 A 
BRANCH   6   8
ATOM      8  C   UNL     1      45.189   2.922   8.311  0.00  0.00    +0.000 C 
ATOM      9  C   UNL     1      45.994   1.644   8.568  0.00  0.00    +0.000 C 
ATOM     10  C   UNL     1      46.804   1.276   7.333  0.00  0.00    +0.000 C 
ATOM     11  O   UNL     1      47.650   2.354   6.935  0.00  0.00    +0.000 OA
ATOM     12  C   UNL     1      46.914   3.529   6.597  0.00  0.00    +0.000 C 
ATOM     13  C   UNL     1      46.111   4.031   7.790  0.00  0.00    +0.000 C 
ENDBRANCH   6   8
ENDBRANCH   1   2
BRANCH   1  14
ATOM     14  N   UNL     1      44.392   6.798  12.618  0.00  0.00    +0.000 N 
ATOM     15  H   UNL     1      44.069   7.602  13.157  0.00  0.00    +0.000 HD
BRANCH  14  21
ATOM     16  C   UNL     1      46.694   5.954  12.990  0.00  0.00    +0.000 A 
ATOM     17  C   UNL     1      48.026   6.331  12.924  0.00  0.00    +0.000 A 
ATOM     18  N   UNL     1      48.460   7.520  12.476  0.00  0.00    +0.000 NA
ATOM     19  C   UNL     1      47.500   8.357  12.089  0.00  0.00    +0.000 A 
ATOM     20  N   UNL     1      46.180   8.100  12.117  0.00  0.00    +0.000 NA
ATOM     21  C   UNL     1      45.775   6.895  12.570  0.00  0.00    +0.000 A 
BRANCH  16  23
ATOM     22  F   UNL     1      46.211   3.664  12.525  0.00  0.00    +0.000 F 
ATOM     23  C   UNL     1      46.379   4.598  13.509  0.00  0.00    +0.000 C 
ATOM     24  F   UNL     1      45.213   4.562  14.215  0.00  0.00    +0.000 F 
ATOM     25  F   UNL     1      47.336   4.082  14.327  0.00  0.00    +0.000 F 
ENDBRANCH  16  23
ENDBRANCH  14  21
ENDBRANCH   1  14
TORSDOF 5
ENDMDL
MODEL 2
REMARK VINA RESULT:    -6.635      2.308      2.863
REMARK INTER + INTRA:         -10.054
REMARK INTER:                  -8.740
REMARK INTRA:                  -1.314
REMARK UNBOUND:                -1.480
REMARK  Name = 
REMARK  5 active torsions:
REMARK  status: ('A' for Active; 'I' for Inactive)
REMARK    1  A    between atoms: C_2  and  C_5
REMARK    2  A    between atoms: C_10  and  N_11
REMARK    3  A    between atoms: N_11  and  C_12
REMARK    4  A    between atoms: C_12  and  C_13
REMARK    5  A    between atoms: C_17  and  C_18
REMARK                            x       y       z     vdW  Elec       q    Type
REMARK                         _______ _______ _______ _____ _____    ______ ____
ROOT
ATOM      1  C   UNL     1      45.734   4.749  13.780  0.00  0.00    +0.000 C 
ENDROOT
BRANCH   1   2
ATOM      2  C   UNL     1      44.906   4.849  12.523  0.00  0.00    +0.000 A 
ATOM      3  C   UNL     1      43.648   5.457  12.533  0.00  0.00    +0.000 A 
ATOM      4  C   UNL     1      42.879   5.408  11.381  0.00  0.00    +0.000 A 
ATOM      5  N   UNL     1      43.279   4.813  10.235  0.00  0.00    +0.000 NA
ATOM      6  C   UNL     1      44.511   4.249  10.217  0.00  0.00    +0.000 A 
ATOM      7  C   UNL     1      45.347   4.263  11.333  0.00  0.00    +0.000 A 
BRANCH   6   8
ATOM      8  C   UNL     1      44.954   3.554   8.946  0.00  0.00    +0.000 C 
ATOM      9  C   UNL     1      45.463   2.134   9.223  0.00  0.00    +0.000 C 
ATOM     10  C   UNL     1      45.959   1.495   7.934  0.00  0.00    +0.000 C 
ATOM     11  O   UNL     1      46.964   2.297   7.317  0.00  0.00    +0.000 OA
ATOM     12  C   UNL     1      46.486   3.594   6.963  0.00  0.00    +0.000 C 
ATOM     13  C   UNL     1      46.021   4.359   8.195  0.00  0.00    +0.000 C 
ENDBRANCH   6   8
ENDBRANCH   1   2
BRANCH   1  14
ATOM     14  N   UNL     1      47.140   5.001  13.529  0.00  0.00    +0.000 N 
ATOM     15  H   UNL     1      47.738   4.206  13.756  0.00  0.00    +0.000 HD
BRANCH  14  21
ATOM     16  C   UNL     1      47.903   7.358  13.433  0.00  0.00    +0.000 A 
ATOM     17  C   UNL     1      48.674   8.292  14.108  0.00  0.00    +0.000 A 
ATOM     18  N   UNL     1      49.277   8.072  15.287  0.00  0.00    +0.000 NA
ATOM     19  C   UNL     1      49.095   6.853  15.790  0.00  0.00    +0.000 A 
ATOM     20  N   UNL     1      48.376   5.870  15.220  0.00  0.00    +0.000 NA
ATOM     21  C   UNL     1      47.778   6.123  14.037  0.00  0.00    +0.000 A 
BRANCH  16  23
ATOM     22  F   UNL     1      47.605   6.916  11.107  0.00  0.00    +0.000 F 
ATOM     23  C   UNL     1      47.298   7.761  12.136  0.00  0.00    +0.000 C 
ATOM     24  F   UNL     1      47.728   8.984  11.713  0.00  0.00    +0.000 F 
ATOM     25  F   UNL     1      45.939   7.819  12.154  0.00  0.00    +0.000 F 
ENDBRANCH  16  23
ENDBRANCH  14  21
ENDBRANCH   1  14
TORSDOF 5
ENDMDL
MODEL 3
REMARK VINA RESULT:    -6.582      1.306      1.742
REMARK INTER + INTRA:          -9.986
REMARK INTER:                  -8.700
REMARK INTRA:                  -1.286
REMARK UNBOUND:                -1.480
REMARK  Name = 
REMARK  5 active torsions:
REMARK  status: ('A' for Active; 'I' for Inactive)
REMARK    1  A    between atoms: C_2  and  C_5
REMARK    2  A    between atoms: C_10  and  N_11
REMARK    3  A    between atoms: N_11  and  C_12
REMARK    4  A    between atoms: C_12  and  C_13
REMARK    5  A    between atoms: C_17  and  C_18
REMARK                            x       y       z     vdW  Elec       q    Type
REMARK                         _______ _______ _______ _____ _____    ______ ____
ROOT
ATOM      1  C   UNL     1      45.302   7.141  12.223  0.00  0.00    +0.000 C 
ENDROOT
BRANCH   1   2
ATOM      2  C   UNL     1      44.570   5.979  11.598  0.00  0.00    +0.000 A 
ATOM      3  C   UNL     1      43.420   5.447  12.188  0.00  0.00    +0.000 A 
ATOM      4  C   UNL     1      42.864   4.302  11.641  0.00  0.00    +0.000 A 
ATOM      5  N   UNL     1      43.362   3.668  10.556  0.00  0.00    +0.000 NA
ATOM      6  C   UNL     1      44.459   4.201   9.967  0.00  0.00    +0.000 A 
ATOM      7  C   UNL     1      45.074   5.355  10.453  0.00  0.00    +0.000 A 
BRANCH   6   8
ATOM      8  C   UNL     1      45.041   3.480   8.769  0.00  0.00    +0.000 C 
ATOM      9  C   UNL     1      45.619   2.113   9.154  0.00  0.00    +0.000 C 
ATOM     10  C   UNL     1      46.251   1.450   7.938  0.00  0.00    +0.000 C 
ATOM     11  O   UNL     1      47.245   2.290   7.355  0.00  0.00    +0.000 OA
ATOM     12  C   UNL     1      46.711   3.533   6.901  0.00  0.00    +0.000 C 
ATOM     13  C   UNL     1      46.107   4.321   8.055  0.00  0.00    +0.000 C 
ENDBRANCH   6   8
ENDBRANCH   1   2
BRANCH   1  14
ATOM     14  N   UNL     1      46.742   6.980  12.151  0.00  0.00    +0.000 N 
ATOM     15  H   UNL     1      47.030   6.177  11.591  0.00  0.00    +0.000 HD
BRANCH  14  21
ATOM     16  C   UNL     1      47.617   5.940  14.225  0.00  0.00    +0.000 A 
ATOM     17  C   UNL     1      48.404   6.200  15.337  0.00  0.00    +0.000 A 
ATOM     18  N   UNL     1      49.074   7.345  15.545  0.00  0.00    +0.000 NA
ATOM     19  C   UNL     1      48.927   8.261  14.591  0.00  0.00    +0.000 A 
ATOM     20  N   UNL     1      48.185   8.120  13.478  0.00  0.00    +0.000 NA
ATOM     21  C   UNL     1      47.527   6.956  13.295  0.00  0.00    +0.000 A 
BRANCH  16  23
ATOM     22  F   UNL     1      45.602   4.674  14.395  0.00  0.00    +0.000 F 
ATOM     23  C   UNL     1      46.944   4.618  14.142  0.00  0.00    +0.000 C 
ATOM     24  F   UNL     1      47.425   3.724  15.052  0.00  0.00    +0.000 F 
ATOM     25  F   UNL     1      47.050   4.018  12.925  0.00  0.00    +0.000 F 
ENDBRANCH  16  23
ENDBRANCH  14  21
ENDBRANCH   1  14
TORSDOF 5
ENDMDL
MODEL 4
REMARK VINA RESULT:    -6.537      2.332      2.758
REMARK INTER + INTRA:          -9.928
REMARK INTER:                  -9.192
REMARK INTRA:                  -0.736
REMARK UNBOUND:                -1.480
REMARK  Name = 
REMARK  5 active torsions:
REMARK  status: ('A' for Active; 'I' for Inactive)
REMARK    1  A    between atoms: C_2  and  C_5
REMARK    2  A    between atoms: C_10  and  N_11
REMARK    3  A    between atoms: N_11  and  C_12
REMARK    4  A    between atoms: C_12  and  C_13
REMARK    5  A    between atoms: C_17  and  C_18
REMARK                            x       y       z     vdW  Elec       q    Type
REMARK                         _______ _______ _______ _____ _____    ______ ____
ROOT
ATOM      1  C   UNL     1      44.944   6.423  11.425  0.00  0.00    +0.000 C 
ENDROOT
BRANCH   1   2
ATOM      2  C   UNL     1      44.544   5.070  10.891  0.00  0.00    +0.000 A 
ATOM      3  C   UNL     1      43.670   4.242  11.601  0.00  0.00    +0.000 A 
ATOM      4  C   UNL     1      43.438   2.961  11.125  0.00  0.00    +0.000 A 
ATOM      5  N   UNL     1      44.000   2.462  10.003  0.00  0.00    +0.000 NA
ATOM      6  C   UNL     1      44.824   3.275   9.299  0.00  0.00    +0.000 A 
ATOM      7  C   UNL     1      45.103   4.580   9.707  0.00  0.00    +0.000 A 
BRANCH   6   8
ATOM      8  C   UNL     1      45.483   2.714   8.055  0.00  0.00    +0.000 C 
ATOM      9  C   UNL     1      46.225   1.404   8.348  0.00  0.00    +0.000 C 
ATOM     10  C   UNL     1      46.926   0.907   7.091  0.00  0.00    +0.000 C 
ATOM     11  O   UNL     1      47.807   1.900   6.569  0.00  0.00    +0.000 OA
ATOM     12  C   UNL     1      47.123   3.097   6.200  0.00  0.00    +0.000 C 
ATOM     13  C   UNL     1      46.434   3.725   7.404  0.00  0.00    +0.000 C 
ENDBRANCH   6   8
ENDBRANCH   1   2
BRANCH   1  14
ATOM     14  N   UNL     1      46.384   6.597  11.445  0.00  0.00    +0.000 N 
ATOM     15  H   UNL     1      46.870   6.005  10.770  0.00  0.00    +0.000 HD
BRANCH  14  21
ATOM     16  C   UNL     1      48.209   7.267  12.984  0.00  0.00    +0.000 A 
ATOM     17  C   UNL     1      48.816   6.925  14.183  0.00  0.00    +0.000 A 
ATOM     18  N   UNL     1      48.399   5.940  14.994  0.00  0.00    +0.000 NA
ATOM     19  C   UNL     1      47.330   5.275  14.564  0.00  0.00    +0.000 A 
ATOM     20  N   UNL     1      46.667   5.515  13.417  0.00  0.00    +0.000 NA
ATOM     21  C   UNL     1      47.109   6.514  12.625  0.00  0.00    +0.000 A 
BRANCH  16  23
ATOM     22  F   UNL     1      49.763   9.074  12.877  0.00  0.00    +0.000 F 
ATOM     23  C   UNL     1      48.792   8.388  12.203  0.00  0.00    +0.000 C 
ATOM     24  F   UNL     1      47.870   9.337  11.875  0.00  0.00    +0.000 F 
ATOM     25  F   UNL     1      49.376   8.003  11.035  0.00  0.00    +0.000 F 
ENDBRANCH  16  23
ENDBRANCH  14  21
ENDBRANCH   1  14
TORSDOF 5
ENDMDL
MODEL 5
REMARK VINA RESULT:    -6.511      1.779      2.136
REMARK INTER + INTRA:          -9.894
REMARK INTER:                  -8.765
REMARK INTRA:                  -1.128
REMARK UNBOUND:                -1.480
REMARK  Name = 
REMARK  5 active torsions:
REMARK  status: ('A' for Active; 'I' for Inactive)
REMARK    1  A    between atoms: C_2  and  C_5
REMARK    2  A    between atoms: C_10  and  N_11
REMARK    3  A    between atoms: N_11  and  C_12
REMARK    4  A    between atoms: C_12  and  C_13
REMARK    5  A    between atoms: C_17  and  C_18
REMARK                            x       y       z     vdW  Elec       q    Type
REMARK                         _______ _______ _______ _____ _____    ______ ____
ROOT
ATOM      1  C   UNL     1      43.670   6.381  11.985  0.00  0.00    +0.000 C 
ENDROOT
BRANCH   1   2
ATOM      2  C   UNL     1      43.674   4.969  11.454  0.00  0.00    +0.000 A 
ATOM      3  C   UNL     1      43.157   3.911  12.207  0.00  0.00    +0.000 A 
ATOM      4  C   UNL     1      43.303   2.621  11.724  0.00  0.00    +0.000 A 
ATOM      5  N   UNL     1      43.910   2.320  10.555  0.00  0.00    +0.000 NA
ATOM      6  C   UNL     1      44.385   3.348   9.811  0.00  0.00    +0.000 A 
ATOM      7  C   UNL     1      44.271   4.675  10.224  0.00  0.00    +0.000 A 
BRANCH   6   8
ATOM      8  C   UNL     1      45.093   3.017   8.513  0.00  0.00    +0.000 C 
ATOM      9  C   UNL     1      45.881   1.706   8.615  0.00  0.00    +0.000 C 
ATOM     10  C   UNL     1      46.630   1.442   7.315  0.00  0.00    +0.000 C 
ATOM     11  O   UNL     1      47.481   2.537   6.983  0.00  0.00    +0.000 OA
ATOM     12  C   UNL     1      46.757   3.751   6.789  0.00  0.00    +0.000 C 
ATOM     13  C   UNL     1      46.016   4.153   8.057  0.00  0.00    +0.000 C 
ENDBRANCH   6   8
ENDBRANCH   1   2
BRANCH   1  14
ATOM     14  N   UNL     1      44.130   7.337  10.997  0.00  0.00    +0.000 N 
ATOM     15  H   UNL     1      44.584   6.900  10.195  0.00  0.00    +0.000 HD
BRANCH  14  21
ATOM     16  C   UNL     1      46.225   8.386  11.810  0.00  0.00    +0.000 A 
ATOM     17  C   UNL     1      46.770   9.604  12.186  0.00  0.00    +0.000 A 
ATOM     18  N   UNL     1      46.125  10.781  12.117  0.00  0.00    +0.000 NA
ATOM     19  C   UNL     1      44.878  10.710  11.656  0.00  0.00    +0.000 A 
ATOM     20  N   UNL     1      44.248   9.585  11.271  0.00  0.00    +0.000 NA
ATOM     21  C   UNL     1      44.924   8.419  11.349  0.00  0.00    +0.000 A 
BRANCH  16  23
ATOM     22  F   UNL     1      46.964   6.313  10.887  0.00  0.00    +0.000 F 
ATOM     23  C   UNL     1      47.073   7.173  11.944  0.00  0.00    +0.000 C 
ATOM     24  F   UNL     1      46.745   6.420  13.032  0.00  0.00    +0.000 F 
ATOM     25  F   UNL     1      48.404   7.437  12.050  0.00  0.00    +0.000 F 
ENDBRANCH  16  23
ENDBRANCH  14  21
ENDBRANCH   1  14
TORSDOF 5
ENDMDL
MODEL 6
REMARK VINA RESULT:    -6.429      3.483      5.456
REMARK INTER + INTRA:          -9.788
REMARK INTER:                  -8.773
REMARK INTRA:                  -1.015
REMARK UNBOUND:                -1.480
REMARK  Name = 
REMARK  5 active torsions:
REMARK  status: ('A' for Active; 'I' for Inactive)
REMARK    1  A    between atoms: C_2  and  C_5
REMARK    2  A    between atoms: C_10  and  N_11
REMARK    3  A    between atoms: N_11  and  C_12
REMARK    4  A    between atoms: C_12  and  C_13
REMARK    5  A    between atoms: C_17  and  C_18
REMARK                            x       y       z     vdW  Elec       q    Type
REMARK                         _______ _______ _______ _____ _____    ______ ____
ROOT
ATOM      1  C   UNL     1      48.952   7.153  14.763  0.00  0.00    +0.000 C 
ENDROOT
BRANCH   1   2
ATOM      2  C   UNL     1      47.741   7.215  13.864  0.00  0.00    +0.000 A 
ATOM      3  C   UNL     1      47.072   8.420  13.636  0.00  0.00    +0.000 A 
ATOM      4  C   UNL     1      45.894   8.396  12.906  0.00  0.00    +0.000 A 
ATOM      5  N   UNL     1      45.353   7.271  12.389  0.00  0.00    +0.000 NA
ATOM      6  C   UNL     1      46.018   6.107  12.586  0.00  0.00    +0.000 A 
ATOM      7  C   UNL     1      47.213   6.049  13.302  0.00  0.00    +0.000 A 
BRANCH   6   8
ATOM      8  C   UNL     1      45.403   4.837  12.034  0.00  0.00    +0.000 C 
ATOM      9  C   UNL     1      44.996   4.994  10.565  0.00  0.00    +0.000 C 
ATOM     10  C   UNL     1      44.325   3.722  10.068  0.00  0.00    +0.000 C 
ATOM     11  O   UNL     1      43.206   3.380  10.884  0.00  0.00    +0.000 OA
ATOM     12  C   UNL     1      43.575   3.135  12.240  0.00  0.00    +0.000 C 
ATOM     13  C   UNL     1      44.202   4.373  12.867  0.00  0.00    +0.000 C 
ENDBRANCH   6   8
ENDBRANCH   1   2
BRANCH   1  14
ATOM     14  N   UNL     1      48.620   6.679  16.093  0.00  0.00    +0.000 N 
ATOM     15  H   UNL     1      48.620   7.418  16.796  0.00  0.00    +0.000 HD
BRANCH  14  21
ATOM     16  C   UNL     1      48.714   4.474  17.223  0.00  0.00    +0.000 A 
ATOM     17  C   UNL     1      49.592   3.581  17.819  0.00  0.00    +0.000 A 
ATOM     18  N   UNL     1      50.924   3.741  17.869  0.00  0.00    +0.000 NA
ATOM     19  C   UNL     1      51.375   4.857  17.300  0.00  0.00    +0.000 A 
ATOM     20  N   UNL     1      50.617   5.793  16.703  0.00  0.00    +0.000 NA
ATOM     21  C   UNL     1      49.281   5.601  16.665  0.00  0.00    +0.000 A 
BRANCH  16  23
ATOM     22  F   UNL     1      47.002   2.866  17.646  0.00  0.00    +0.000 F 
ATOM     23  C   UNL     1      47.265   4.147  17.249  0.00  0.00    +0.000 C 
ATOM     24  F   UNL     1      46.681   4.250  16.021  0.00  0.00    +0.000 F 
ATOM     25  F   UNL     1      46.535   4.934  18.086  0.00  0.00    +0.000 F 
ENDBRANCH  16  23
ENDBRANCH  14  21
ENDBRANCH   1  14
TORSDOF 5
ENDMDL
MODEL 7
REMARK VINA RESULT:    -6.229      3.392      6.745
REMARK INTER + INTRA:          -9.529
REMARK INTER:                  -8.839
REMARK INTRA:                  -0.690
REMARK UNBOUND:                -1.480
REMARK  Name = 
REMARK  5 active torsions:
REMARK  status: ('A' for Active; 'I' for Inactive)
REMARK    1  A    between atoms: C_2  and  C_5
REMARK    2  A    between atoms: C_10  and  N_11
REMARK    3  A    between atoms: N_11  and  C_12
REMARK    4  A    between atoms: C_12  and  C_13
REMARK    5  A    between atoms: C_17  and  C_18
REMARK                            x       y       z     vdW  Elec       q    Type
REMARK                         _______ _______ _______ _____ _____    ______ ____
ROOT
ATOM      1  C   UNL     1      45.241   7.202  11.683  0.00  0.00    +0.000 C 
ENDROOT
BRANCH   1   2
ATOM      2  C   UNL     1      46.603   7.087  12.324  0.00  0.00    +0.000 A 
ATOM      3  C   UNL     1      47.745   7.581  11.689  0.00  0.00    +0.000 A 
ATOM      4  C   UNL     1      48.981   7.335  12.263  0.00  0.00    +0.000 A 
ATOM      5  N   UNL     1      49.152   6.649  13.414  0.00  0.00    +0.000 NA
ATOM      6  C   UNL     1      48.043   6.195  14.045  0.00  0.00    +0.000 A 
ATOM      7  C   UNL     1      46.762   6.408  13.536  0.00  0.00    +0.000 A 
BRANCH   6   8
ATOM      8  C   UNL     1      48.228   5.400  15.322  0.00  0.00    +0.000 C 
ATOM      9  C   UNL     1      47.033   4.480  15.596  0.00  0.00    +0.000 C 
ATOM     10  C   UNL     1      47.227   3.748  16.917  0.00  0.00    +0.000 C 
ATOM     11  O   UNL     1      47.431   4.669  17.987  0.00  0.00    +0.000 OA
ATOM     12  C   UNL     1      48.595   5.473  17.799  0.00  0.00    +0.000 C 
ATOM     13  C   UNL     1      48.483   6.308  16.531  0.00  0.00    +0.000 C 
ENDBRANCH   6   8
ENDBRANCH   1   2
BRANCH   1  14
ATOM     14  N   UNL     1      45.076   6.272  10.583  0.00  0.00    +0.000 N 
ATOM     15  H   UNL     1      44.551   6.663   9.800  0.00  0.00    +0.000 HD
BRANCH  14  21
ATOM     16  C   UNL     1      44.672   3.915   9.925  0.00  0.00    +0.000 A 
ATOM     17  C   UNL     1      44.004   2.765  10.314  0.00  0.00    +0.000 A 
ATOM     18  N   UNL     1      43.301   2.641  11.451  0.00  0.00    +0.000 NA
ATOM     19  C   UNL     1      43.271   3.732  12.213  0.00  0.00    +0.000 A 
ATOM     20  N   UNL     1      43.875   4.901  11.931  0.00  0.00    +0.000 NA
ATOM     21  C   UNL     1      44.577   4.993  10.782  0.00  0.00    +0.000 A 
BRANCH  16  23
ATOM     22  F   UNL     1      44.598   3.991   7.541  0.00  0.00    +0.000 F 
ATOM     23  C   UNL     1      45.411   3.889   8.635  0.00  0.00    +0.000 C 
ATOM     24  F   UNL     1      46.095   2.725   8.445  0.00  0.00    +0.000 F 
ATOM     25  F   UNL     1      46.319   4.893   8.497  0.00  0.00    +0.000 F 
ENDBRANCH  16  23
ENDBRANCH  14  21
ENDBRANCH   1  14
TORSDOF 5
ENDMDL
MODEL 8
REMARK VINA RESULT:    -6.008      3.421      6.842
REMARK INTER + INTRA:          -9.244
REMARK INTER:                  -8.373
REMARK INTRA:                  -0.871
REMARK UNBOUND:                -1.480
REMARK  Name = 
REMARK  5 active torsions:
REMARK  status: ('A' for Active; 'I' for Inactive)
REMARK    1  A    between atoms: C_2  and  C_5
REMARK    2  A    between atoms: C_10  and  N_11
REMARK    3  A    between atoms: N_11  and  C_12
REMARK    4  A    between atoms: C_12  and  C_13
REMARK    5  A    between atoms: C_17  and  C_18
REMARK                            x       y       z     vdW  Elec       q    Type
REMARK                         _______ _______ _______ _____ _____    ______ ____
ROOT
ATOM      1  C   UNL     1      46.693   6.697  11.557  0.00  0.00    +0.000 C 
ENDROOT
BRANCH   1   2
ATOM      2  C   UNL     1      47.661   6.806  12.709  0.00  0.00    +0.000 A 
ATOM      3  C   UNL     1      48.878   7.478  12.571  0.00  0.00    +0.000 A 
ATOM      4  C   UNL     1      49.781   7.437  13.621  0.00  0.00    +0.000 A 
ATOM      5  N   UNL     1      49.552   6.790  14.785  0.00  0.00    +0.000 NA
ATOM      6  C   UNL     1      48.359   6.164  14.930  0.00  0.00    +0.000 A 
ATOM      7  C   UNL     1      47.395   6.165  13.923  0.00  0.00    +0.000 A 
BRANCH   6   8
ATOM      8  C   UNL     1      48.106   5.411  16.221  0.00  0.00    +0.000 C 
ATOM      9  C   UNL     1      49.392   5.235  17.037  0.00  0.00    +0.000 C 
ATOM     10  C   UNL     1      49.109   4.420  18.291  0.00  0.00    +0.000 C 
ATOM     11  O   UNL     1      48.523   3.161  17.963  0.00  0.00    +0.000 OA
ATOM     12  C   UNL     1      47.275   3.301  17.286  0.00  0.00    +0.000 C 
ATOM     13  C   UNL     1      47.449   4.048  15.971  0.00  0.00    +0.000 C 
ENDBRANCH   6   8
ENDBRANCH   1   2
BRANCH   1  14
ATOM     14  N   UNL     1      45.718   5.643  11.761  0.00  0.00    +0.000 N 
ATOM     15  H   UNL     1      45.965   5.008  12.521  0.00  0.00    +0.000 HD
BRANCH  14  21
ATOM     16  C   UNL     1      44.479   3.725  10.795  0.00  0.00    +0.000 A 
ATOM     17  C   UNL     1      44.266   3.039   9.609  0.00  0.00    +0.000 A 
ATOM     18  N   UNL     1      44.775   3.399   8.419  0.00  0.00    +0.000 NA
ATOM     19  C   UNL     1      45.535   4.492   8.443  0.00  0.00    +0.000 A 
ATOM     20  N   UNL     1      45.814   5.228   9.534  0.00  0.00    +0.000 NA
ATOM     21  C   UNL     1      45.284   4.843  10.714  0.00  0.00    +0.000 A 
BRANCH  16  23
ATOM     22  F   UNL     1      43.019   4.100  12.644  0.00  0.00    +0.000 F 
ATOM     23  C   UNL     1      43.840   3.197  12.028  0.00  0.00    +0.000 C 
ATOM     24  F   UNL     1      44.747   2.853  12.986  0.00  0.00    +0.000 F 
ATOM     25  F   UNL     1      43.066   2.096  11.823  0.00  0.00    +0.000 F 
ENDBRANCH  16  23
ENDBRANCH  14  21
ENDBRANCH   1  14
TORSDOF 5
ENDMDL
MODEL 9
REMARK VINA RESULT:    -5.777      4.159      5.822
REMARK INTER + INTRA:          -8.946
REMARK INTER:                  -8.239
REMARK INTRA:                  -0.707
REMARK UNBOUND:                -1.480
REMARK  Name = 
REMARK  5 active torsions:
REMARK  status: ('A' for Active; 'I' for Inactive)
REMARK    1  A    between atoms: C_2  and  C_5
REMARK    2  A    between atoms: C_10  and  N_11
REMARK    3  A    between atoms: N_11  and  C_12
REMARK    4  A    between atoms: C_12  and  C_13
REMARK    5  A    between atoms: C_17  and  C_18
REMARK                            x       y       z     vdW  Elec       q    Type
REMARK                         _______ _______ _______ _____ _____    ______ ____
ROOT
ATOM      1  C   UNL     1      48.694   6.837  15.025  0.00  0.00    +0.000 C 
ENDROOT
BRANCH   1   2
ATOM      2  C   UNL     1      47.704   6.893  13.887  0.00  0.00    +0.000 A 
ATOM      3  C   UNL     1      47.276   8.115  13.361  0.00  0.00    +0.000 A 
ATOM      4  C   UNL     1      46.272   8.110  12.406  0.00  0.00    +0.000 A 
ATOM      5  N   UNL     1      45.684   6.986  11.940  0.00  0.00    +0.000 NA
ATOM      6  C   UNL     1      46.120   5.800  12.428  0.00  0.00    +0.000 A 
ATOM      7  C   UNL     1      47.131   5.721  13.386  0.00  0.00    +0.000 A 
BRANCH   6   8
ATOM      8  C   UNL     1      45.445   4.538  11.932  0.00  0.00    +0.000 C 
ATOM      9  C   UNL     1      45.020   4.660  10.464  0.00  0.00    +0.000 C 
ATOM     10  C   UNL     1      44.289   3.400  10.024  0.00  0.00    +0.000 C 
ATOM     11  O   UNL     1      43.172   3.133  10.869  0.00  0.00    +0.000 OA
ATOM     12  C   UNL     1      43.554   2.920  12.227  0.00  0.00    +0.000 C 
ATOM     13  C   UNL     1      44.241   4.153  12.800  0.00  0.00    +0.000 C 
ENDBRANCH   6   8
ENDBRANCH   1   2
BRANCH   1  14
ATOM     14  N   UNL     1      48.102   6.304  16.236  0.00  0.00    +0.000 N 
ATOM     15  H   UNL     1      47.519   6.980  16.731  0.00  0.00    +0.000 HD
BRANCH  14  21
ATOM     16  C   UNL     1      48.607   5.588  18.556  0.00  0.00    +0.000 A 
ATOM     17  C   UNL     1      49.587   4.986  19.332  0.00  0.00    +0.000 A 
ATOM     18  N   UNL     1      50.738   4.488  18.853  0.00  0.00    +0.000 NA
ATOM     19  C   UNL     1      50.900   4.616  17.538  0.00  0.00    +0.000 A 
ATOM     20  N   UNL     1      50.022   5.187  16.693  0.00  0.00    +0.000 NA
ATOM     21  C   UNL     1      48.872   5.675  17.204  0.00  0.00    +0.000 A 
BRANCH  16  23
ATOM     22  F   UNL     1      46.230   5.546  18.750  0.00  0.00    +0.000 F 
ATOM     23  C   UNL     1      47.386   6.085  19.240  0.00  0.00    +0.000 C 
ATOM     24  F   UNL     1      47.218   7.432  19.104  0.00  0.00    +0.000 F 
ATOM     25  F   UNL     1      47.357   5.831  20.577  0.00  0.00    +0.000 F 
ENDBRANCH  16  23
ENDBRANCH  14  21
ENDBRANCH   1  14
TORSDOF 5
ENDMDL
