MODEL 1
REMARK VINA RESULT:    -8.636      0.000      0.000
REMARK INTER + INTRA:         -11.830
REMARK INTER:                 -11.160
REMARK INTRA:                  -0.670
REMARK UNBOUND:                -0.670
REMARK  Name = 
REMARK  5 active torsions:
REMARK  status: ('A' for Active; 'I' for Inactive)
REMARK    1  A    between atoms: C_2  and  C_18
REMARK    2  A    between atoms: N_3  and  C_4
REMARK    3  A    between atoms: C_4  and  C_5
REMARK    4  A    between atoms: C_8  and  C_9
REMARK    5  A    between atoms: C_9  and  C_10
REMARK                            x       y       z     vdW  Elec       q    Type
REMARK                         _______ _______ _______ _____ _____    ______ ____
ROOT
ATOM      1  O   UNL     1      46.297   3.364  13.659  0.00  0.00    +0.000 OA
ATOM      2  C   UNL     1      46.196   4.572  13.868  0.00  0.00    +0.000 C 
ATOM      3  N   UNL     1      45.059   5.275  13.565  0.00  0.00    +0.000 N 
ATOM      4  H   UNL     1      45.085   6.287  13.576  0.00  0.00    +0.000 HD
ENDROOT
BRANCH   2   5
ATOM      5  C   UNL     1      47.286   5.334  14.490  0.00  0.00    +0.000 A 
ATOM      6  C   UNL     1      47.924   6.344  13.780  0.00  0.00    +0.000 A 
ATOM      7  S   UNL     1      49.170   7.109  14.658  0.00  0.00    +0.000 S 
ATOM      8  C   UNL     1      48.863   6.158  16.033  0.00  0.00    +0.000 A 
ATOM      9  N   UNL     1      49.574   6.334  17.180  0.00  0.00    +0.000 NA
ATOM     10  C   UNL     1      49.213   5.567  18.155  0.00  0.00    +0.000 A 
ATOM     11  N   UNL     1      48.209   4.638  18.083  0.00  0.00    +0.000 N 
ATOM     12  C   UNL     1      47.486   4.402  16.940  0.00  0.00    +0.000 A 
ATOM     13  O   UNL     1      46.625   3.522  16.900  0.00  0.00    +0.000 OA
ATOM     14  C   UNL     1      47.839   5.250  15.819  0.00  0.00    +0.000 A 
ATOM     15  H   UNL     1      47.981   4.060  18.878  0.00  0.00    +0.000 HD
ENDBRANCH   2   5
BRANCH   3  16
ATOM     16  C   UNL     1      44.004   4.675  12.792  0.00  0.00    +0.000 C 
BRANCH  16  17
ATOM     17  C   UNL     1      44.457   4.349  11.392  0.00  0.00    +0.000 A 
ATOM     18  C   UNL     1      44.192   3.087  10.845  0.00  0.00    +0.000 A 
ATOM     19  C   UNL     1      44.538   2.792   9.525  0.00  0.00    +0.000 A 
ATOM     20  C   UNL     1      45.160   3.752   8.719  0.00  0.00    +0.000 A 
ATOM     21  C   UNL     1      45.506   4.983   9.294  0.00  0.00    +0.000 A 
ATOM     22  C   UNL     1      45.159   5.280  10.619  0.00  0.00    +0.000 A 
BRANCH  20  23
ATOM     23  C   UNL     1      45.490   3.442   7.282  0.00  0.00    +0.000 C 
BRANCH  23  24
ATOM     24  C   UNL     1      46.924   2.992   6.901  0.00  0.00    +0.000 C 
ATOM     25  C   UNL     1      47.266   3.114   5.411  0.00  0.00    +0.000 C 
ATOM     26  C   UNL     1      46.899   1.879   4.593  0.00  0.00    +0.000 C 
ATOM     27  N   UNL     1      47.490   0.656   5.131  0.00  0.00    +0.000 NA
ATOM     28  C   UNL     1      47.107   0.434   6.524  0.00  0.00    +0.000 C 
ATOM     29  C   UNL     1      47.375   1.626   7.445  0.00  0.00    +0.000 C 
ATOM     30  H   UNL     1      48.504   0.701   5.051  0.00  0.00    +0.000 HD
ENDBRANCH  23  24
ENDBRANCH  20  23
ENDBRANCH  16  17
ENDBRANCH   3  16
TORSDOF 5
ENDMDL
MODEL 2
REMARK VINA RESULT:    -7.968      1.793      2.948
REMARK INTER + INTRA:         -10.968
REMARK INTER:                 -10.286
REMARK INTRA:                  -0.682
REMARK UNBOUND:                -0.670
REMARK  Name = 
REMARK  5 active torsions:
REMARK  status: ('A' for Active; 'I' for Inactive)
REMARK    1  A    between atoms: C_2  and  C_18
REMARK    2  A    between atoms: N_3  and  C_4
REMARK    3  A    between atoms: C_4  and  C_5
REMARK    4  A    between atoms: C_8  and  C_9
REMARK    5  A    between atoms: C_9  and  C_10
REMARK                            x       y       z     vdW  Elec       q    Type
REMARK                         _______ _______ _______ _____ _____    ______ ____
ROOT
ATOM      1  O   UNL     1      46.446   3.802  14.144  0.00  0.00    +0.000 OA
ATOM      2  C   UNL     1      46.448   5.016  13.942  0.00  0.00    +0.000 C 
ATOM      3  N   UNL     1      45.352   5.679  13.457  0.00  0.00    +0.000 N 
ATOM      4  H   UNL     1      45.454   6.632  13.130  0.00  0.00    +0.000 HD
ENDROOT
BRANCH   2   5
ATOM      5  C   UNL     1      47.626   5.839  14.242  0.00  0.00    +0.000 A 
ATOM      6  C   UNL     1      48.230   5.765  15.491  0.00  0.00    +0.000 A 
ATOM      7  S   UNL     1      49.574   6.801  15.659  0.00  0.00    +0.000 S 
ATOM      8  C   UNL     1      49.431   7.341  14.054  0.00  0.00    +0.000 A 
ATOM      9  N   UNL     1      50.315   8.235  13.533  0.00  0.00    +0.000 NA
ATOM     10  C   UNL     1      50.107   8.532  12.293  0.00  0.00    +0.000 A 
ATOM     11  N   UNL     1      49.092   8.019  11.531  0.00  0.00    +0.000 N 
ATOM     12  C   UNL     1      48.157   7.139  12.020  0.00  0.00    +0.000 A 
ATOM     13  O   UNL     1      47.229   6.739  11.316  0.00  0.00    +0.000 OA
ATOM     14  C   UNL     1      48.356   6.758  13.403  0.00  0.00    +0.000 A 
ATOM     15  H   UNL     1      48.975   8.299  10.568  0.00  0.00    +0.000 HD
ENDBRANCH   2   5
BRANCH   3  16
ATOM     16  C   UNL     1      44.211   4.956  12.959  0.00  0.00    +0.000 C 
BRANCH  16  17
ATOM     17  C   UNL     1      44.414   4.513  11.533  0.00  0.00    +0.000 A 
ATOM     18  C   UNL     1      44.902   5.416  10.581  0.00  0.00    +0.000 A 
ATOM     19  C   UNL     1      45.168   5.004   9.273  0.00  0.00    +0.000 A 
ATOM     20  C   UNL     1      44.949   3.678   8.885  0.00  0.00    +0.000 A 
ATOM     21  C   UNL     1      44.375   2.797   9.813  0.00  0.00    +0.000 A 
ATOM     22  C   UNL     1      44.109   3.209  11.125  0.00  0.00    +0.000 A 
BRANCH  20  23
ATOM     23  C   UNL     1      45.279   3.230   7.484  0.00  0.00    +0.000 C 
BRANCH  23  24
ATOM     24  C   UNL     1      46.752   2.953   7.091  0.00  0.00    +0.000 C 
ATOM     25  C   UNL     1      47.101   3.263   5.631  0.00  0.00    +0.000 C 
ATOM     26  C   UNL     1      46.860   2.093   4.679  0.00  0.00    +0.000 C 
ATOM     27  N   UNL     1      47.554   0.879   5.101  0.00  0.00    +0.000 NA
ATOM     28  C   UNL     1      47.175   0.477   6.455  0.00  0.00    +0.000 C 
ATOM     29  C   UNL     1      47.320   1.584   7.500  0.00  0.00    +0.000 C 
ATOM     30  H   UNL     1      48.561   1.023   5.049  0.00  0.00    +0.000 HD
ENDBRANCH  23  24
ENDBRANCH  20  23
ENDBRANCH  16  17
ENDBRANCH   3  16
TORSDOF 5
ENDMDL
MODEL 3
REMARK VINA RESULT:    -7.395      3.514      5.135
REMARK INTER + INTRA:         -10.227
REMARK INTER:                  -8.898
REMARK INTRA:                  -1.330
REMARK UNBOUND:                -0.670
REMARK  Name = 
REMARK  5 active torsions:
REMARK  status: ('A' for Active; 'I' for Inactive)
REMARK    1  A    between atoms: C_2  and  C_18
REMARK    2  A    between atoms: N_3  and  C_4
REMARK    3  A    between atoms: C_4  and  C_5
REMARK    4  A    between atoms: C_8  and  C_9
REMARK    5  A    between atoms: C_9  and  C_10
REMARK                            x       y       z     vdW  Elec       q    Type
REMARK                         _______ _______ _______ _____ _____    ______ ____
ROOT
ATOM      1  O   UNL     1      48.560   8.841  16.101  0.00  0.00    +0.000 OA
ATOM      2  C   UNL     1      48.863   7.672  15.866  0.00  0.00    +0.000 C 
ATOM      3  N   UNL     1      49.164   7.233  14.603  0.00  0.00    +0.000 N 
ATOM      4  H   UNL     1      49.222   6.238  14.425  0.00  0.00    +0.000 HD
ENDROOT
BRANCH   2   5
ATOM      5  C   UNL     1      48.953   6.674  16.940  0.00  0.00    +0.000 A 
ATOM      6  C   UNL     1      49.567   6.998  18.143  0.00  0.00    +0.000 A 
ATOM      7  S   UNL     1      49.588   5.711  19.262  0.00  0.00    +0.000 S 
ATOM      8  C   UNL     1      48.730   4.698  18.202  0.00  0.00    +0.000 A 
ATOM      9  N   UNL     1      48.380   3.435  18.568  0.00  0.00    +0.000 NA
ATOM     10  C   UNL     1      47.702   2.790  17.678  0.00  0.00    +0.000 A 
ATOM     11  N   UNL     1      47.347   3.293  16.454  0.00  0.00    +0.000 N 
ATOM     12  C   UNL     1      47.703   4.549  16.028  0.00  0.00    +0.000 A 
ATOM     13  O   UNL     1      47.408   4.948  14.900  0.00  0.00    +0.000 OA
ATOM     14  C   UNL     1      48.450   5.324  16.998  0.00  0.00    +0.000 A 
ATOM     15  H   UNL     1      46.825   2.734  15.796  0.00  0.00    +0.000 HD
ENDBRANCH   2   5
BRANCH   3  16
ATOM     16  C   UNL     1      48.934   8.072  13.455  0.00  0.00    +0.000 C 
BRANCH  16  17
ATOM     17  C   UNL     1      47.607   7.773  12.807  0.00  0.00    +0.000 A 
ATOM     18  C   UNL     1      47.522   6.808  11.795  0.00  0.00    +0.000 A 
ATOM     19  C   UNL     1      46.289   6.464  11.236  0.00  0.00    +0.000 A 
ATOM     20  C   UNL     1      45.111   7.079  11.673  0.00  0.00    +0.000 A 
ATOM     21  C   UNL     1      45.208   8.108  12.621  0.00  0.00    +0.000 A 
ATOM     22  C   UNL     1      46.443   8.453  13.184  0.00  0.00    +0.000 A 
BRANCH  20  23
ATOM     23  C   UNL     1      43.780   6.672  11.096  0.00  0.00    +0.000 C 
BRANCH  23  24
ATOM     24  C   UNL     1      43.159   5.304  11.481  0.00  0.00    +0.000 C 
ATOM     25  C   UNL     1      43.268   4.940  12.966  0.00  0.00    +0.000 C 
ATOM     26  C   UNL     1      44.558   4.205  13.326  0.00  0.00    +0.000 C 
ATOM     27  N   UNL     1      44.764   3.010  12.512  0.00  0.00    +0.000 NA
ATOM     28  C   UNL     1      44.776   3.319  11.083  0.00  0.00    +0.000 C 
ATOM     29  C   UNL     1      43.556   4.106  10.603  0.00  0.00    +0.000 C 
ATOM     30  H   UNL     1      44.038   2.326  12.714  0.00  0.00    +0.000 HD
ENDBRANCH  23  24
ENDBRANCH  20  23
ENDBRANCH  16  17
ENDBRANCH   3  16
TORSDOF 5
ENDMDL
MODEL 4
REMARK VINA RESULT:    -7.202      4.483      9.860
REMARK INTER + INTRA:          -9.978
REMARK INTER:                  -9.176
REMARK INTRA:                  -0.802
REMARK UNBOUND:                -0.670
REMARK  Name = 
REMARK  5 active torsions:
REMARK  status: ('A' for Active; 'I' for Inactive)
REMARK    1  A    between atoms: C_2  and  C_18
REMARK    2  A    between atoms: N_3  and  C_4
REMARK    3  A    between atoms: C_4  and  C_5
REMARK    4  A    between atoms: C_8  and  C_9
REMARK    5  A    between atoms: C_9  and  C_10
REMARK                            x       y       z     vdW  Elec       q    Type
REMARK                         _______ _______ _______ _____ _____    ______ ____
ROOT
ATOM      1  O   UNL     1      47.161   3.251  14.014  0.00  0.00    +0.000 OA
ATOM      2  C   UNL     1      46.727   4.315  14.453  0.00  0.00    +0.000 C 
ATOM      3  N   UNL     1      46.764   4.627  15.787  0.00  0.00    +0.000 N 
ATOM      4  H   UNL     1      46.232   5.419  16.125  0.00  0.00    +0.000 HD
ENDROOT
BRANCH   2   5
ATOM      5  C   UNL     1      46.168   5.339  13.561  0.00  0.00    +0.000 A 
ATOM      6  C   UNL     1      46.915   6.463  13.234  0.00  0.00    +0.000 A 
ATOM      7  S   UNL     1      46.098   7.545  12.200  0.00  0.00    +0.000 S 
ATOM      8  C   UNL     1      44.743   6.524  12.108  0.00  0.00    +0.000 A 
ATOM      9  N   UNL     1      43.670   6.851  11.337  0.00  0.00    +0.000 NA
ATOM     10  C   UNL     1      42.726   5.969  11.334  0.00  0.00    +0.000 A 
ATOM     11  N   UNL     1      42.758   4.793  12.036  0.00  0.00    +0.000 N 
ATOM     12  C   UNL     1      43.804   4.434  12.851  0.00  0.00    +0.000 A 
ATOM     13  O   UNL     1      43.774   3.391  13.505  0.00  0.00    +0.000 OA
ATOM     14  C   UNL     1      44.899   5.382  12.876  0.00  0.00    +0.000 A 
ATOM     15  H   UNL     1      41.983   4.148  12.001  0.00  0.00    +0.000 HD
ENDBRANCH   2   5
BRANCH   3  16
ATOM     16  C   UNL     1      47.119   3.635  16.768  0.00  0.00    +0.000 C 
BRANCH  16  17
ATOM     17  C   UNL     1      48.606   3.607  17.015  0.00  0.00    +0.000 A 
ATOM     18  C   UNL     1      49.308   4.804  17.203  0.00  0.00    +0.000 A 
ATOM     19  C   UNL     1      50.671   4.793  17.508  0.00  0.00    +0.000 A 
ATOM     20  C   UNL     1      51.365   3.585  17.630  0.00  0.00    +0.000 A 
ATOM     21  C   UNL     1      50.682   2.392  17.353  0.00  0.00    +0.000 A 
ATOM     22  C   UNL     1      49.315   2.401  17.047  0.00  0.00    +0.000 A 
BRANCH  20  23
ATOM     23  C   UNL     1      52.826   3.580  18.002  0.00  0.00    +0.000 C 
BRANCH  23  24
ATOM     24  C   UNL     1      53.240   3.496  19.493  0.00  0.00    +0.000 C 
ATOM     25  C   UNL     1      52.418   4.375  20.443  0.00  0.00    +0.000 C 
ATOM     26  C   UNL     1      52.966   5.792  20.600  0.00  0.00    +0.000 C 
ATOM     27  N   UNL     1      54.368   5.806  21.010  0.00  0.00    +0.000 NA
ATOM     28  C   UNL     1      55.217   5.069  20.076  0.00  0.00    +0.000 C 
ATOM     29  C   UNL     1      54.742   3.643  19.791  0.00  0.00    +0.000 C 
ATOM     30  H   UNL     1      54.456   5.414  21.946  0.00  0.00    +0.000 HD
ENDBRANCH  23  24
ENDBRANCH  20  23
ENDBRANCH  16  17
ENDBRANCH   3  16
TORSDOF 5
ENDMDL
MODEL 5
REMARK VINA RESULT:    -7.000      4.166      9.880
REMARK INTER + INTRA:          -9.716
REMARK INTER:                  -8.655
REMARK INTRA:                  -1.061
REMARK UNBOUND:                -0.670
REMARK  Name = 
REMARK  5 active torsions:
REMARK  status: ('A' for Active; 'I' for Inactive)
REMARK    1  A    between atoms: C_2  and  C_18
REMARK    2  A    between atoms: N_3  and  C_4
REMARK    3  A    between atoms: C_4  and  C_5
REMARK    4  A    between atoms: C_8  and  C_9
REMARK    5  A    between atoms: C_9  and  C_10
REMARK                            x       y       z     vdW  Elec       q    Type
REMARK                         _______ _______ _______ _____ _____    ______ ____
ROOT
ATOM      1  O   UNL     1      47.692   7.231  12.043  0.00  0.00    +0.000 OA
ATOM      2  C   UNL     1      46.887   6.618  12.742  0.00  0.00    +0.000 C 
ATOM      3  N   UNL     1      47.131   6.329  14.059  0.00  0.00    +0.000 N 
ATOM      4  H   UNL     1      46.535   5.667  14.540  0.00  0.00    +0.000 HD
ENDROOT
BRANCH   2   5
ATOM      5  C   UNL     1      45.589   6.181  12.211  0.00  0.00    +0.000 A 
ATOM      6  C   UNL     1      44.754   7.091  11.576  0.00  0.00    +0.000 A 
ATOM      7  S   UNL     1      43.288   6.407  11.038  0.00  0.00    +0.000 S 
ATOM      8  C   UNL     1      43.742   4.862  11.582  0.00  0.00    +0.000 A 
ATOM      9  N   UNL     1      42.931   3.786  11.396  0.00  0.00    +0.000 NA
ATOM     10  C   UNL     1      43.415   2.670  11.829  0.00  0.00    +0.000 A 
ATOM     11  N   UNL     1      44.636   2.536  12.436  0.00  0.00    +0.000 N 
ATOM     12  C   UNL     1      45.476   3.596  12.674  0.00  0.00    +0.000 A 
ATOM     13  O   UNL     1      46.544   3.443  13.268  0.00  0.00    +0.000 OA
ATOM     14  C   UNL     1      44.987   4.871  12.190  0.00  0.00    +0.000 A 
ATOM     15  H   UNL     1      44.955   1.636  12.763  0.00  0.00    +0.000 HD
ENDBRANCH   2   5
BRANCH   3  16
ATOM     16  C   UNL     1      48.434   6.545  14.634  0.00  0.00    +0.000 C 
BRANCH  16  17
ATOM     17  C   UNL     1      48.568   5.868  15.973  0.00  0.00    +0.000 A 
ATOM     18  C   UNL     1      49.651   6.174  16.808  0.00  0.00    +0.000 A 
ATOM     19  C   UNL     1      49.751   5.614  18.084  0.00  0.00    +0.000 A 
ATOM     20  C   UNL     1      48.773   4.731  18.554  0.00  0.00    +0.000 A 
ATOM     21  C   UNL     1      47.739   4.356  17.685  0.00  0.00    +0.000 A 
ATOM     22  C   UNL     1      47.636   4.918  16.406  0.00  0.00    +0.000 A 
BRANCH  20  23
ATOM     23  C   UNL     1      48.866   4.165  19.948  0.00  0.00    +0.000 C 
BRANCH  23  24
ATOM     24  C   UNL     1      48.396   5.014  21.157  0.00  0.00    +0.000 C 
ATOM     25  C   UNL     1      47.271   6.009  20.852  0.00  0.00    +0.000 C 
ATOM     26  C   UNL     1      47.768   7.371  20.372  0.00  0.00    +0.000 C 
ATOM     27  N   UNL     1      48.718   7.977  21.301  0.00  0.00    +0.000 NA
ATOM     28  C   UNL     1      49.870   7.110  21.546  0.00  0.00    +0.000 C 
ATOM     29  C   UNL     1      49.503   5.691  21.983  0.00  0.00    +0.000 C 
ATOM     30  H   UNL     1      48.250   8.192  22.180  0.00  0.00    +0.000 HD
ENDBRANCH  23  24
ENDBRANCH  20  23
ENDBRANCH  16  17
ENDBRANCH   3  16
TORSDOF 5
ENDMDL
MODEL 6
REMARK VINA RESULT:    -6.969      4.464     10.336
REMARK INTER + INTRA:          -9.677
REMARK INTER:                  -8.838
REMARK INTRA:                  -0.839
REMARK UNBOUND:                -0.670
REMARK  Name = 
REMARK  5 active torsions:
REMARK  status: ('A' for Active; 'I' for Inactive)
REMARK    1  A    between atoms: C_2  and  C_18
REMARK    2  A    between atoms: N_3  and  C_4
REMARK    3  A    between atoms: C_4  and  C_5
REMARK    4  A    between atoms: C_8  and  C_9
REMARK    5  A    between atoms: C_9  and  C_10
REMARK                            x       y       z     vdW  Elec       q    Type
REMARK                         _______ _______ _______ _____ _____    ______ ____
ROOT
ATOM      1  O   UNL     1      47.194   3.291  13.721  0.00  0.00    +0.000 OA
ATOM      2  C   UNL     1      46.816   4.357  14.205  0.00  0.00    +0.000 C 
ATOM      3  N   UNL     1      47.060   4.695  15.511  0.00  0.00    +0.000 N 
ATOM      4  H   UNL     1      46.574   5.486  15.917  0.00  0.00    +0.000 HD
ENDROOT
BRANCH   2   5
ATOM      5  C   UNL     1      46.101   5.353  13.398  0.00  0.00    +0.000 A 
ATOM      6  C   UNL     1      46.693   6.579  13.119  0.00  0.00    +0.000 A 
ATOM      7  S   UNL     1      45.710   7.610  12.181  0.00  0.00    +0.000 S 
ATOM      8  C   UNL     1      44.487   6.436  12.068  0.00  0.00    +0.000 A 
ATOM      9  N   UNL     1      43.352   6.671  11.354  0.00  0.00    +0.000 NA
ATOM     10  C   UNL     1      42.523   5.681  11.326  0.00  0.00    +0.000 A 
ATOM     11  N   UNL     1      42.726   4.479  11.951  0.00  0.00    +0.000 N 
ATOM     12  C   UNL     1      43.839   4.206  12.708  0.00  0.00    +0.000 A 
ATOM     13  O   UNL     1      43.962   3.131  13.297  0.00  0.00    +0.000 OA
ATOM     14  C   UNL     1      44.811   5.279  12.758  0.00  0.00    +0.000 A 
ATOM     15  H   UNL     1      42.034   3.746  11.901  0.00  0.00    +0.000 HD
ENDBRANCH   2   5
BRANCH   3  16
ATOM     16  C   UNL     1      47.587   3.729  16.439  0.00  0.00    +0.000 C 
BRANCH  16  17
ATOM     17  C   UNL     1      47.784   4.325  17.809  0.00  0.00    +0.000 A 
ATOM     18  C   UNL     1      46.973   5.385  18.236  0.00  0.00    +0.000 A 
ATOM     19  C   UNL     1      47.090   5.899  19.529  0.00  0.00    +0.000 A 
ATOM     20  C   UNL     1      48.024   5.369  20.426  0.00  0.00    +0.000 A 
ATOM     21  C   UNL     1      48.896   4.371  19.968  0.00  0.00    +0.000 A 
ATOM     22  C   UNL     1      48.779   3.853  18.672  0.00  0.00    +0.000 A 
BRANCH  20  23
ATOM     23  C   UNL     1      48.115   5.901  21.833  0.00  0.00    +0.000 C 
BRANCH  23  24
ATOM     24  C   UNL     1      48.770   7.281  22.095  0.00  0.00    +0.000 C 
ATOM     25  C   UNL     1      47.785   8.444  22.261  0.00  0.00    +0.000 C 
ATOM     26  C   UNL     1      47.406   9.121  20.946  0.00  0.00    +0.000 C 
ATOM     27  N   UNL     1      48.574   9.573  20.194  0.00  0.00    +0.000 NA
ATOM     28  C   UNL     1      49.499   8.477  19.914  0.00  0.00    +0.000 C 
ATOM     29  C   UNL     1      49.917   7.679  21.151  0.00  0.00    +0.000 C 
ATOM     30  H   UNL     1      49.051  10.309  20.710  0.00  0.00    +0.000 HD
ENDBRANCH  23  24
ENDBRANCH  20  23
ENDBRANCH  16  17
ENDBRANCH   3  16
TORSDOF 5
ENDMDL
MODEL 7
REMARK VINA RESULT:    -6.957      4.434      9.291
REMARK INTER + INTRA:          -9.661
REMARK INTER:                  -8.663
REMARK INTRA:                  -0.997
REMARK UNBOUND:                -0.670
REMARK  Name = 
REMARK  5 active torsions:
REMARK  status: ('A' for Active; 'I' for Inactive)
REMARK    1  A    between atoms: C_2  and  C_18
REMARK    2  A    between atoms: N_3  and  C_4
REMARK    3  A    between atoms: C_4  and  C_5
REMARK    4  A    between atoms: C_8  and  C_9
REMARK    5  A    between atoms: C_9  and  C_10
REMARK                            x       y       z     vdW  Elec       q    Type
REMARK                         _______ _______ _______ _____ _____    ______ ____
ROOT
ATOM      1  O   UNL     1      47.322   3.127  14.137  0.00  0.00    +0.000 OA
ATOM      2  C   UNL     1      46.893   4.187  14.590  0.00  0.00    +0.000 C 
ATOM      3  N   UNL     1      46.843   4.441  15.936  0.00  0.00    +0.000 N 
ATOM      4  H   UNL     1      46.314   5.237  16.271  0.00  0.00    +0.000 HD
ENDROOT
BRANCH   2   5
ATOM      5  C   UNL     1      46.431   5.266  13.707  0.00  0.00    +0.000 A 
ATOM      6  C   UNL     1      47.250   6.359  13.455  0.00  0.00    +0.000 A 
ATOM      7  S   UNL     1      46.541   7.514  12.419  0.00  0.00    +0.000 S 
ATOM      8  C   UNL     1      45.142   6.569  12.228  0.00  0.00    +0.000 A 
ATOM      9  N   UNL     1      44.127   6.975  11.418  0.00  0.00    +0.000 NA
ATOM     10  C   UNL     1      43.141   6.145  11.340  0.00  0.00    +0.000 A 
ATOM     11  N   UNL     1      43.078   4.948  12.003  0.00  0.00    +0.000 N 
ATOM     12  C   UNL     1      44.062   4.509  12.854  0.00  0.00    +0.000 A 
ATOM     13  O   UNL     1      43.946   3.449  13.471  0.00  0.00    +0.000 OA
ATOM     14  C   UNL     1      45.202   5.397  12.964  0.00  0.00    +0.000 A 
ATOM     15  H   UNL     1      42.273   4.346  11.909  0.00  0.00    +0.000 HD
ENDBRANCH   2   5
BRANCH   3  16
ATOM     16  C   UNL     1      47.096   3.397  16.895  0.00  0.00    +0.000 C 
BRANCH  16  17
ATOM     17  C   UNL     1      48.497   3.476  17.444  0.00  0.00    +0.000 A 
ATOM     18  C   UNL     1      49.476   2.578  17.001  0.00  0.00    +0.000 A 
ATOM     19  C   UNL     1      50.797   2.683  17.442  0.00  0.00    +0.000 A 
ATOM     20  C   UNL     1      51.171   3.689  18.340  0.00  0.00    +0.000 A 
ATOM     21  C   UNL     1      50.173   4.531  18.852  0.00  0.00    +0.000 A 
ATOM     22  C   UNL     1      48.848   4.426  18.410  0.00  0.00    +0.000 A 
BRANCH  20  23
ATOM     23  C   UNL     1      52.607   3.824  18.777  0.00  0.00    +0.000 C 
BRANCH  23  24
ATOM     24  C   UNL     1      53.488   4.956  18.191  0.00  0.00    +0.000 C 
ATOM     25  C   UNL     1      53.899   6.041  19.193  0.00  0.00    +0.000 C 
ATOM     26  C   UNL     1      52.894   7.185  19.308  0.00  0.00    +0.000 C 
ATOM     27  N   UNL     1      52.598   7.799  18.016  0.00  0.00    +0.000 NA
ATOM     28  C   UNL     1      52.098   6.822  17.050  0.00  0.00    +0.000 C 
ATOM     29  C   UNL     1      52.994   5.594  16.882  0.00  0.00    +0.000 C 
ATOM     30  H   UNL     1      53.433   8.254  17.652  0.00  0.00    +0.000 HD
ENDBRANCH  23  24
ENDBRANCH  20  23
ENDBRANCH  16  17
ENDBRANCH   3  16
TORSDOF 5
ENDMDL
MODEL 8
REMARK VINA RESULT:    -6.913      3.916      6.318
REMARK INTER + INTRA:          -9.603
REMARK INTER:                  -8.626
REMARK INTRA:                  -0.977
REMARK UNBOUND:                -0.670
REMARK  Name = 
REMARK  5 active torsions:
REMARK  status: ('A' for Active; 'I' for Inactive)
REMARK    1  A    between atoms: C_2  and  C_18
REMARK    2  A    between atoms: N_3  and  C_4
REMARK    3  A    between atoms: C_4  and  C_5
REMARK    4  A    between atoms: C_8  and  C_9
REMARK    5  A    between atoms: C_9  and  C_10
REMARK                            x       y       z     vdW  Elec       q    Type
REMARK                         _______ _______ _______ _____ _____    ______ ____
ROOT
ATOM      1  O   UNL     1      50.346   6.413  18.464  0.00  0.00    +0.000 OA
ATOM      2  C   UNL     1      51.138   5.999  17.619  0.00  0.00    +0.000 C 
ATOM      3  N   UNL     1      51.256   6.575  16.381  0.00  0.00    +0.000 N 
ATOM      4  H   UNL     1      51.775   6.093  15.658  0.00  0.00    +0.000 HD
ENDROOT
BRANCH   2   5
ATOM      5  C   UNL     1      52.034   4.870  17.899  0.00  0.00    +0.000 A 
ATOM      6  C   UNL     1      53.313   5.101  18.389  0.00  0.00    +0.000 A 
ATOM      7  S   UNL     1      54.212   3.673  18.641  0.00  0.00    +0.000 S 
ATOM      8  C   UNL     1      52.907   2.698  18.160  0.00  0.00    +0.000 A 
ATOM      9  N   UNL     1      53.001   1.340  18.176  0.00  0.00    +0.000 NA
ATOM     10  C   UNL     1      51.924   0.725  17.817  0.00  0.00    +0.000 A 
ATOM     11  N   UNL     1      50.763   1.346  17.438  0.00  0.00    +0.000 N 
ATOM     12  C   UNL     1      50.629   2.711  17.375  0.00  0.00    +0.000 A 
ATOM     13  O   UNL     1      49.584   3.232  16.981  0.00  0.00    +0.000 OA
ATOM     14  C   UNL     1      51.805   3.451  17.787  0.00  0.00    +0.000 A 
ATOM     15  H   UNL     1      49.957   0.808  17.157  0.00  0.00    +0.000 HD
ENDBRANCH   2   5
BRANCH   3  16
ATOM     16  C   UNL     1      50.310   7.563  15.933  0.00  0.00    +0.000 C 
BRANCH  16  17
ATOM     17  C   UNL     1      49.312   6.978  14.967  0.00  0.00    +0.000 A 
ATOM     18  C   UNL     1      48.357   6.057  15.417  0.00  0.00    +0.000 A 
ATOM     19  C   UNL     1      47.378   5.562  14.553  0.00  0.00    +0.000 A 
ATOM     20  C   UNL     1      47.331   5.973  13.217  0.00  0.00    +0.000 A 
ATOM     21  C   UNL     1      48.341   6.824  12.745  0.00  0.00    +0.000 A 
ATOM     22  C   UNL     1      49.324   7.322  13.610  0.00  0.00    +0.000 A 
BRANCH  20  23
ATOM     23  C   UNL     1      46.246   5.468  12.302  0.00  0.00    +0.000 C 
BRANCH  23  24
ATOM     24  C   UNL     1      45.136   4.541  12.861  0.00  0.00    +0.000 C 
ATOM     25  C   UNL     1      45.038   3.169  12.184  0.00  0.00    +0.000 C 
ATOM     26  C   UNL     1      44.127   3.151  10.959  0.00  0.00    +0.000 C 
ATOM     27  N   UNL     1      42.785   3.648  11.254  0.00  0.00    +0.000 NA
ATOM     28  C   UNL     1      42.815   5.001  11.805  0.00  0.00    +0.000 C 
ATOM     29  C   UNL     1      43.740   5.166  13.013  0.00  0.00    +0.000 C 
ATOM     30  H   UNL     1      42.320   3.017  11.904  0.00  0.00    +0.000 HD
ENDBRANCH  23  24
ENDBRANCH  20  23
ENDBRANCH  16  17
ENDBRANCH   3  16
TORSDOF 5
ENDMDL
MODEL 9
REMARK VINA RESULT:    -6.767      3.444      8.543
REMARK INTER + INTRA:          -9.415
REMARK INTER:                  -8.230
REMARK INTRA:                  -1.185
REMARK UNBOUND:                -0.670
REMARK  Name = 
REMARK  5 active torsions:
REMARK  status: ('A' for Active; 'I' for Inactive)
REMARK    1  A    between atoms: C_2  and  C_18
REMARK    2  A    between atoms: N_3  and  C_4
REMARK    3  A    between atoms: C_4  and  C_5
REMARK    4  A    between atoms: C_8  and  C_9
REMARK    5  A    between atoms: C_9  and  C_10
REMARK                            x       y       z     vdW  Elec       q    Type
REMARK                         _______ _______ _______ _____ _____    ______ ____
ROOT
ATOM      1  O   UNL     1      45.592   7.972  11.763  0.00  0.00    +0.000 OA
ATOM      2  C   UNL     1      46.270   7.015  11.392  0.00  0.00    +0.000 C 
ATOM      3  N   UNL     1      47.632   6.980  11.542  0.00  0.00    +0.000 N 
ATOM      4  H   UNL     1      48.166   6.269  11.058  0.00  0.00    +0.000 HD
ENDROOT
BRANCH   2   5
ATOM      5  C   UNL     1      45.652   5.828  10.788  0.00  0.00    +0.000 A 
ATOM      6  C   UNL     1      45.845   5.551   9.440  0.00  0.00    +0.000 A 
ATOM      7  S   UNL     1      45.041   4.142   8.915  0.00  0.00    +0.000 S 
ATOM      8  C   UNL     1      44.456   3.823  10.478  0.00  0.00    +0.000 A 
ATOM      9  N   UNL     1      43.707   2.716  10.734  0.00  0.00    +0.000 NA
ATOM     10  C   UNL     1      43.358   2.582  11.971  0.00  0.00    +0.000 A 
ATOM     11  N   UNL     1      43.688   3.457  12.971  0.00  0.00    +0.000 N 
ATOM     12  C   UNL     1      44.414   4.603  12.756  0.00  0.00    +0.000 A 
ATOM     13  O   UNL     1      44.648   5.391  13.674  0.00  0.00    +0.000 OA
ATOM     14  C   UNL     1      44.848   4.792  11.387  0.00  0.00    +0.000 A 
ATOM     15  H   UNL     1      43.375   3.303  13.918  0.00  0.00    +0.000 HD
ENDBRANCH   2   5
BRANCH   3  16
ATOM     16  C   UNL     1      48.361   8.153  11.951  0.00  0.00    +0.000 C 
BRANCH  16  17
ATOM     17  C   UNL     1      48.715   8.104  13.415  0.00  0.00    +0.000 A 
ATOM     18  C   UNL     1      47.884   8.721  14.359  0.00  0.00    +0.000 A 
ATOM     19  C   UNL     1      48.156   8.622  15.725  0.00  0.00    +0.000 A 
ATOM     20  C   UNL     1      49.267   7.904  16.181  0.00  0.00    +0.000 A 
ATOM     21  C   UNL     1      50.147   7.362  15.233  0.00  0.00    +0.000 A 
ATOM     22  C   UNL     1      49.875   7.461  13.862  0.00  0.00    +0.000 A 
BRANCH  20  23
ATOM     23  C   UNL     1      49.529   7.764  17.658  0.00  0.00    +0.000 C 
BRANCH  23  24
ATOM     24  C   UNL     1      49.211   6.426  18.374  0.00  0.00    +0.000 C 
ATOM     25  C   UNL     1      50.420   5.510  18.599  0.00  0.00    +0.000 C 
ATOM     26  C   UNL     1      50.699   4.564  17.433  0.00  0.00    +0.000 C 
ATOM     27  N   UNL     1      49.534   3.758  17.076  0.00  0.00    +0.000 NA
ATOM     28  C   UNL     1      48.378   4.589  16.747  0.00  0.00    +0.000 C 
ATOM     29  C   UNL     1      48.024   5.622  17.818  0.00  0.00    +0.000 C 
ATOM     30  H   UNL     1      49.304   3.128  17.842  0.00  0.00    +0.000 HD
ENDBRANCH  23  24
ENDBRANCH  20  23
ENDBRANCH  16  17
ENDBRANCH   3  16
TORSDOF 5
ENDMDL
