MODEL 1
REMARK VINA RESULT:    -9.224      0.000      0.000
REMARK INTER + INTRA:         -13.182
REMARK INTER:                 -12.189
REMARK INTRA:                  -0.993
REMARK UNBOUND:                -0.993
REMARK  Name = 
REMARK  6 active torsions:
REMARK  status: ('A' for Active; 'I' for Inactive)
REMARK    1  A    between atoms: C_2  and  C_4
REMARK    2  A    between atoms: N_8  and  C_9
REMARK    3  A    between atoms: C_9  and  C_10
REMARK    4  A    between atoms: C_10  and  O_11
REMARK    5  A    between atoms: C_10  and  C_12
REMARK    6  A    between atoms: C_17  and  C_18
REMARK                            x       y       z     vdW  Elec       q    Type
REMARK                         _______ _______ _______ _____ _____    ______ ____
ROOT
ATOM      1  C   UNL     1      43.395   5.663  12.030  0.00  0.00    +0.000 C 
ENDROOT
BRANCH   1   2
ATOM      2  C   UNL     1      44.836   5.645  12.502  0.00  0.00    +0.000 A 
ATOM      3  C   UNL     1      45.351   4.616  13.285  0.00  0.00    +0.000 A 
ATOM      4  C   UNL     1      46.685   4.634  13.687  0.00  0.00    +0.000 A 
ATOM      5  F   UNL     1      47.164   3.644  14.450  0.00  0.00    +0.000 F 
ATOM      6  C   UNL     1      47.523   5.675  13.321  0.00  0.00    +0.000 A 
ATOM      7  C   UNL     1      47.048   6.733  12.538  0.00  0.00    +0.000 A 
ATOM      8  C   UNL     1      45.701   6.685  12.117  0.00  0.00    +0.000 A 
BRANCH   7   9
ATOM      9  C   UNL     1      47.899   7.894  12.220  0.00  0.00    +0.000 A 
ATOM     10  C   UNL     1      49.247   7.731  11.864  0.00  0.00    +0.000 A 
ATOM     11  C   UNL     1      50.023   8.815  11.458  0.00  0.00    +0.000 A 
ATOM     12  C   UNL     1      49.464  10.088  11.405  0.00  0.00    +0.000 A 
ATOM     13  C   UNL     1      48.142  10.284  11.785  0.00  0.00    +0.000 A 
ATOM     14  C   UNL     1      47.368   9.198  12.198  0.00  0.00    +0.000 A 
ENDBRANCH   7   9
ENDBRANCH   1   2
BRANCH   1  15
ATOM     15  O   UNL     1      42.527   5.344  13.120  0.00  0.00    +0.000 OA
ATOM     16  H   UNL     1      42.306   4.400  13.056  0.00  0.00    +0.000 HD
ENDBRANCH   1  15
BRANCH   1  17
ATOM     17  C   UNL     1      43.208   4.696  10.842  0.00  0.00    +0.000 C 
BRANCH  17  22
ATOM     18  C   UNL     1      46.466   2.326   7.698  0.00  0.00    +0.000 A 
ATOM     19  C   UNL     1      45.742   1.872   8.791  0.00  0.00    +0.000 A 
ATOM     20  C   UNL     1      44.938   2.769   9.487  0.00  0.00    +0.000 A 
ATOM     21  C   UNL     1      44.869   4.103   9.091  0.00  0.00    +0.000 A 
ATOM     22  N   UNL     1      44.064   5.020   9.717  0.00  0.00    +0.000 N 
ATOM     23  N   UNL     1      45.592   4.558   8.048  0.00  0.00    +0.000 NA
ATOM     24  C   UNL     1      46.378   3.671   7.379  0.00  0.00    +0.000 A 
ATOM     25  H   UNL     1      44.158   5.973   9.384  0.00  0.00    +0.000 HD
BRANCH  18  27
ATOM     26  N   UNL     1      48.475   1.954   6.404  0.00  0.00    +0.000 N 
ATOM     27  C   UNL     1      47.311   1.425   6.891  0.00  0.00    +0.000 C 
ATOM     28  O   UNL     1      47.003   0.259   6.694  0.00  0.00    +0.000 OA
ATOM     29  H   UNL     1      49.106   1.312   5.940  0.00  0.00    +0.000 HD
ATOM     30  H   UNL     1      48.867   2.814   6.760  0.00  0.00    +0.000 HD
ENDBRANCH  18  27
ENDBRANCH  17  22
ENDBRANCH   1  17
TORSDOF 6
ENDMDL
MODEL 2
REMARK VINA RESULT:    -8.683      2.271      3.837
REMARK INTER + INTRA:         -12.467
REMARK INTER:                 -11.458
REMARK INTRA:                  -1.009
REMARK UNBOUND:                -0.993
REMARK  Name = 
REMARK  6 active torsions:
REMARK  status: ('A' for Active; 'I' for Inactive)
REMARK    1  A    between atoms: C_2  and  C_4
REMARK    2  A    between atoms: N_8  and  C_9
REMARK    3  A    between atoms: C_9  and  C_10
REMARK    4  A    between atoms: C_10  and  O_11
REMARK    5  A    between atoms: C_10  and  C_12
REMARK    6  A    between atoms: C_17  and  C_18
REMARK                            x       y       z     vdW  Elec       q    Type
REMARK                         _______ _______ _______ _____ _____    ______ ____
ROOT
ATOM      1  C   UNL     1      43.738   4.527  12.382  0.00  0.00    +0.000 C 
ENDROOT
BRANCH   1   2
ATOM      2  C   UNL     1      45.118   5.070  12.697  0.00  0.00    +0.000 A 
ATOM      3  C   UNL     1      45.798   5.924  11.832  0.00  0.00    +0.000 A 
ATOM      4  C   UNL     1      47.060   6.410  12.168  0.00  0.00    +0.000 A 
ATOM      5  F   UNL     1      47.707   7.221  11.323  0.00  0.00    +0.000 F 
ATOM      6  C   UNL     1      47.665   6.050  13.362  0.00  0.00    +0.000 A 
ATOM      7  C   UNL     1      47.021   5.190  14.258  0.00  0.00    +0.000 A 
ATOM      8  C   UNL     1      45.731   4.729  13.915  0.00  0.00    +0.000 A 
BRANCH   7   9
ATOM      9  C   UNL     1      47.690   4.722  15.486  0.00  0.00    +0.000 A 
ATOM     10  C   UNL     1      47.632   3.375  15.877  0.00  0.00    +0.000 A 
ATOM     11  C   UNL     1      48.352   2.910  16.976  0.00  0.00    +0.000 A 
ATOM     12  C   UNL     1      49.141   3.789  17.710  0.00  0.00    +0.000 A 
ATOM     13  C   UNL     1      49.190   5.135  17.368  0.00  0.00    +0.000 A 
ATOM     14  C   UNL     1      48.463   5.600  16.271  0.00  0.00    +0.000 A 
ENDBRANCH   7   9
ENDBRANCH   1   2
BRANCH   1  15
ATOM     15  O   UNL     1      43.511   3.327  13.127  0.00  0.00    +0.000 OA
ATOM     16  H   UNL     1      42.736   3.473  13.694  0.00  0.00    +0.000 HD
ENDBRANCH   1  15
BRANCH   1  17
ATOM     17  C   UNL     1      43.585   4.300  10.863  0.00  0.00    +0.000 C 
BRANCH  17  22
ATOM     18  C   UNL     1      46.647   2.368   7.256  0.00  0.00    +0.000 A 
ATOM     19  C   UNL     1      46.218   3.664   7.507  0.00  0.00    +0.000 A 
ATOM     20  C   UNL     1      45.347   3.893   8.568  0.00  0.00    +0.000 A 
ATOM     21  C   UNL     1      44.910   2.832   9.358  0.00  0.00    +0.000 A 
ATOM     22  N   UNL     1      44.082   3.006  10.438  0.00  0.00    +0.000 N 
ATOM     23  N   UNL     1      45.299   1.567   9.103  0.00  0.00    +0.000 NA
ATOM     24  C   UNL     1      46.148   1.356   8.060  0.00  0.00    +0.000 A 
ATOM     25  H   UNL     1      43.775   2.150  10.887  0.00  0.00    +0.000 HD
BRANCH  18  27
ATOM     26  N   UNL     1      48.864   2.555   6.311  0.00  0.00    +0.000 N 
ATOM     27  C   UNL     1      47.598   2.055   6.174  0.00  0.00    +0.000 C 
ATOM     28  O   UNL     1      47.282   1.360   5.220  0.00  0.00    +0.000 OA
ATOM     29  H   UNL     1      49.547   2.256   5.625  0.00  0.00    +0.000 HD
ATOM     30  H   UNL     1      49.214   2.905   7.192  0.00  0.00    +0.000 HD
ENDBRANCH  18  27
ENDBRANCH  17  22
ENDBRANCH   1  17
TORSDOF 6
ENDMDL
MODEL 3
REMARK VINA RESULT:    -8.473      2.317      2.993
REMARK INTER + INTRA:         -12.190
REMARK INTER:                 -11.068
REMARK INTRA:                  -1.122
REMARK UNBOUND:                -0.993
REMARK  Name = 
REMARK  6 active torsions:
REMARK  status: ('A' for Active; 'I' for Inactive)
REMARK    1  A    between atoms: C_2  and  C_4
REMARK    2  A    between atoms: N_8  and  C_9
REMARK    3  A    between atoms: C_9  and  C_10
REMARK    4  A    between atoms: C_10  and  O_11
REMARK    5  A    between atoms: C_10  and  C_12
REMARK    6  A    between atoms: C_17  and  C_18
REMARK                            x       y       z     vdW  Elec       q    Type
REMARK                         _______ _______ _______ _____ _____    ______ ____
ROOT
ATOM      1  C   UNL     1      44.119   4.069  12.456  0.00  0.00    +0.000 C 
ENDROOT
BRANCH   1   2
ATOM      2  C   UNL     1      45.043   5.266  12.341  0.00  0.00    +0.000 A 
ATOM      3  C   UNL     1      46.407   5.182  12.610  0.00  0.00    +0.000 A 
ATOM      4  C   UNL     1      47.222   6.305  12.479  0.00  0.00    +0.000 A 
ATOM      5  F   UNL     1      48.529   6.214  12.752  0.00  0.00    +0.000 F 
ATOM      6  C   UNL     1      46.694   7.524  12.085  0.00  0.00    +0.000 A 
ATOM      7  C   UNL     1      45.329   7.655  11.809  0.00  0.00    +0.000 A 
ATOM      8  C   UNL     1      44.522   6.502  11.920  0.00  0.00    +0.000 A 
BRANCH   7   9
ATOM      9  C   UNL     1      44.735   8.964  11.482  0.00  0.00    +0.000 A 
ATOM     10  C   UNL     1      45.398  10.162  11.794  0.00  0.00    +0.000 A 
ATOM     11  C   UNL     1      44.892  11.395  11.389  0.00  0.00    +0.000 A 
ATOM     12  C   UNL     1      43.705  11.454  10.666  0.00  0.00    +0.000 A 
ATOM     13  C   UNL     1      43.008  10.288  10.373  0.00  0.00    +0.000 A 
ATOM     14  C   UNL     1      43.514   9.054  10.785  0.00  0.00    +0.000 A 
ENDBRANCH   7   9
ENDBRANCH   1   2
BRANCH   1  15
ATOM     15  O   UNL     1      44.838   2.956  12.993  0.00  0.00    +0.000 OA
ATOM     16  H   UNL     1      45.771   3.215  13.069  0.00  0.00    +0.000 HD
ENDBRANCH   1  15
BRANCH   1  17
ATOM     17  C   UNL     1      43.490   3.743  11.085  0.00  0.00    +0.000 C 
BRANCH  17  22
ATOM     18  C   UNL     1      46.570   2.580   7.176  0.00  0.00    +0.000 A 
ATOM     19  C   UNL     1      46.054   3.791   7.617  0.00  0.00    +0.000 A 
ATOM     20  C   UNL     1      45.202   3.801   8.718  0.00  0.00    +0.000 A 
ATOM     21  C   UNL     1      44.872   2.609   9.359  0.00  0.00    +0.000 A 
ATOM     22  N   UNL     1      44.069   2.564  10.470  0.00  0.00    +0.000 N 
ATOM     23  N   UNL     1      45.346   1.426   8.920  0.00  0.00    +0.000 NA
ATOM     24  C   UNL     1      46.175   1.430   7.839  0.00  0.00    +0.000 A 
ATOM     25  H   UNL     1      43.842   1.632  10.800  0.00  0.00    +0.000 HD
BRANCH  18  27
ATOM     26  N   UNL     1      48.838   2.594   6.339  0.00  0.00    +0.000 N 
ATOM     27  C   UNL     1      47.507   2.498   6.040  0.00  0.00    +0.000 C 
ATOM     28  O   UNL     1      47.116   2.321   4.896  0.00  0.00    +0.000 OA
ATOM     29  H   UNL     1      49.487   2.432   5.578  0.00  0.00    +0.000 HD
ATOM     30  H   UNL     1      49.189   2.483   7.280  0.00  0.00    +0.000 HD
ENDBRANCH  18  27
ENDBRANCH  17  22
ENDBRANCH   1  17
TORSDOF 6
ENDMDL
MODEL 4
REMARK VINA RESULT:    -8.272      3.508      7.038
REMARK INTER + INTRA:         -11.924
REMARK INTER:                 -11.188
REMARK INTRA:                  -0.736
REMARK UNBOUND:                -0.993
REMARK  Name = 
REMARK  6 active torsions:
REMARK  status: ('A' for Active; 'I' for Inactive)
REMARK    1  A    between atoms: C_2  and  C_4
REMARK    2  A    between atoms: N_8  and  C_9
REMARK    3  A    between atoms: C_9  and  C_10
REMARK    4  A    between atoms: C_10  and  O_11
REMARK    5  A    between atoms: C_10  and  C_12
REMARK    6  A    between atoms: C_17  and  C_18
REMARK                            x       y       z     vdW  Elec       q    Type
REMARK                         _______ _______ _______ _____ _____    ______ ____
ROOT
ATOM      1  C   UNL     1      45.203   6.346  11.452  0.00  0.00    +0.000 C 
ENDROOT
BRANCH   1   2
ATOM      2  C   UNL     1      44.864   4.963  10.928  0.00  0.00    +0.000 A 
ATOM      3  C   UNL     1      43.952   4.128  11.569  0.00  0.00    +0.000 A 
ATOM      4  C   UNL     1      43.661   2.870  11.045  0.00  0.00    +0.000 A 
ATOM      5  F   UNL     1      42.791   2.071  11.677  0.00  0.00    +0.000 F 
ATOM      6  C   UNL     1      44.273   2.423   9.885  0.00  0.00    +0.000 A 
ATOM      7  C   UNL     1      45.198   3.228   9.211  0.00  0.00    +0.000 A 
ATOM      8  C   UNL     1      45.462   4.510   9.740  0.00  0.00    +0.000 A 
BRANCH   7   9
ATOM      9  C   UNL     1      45.928   2.732   8.030  0.00  0.00    +0.000 A 
ATOM     10  C   UNL     1      46.177   3.564   6.927  0.00  0.00    +0.000 A 
ATOM     11  C   UNL     1      46.959   3.132   5.858  0.00  0.00    +0.000 A 
ATOM     12  C   UNL     1      47.506   1.853   5.870  0.00  0.00    +0.000 A 
ATOM     13  C   UNL     1      47.247   0.994   6.933  0.00  0.00    +0.000 A 
ATOM     14  C   UNL     1      46.457   1.427   7.999  0.00  0.00    +0.000 A 
ENDBRANCH   7   9
ENDBRANCH   1   2
BRANCH   1  15
ATOM     15  O   UNL     1      44.523   7.335  10.675  0.00  0.00    +0.000 OA
ATOM     16  H   UNL     1      44.688   8.200  11.087  0.00  0.00    +0.000 HD
ENDBRANCH   1  15
BRANCH   1  17
ATOM     17  C   UNL     1      46.731   6.560  11.448  0.00  0.00    +0.000 C 
BRANCH  17  22
ATOM     18  C   UNL     1      47.694   3.956  15.739  0.00  0.00    +0.000 A 
ATOM     19  C   UNL     1      47.118   3.574  14.536  0.00  0.00    +0.000 A 
ATOM     20  C   UNL     1      46.957   4.524  13.532  0.00  0.00    +0.000 A 
ATOM     21  C   UNL     1      47.365   5.840  13.741  0.00  0.00    +0.000 A 
ATOM     22  N   UNL     1      47.265   6.807  12.773  0.00  0.00    +0.000 N 
ATOM     23  N   UNL     1      47.899   6.226  14.916  0.00  0.00    +0.000 NA
ATOM     24  C   UNL     1      48.047   5.287  15.891  0.00  0.00    +0.000 A 
ATOM     25  H   UNL     1      47.525   7.741  13.071  0.00  0.00    +0.000 HD
BRANCH  18  27
ATOM     26  N   UNL     1      46.903   2.814  17.717  0.00  0.00    +0.000 N 
ATOM     27  C   UNL     1      47.930   2.996  16.833  0.00  0.00    +0.000 C 
ATOM     28  O   UNL     1      48.976   2.371  16.927  0.00  0.00    +0.000 OA
ATOM     29  H   UNL     1      47.021   2.081  18.406  0.00  0.00    +0.000 HD
ATOM     30  H   UNL     1      45.959   3.117  17.518  0.00  0.00    +0.000 HD
ENDBRANCH  18  27
ENDBRANCH  17  22
ENDBRANCH   1  17
TORSDOF 6
ENDMDL
MODEL 5
REMARK VINA RESULT:    -8.214      2.261      2.841
REMARK INTER + INTRA:         -11.848
REMARK INTER:                 -10.758
REMARK INTRA:                  -1.090
REMARK UNBOUND:                -0.993
REMARK  Name = 
REMARK  6 active torsions:
REMARK  status: ('A' for Active; 'I' for Inactive)
REMARK    1  A    between atoms: C_2  and  C_4
REMARK    2  A    between atoms: N_8  and  C_9
REMARK    3  A    between atoms: C_9  and  C_10
REMARK    4  A    between atoms: C_10  and  O_11
REMARK    5  A    between atoms: C_10  and  C_12
REMARK    6  A    between atoms: C_17  and  C_18
REMARK                            x       y       z     vdW  Elec       q    Type
REMARK                         _______ _______ _______ _____ _____    ______ ____
ROOT
ATOM      1  C   UNL     1      44.308   3.912  12.544  0.00  0.00    +0.000 C 
ENDROOT
BRANCH   1   2
ATOM      2  C   UNL     1      44.924   5.285  12.353  0.00  0.00    +0.000 A 
ATOM      3  C   UNL     1      44.317   6.273  11.583  0.00  0.00    +0.000 A 
ATOM      4  C   UNL     1      44.914   7.525  11.445  0.00  0.00    +0.000 A 
ATOM      5  F   UNL     1      44.326   8.463  10.692  0.00  0.00    +0.000 F 
ATOM      6  C   UNL     1      46.121   7.809  12.064  0.00  0.00    +0.000 A 
ATOM      7  C   UNL     1      46.768   6.845  12.844  0.00  0.00    +0.000 A 
ATOM      8  C   UNL     1      46.137   5.591  12.995  0.00  0.00    +0.000 A 
BRANCH   7   9
ATOM      9  C   UNL     1      48.096   7.099  13.430  0.00  0.00    +0.000 A 
ATOM     10  C   UNL     1      49.029   7.927  12.787  0.00  0.00    +0.000 A 
ATOM     11  C   UNL     1      50.242   8.256  13.390  0.00  0.00    +0.000 A 
ATOM     12  C   UNL     1      50.547   7.755  14.651  0.00  0.00    +0.000 A 
ATOM     13  C   UNL     1      49.658   6.904  15.297  0.00  0.00    +0.000 A 
ATOM     14  C   UNL     1      48.447   6.570  14.688  0.00  0.00    +0.000 A 
ENDBRANCH   7   9
ENDBRANCH   1   2
BRANCH   1  15
ATOM     15  O   UNL     1      45.330   2.966  12.867  0.00  0.00    +0.000 OA
ATOM     16  H   UNL     1      45.029   2.457  13.638  0.00  0.00    +0.000 HD
ENDBRANCH   1  15
BRANCH   1  17
ATOM     17  C   UNL     1      43.517   3.500  11.284  0.00  0.00    +0.000 C 
BRANCH  17  22
ATOM     18  C   UNL     1      46.520   2.643   7.239  0.00  0.00    +0.000 A 
ATOM     19  C   UNL     1      45.979   3.812   7.757  0.00  0.00    +0.000 A 
ATOM     20  C   UNL     1      45.159   3.736   8.878  0.00  0.00    +0.000 A 
ATOM     21  C   UNL     1      44.885   2.502   9.464  0.00  0.00    +0.000 A 
ATOM     22  N   UNL     1      44.115   2.374  10.593  0.00  0.00    +0.000 N 
ATOM     23  N   UNL     1      45.383   1.360   8.950  0.00  0.00    +0.000 NA
ATOM     24  C   UNL     1      46.180   1.447   7.850  0.00  0.00    +0.000 A 
ATOM     25  H   UNL     1      43.927   1.419  10.878  0.00  0.00    +0.000 HD
BRANCH  18  27
ATOM     26  N   UNL     1      48.662   2.093   6.260  0.00  0.00    +0.000 N 
ATOM     27  C   UNL     1      47.426   2.650   6.075  0.00  0.00    +0.000 C 
ATOM     28  O   UNL     1      47.081   3.102   4.993  0.00  0.00    +0.000 OA
ATOM     29  H   UNL     1      49.246   2.001   5.438  0.00  0.00    +0.000 HD
ATOM     30  H   UNL     1      48.871   1.496   7.049  0.00  0.00    +0.000 HD
ENDBRANCH  18  27
ENDBRANCH  17  22
ENDBRANCH   1  17
TORSDOF 6
ENDMDL
MODEL 6
REMARK VINA RESULT:    -8.169      3.785      7.114
REMARK INTER + INTRA:         -11.789
REMARK INTER:                 -10.904
REMARK INTRA:                  -0.884
REMARK UNBOUND:                -0.993
REMARK  Name = 
REMARK  6 active torsions:
REMARK  status: ('A' for Active; 'I' for Inactive)
REMARK    1  A    between atoms: C_2  and  C_4
REMARK    2  A    between atoms: N_8  and  C_9
REMARK    3  A    between atoms: C_9  and  C_10
REMARK    4  A    between atoms: C_10  and  O_11
REMARK    5  A    between atoms: C_10  and  C_12
REMARK    6  A    between atoms: C_17  and  C_18
REMARK                            x       y       z     vdW  Elec       q    Type
REMARK                         _______ _______ _______ _____ _____    ______ ____
ROOT
ATOM      1  C   UNL     1      46.087   7.661  12.192  0.00  0.00    +0.000 C 
ENDROOT
BRANCH   1   2
ATOM      2  C   UNL     1      45.175   6.620  11.569  0.00  0.00    +0.000 A 
ATOM      3  C   UNL     1      43.842   6.478  11.945  0.00  0.00    +0.000 A 
ATOM      4  C   UNL     1      43.037   5.516  11.337  0.00  0.00    +0.000 A 
ATOM      5  F   UNL     1      41.760   5.382  11.715  0.00  0.00    +0.000 F 
ATOM      6  C   UNL     1      43.546   4.681  10.355  0.00  0.00    +0.000 A 
ATOM      7  C   UNL     1      44.881   4.786   9.950  0.00  0.00    +0.000 A 
ATOM      8  C   UNL     1      45.675   5.784  10.556  0.00  0.00    +0.000 A 
BRANCH   7   9
ATOM      9  C   UNL     1      45.463   3.845   8.976  0.00  0.00    +0.000 A 
ATOM     10  C   UNL     1      46.173   4.304   7.855  0.00  0.00    +0.000 A 
ATOM     11  C   UNL     1      46.816   3.418   6.994  0.00  0.00    +0.000 A 
ATOM     12  C   UNL     1      46.756   2.049   7.235  0.00  0.00    +0.000 A 
ATOM     13  C   UNL     1      46.031   1.563   8.317  0.00  0.00    +0.000 A 
ATOM     14  C   UNL     1      45.381   2.453   9.175  0.00  0.00    +0.000 A 
ENDBRANCH   7   9
ENDBRANCH   1   2
BRANCH   1  15
ATOM     15  O   UNL     1      45.875   8.926  11.560  0.00  0.00    +0.000 OA
ATOM     16  H   UNL     1      45.500   8.758  10.679  0.00  0.00    +0.000 HD
ENDBRANCH   1  15
BRANCH   1  17
ATOM     17  C   UNL     1      47.559   7.209  12.098  0.00  0.00    +0.000 C 
BRANCH  17  22
ATOM     18  C   UNL     1      47.740   4.283  16.284  0.00  0.00    +0.000 A 
ATOM     19  C   UNL     1      46.993   4.183  15.119  0.00  0.00    +0.000 A 
ATOM     20  C   UNL     1      47.137   5.161  14.139  0.00  0.00    +0.000 A 
ATOM     21  C   UNL     1      48.014   6.225  14.335  0.00  0.00    +0.000 A 
ATOM     22  N   UNL     1      48.223   7.195  13.387  0.00  0.00    +0.000 N 
ATOM     23  N   UNL     1      48.722   6.345  15.476  0.00  0.00    +0.000 NA
ATOM     24  C   UNL     1      48.569   5.384  16.428  0.00  0.00    +0.000 A 
ATOM     25  H   UNL     1      48.828   7.956  13.677  0.00  0.00    +0.000 HD
BRANCH  18  27
ATOM     26  N   UNL     1      48.831   2.995  18.015  0.00  0.00    +0.000 N 
ATOM     27  C   UNL     1      47.667   3.265  17.349  0.00  0.00    +0.000 C 
ATOM     28  O   UNL     1      46.616   2.715  17.643  0.00  0.00    +0.000 OA
ATOM     29  H   UNL     1      48.764   2.376  18.814  0.00  0.00    +0.000 HD
ATOM     30  H   UNL     1      49.634   3.606  17.968  0.00  0.00    +0.000 HD
ENDBRANCH  18  27
ENDBRANCH  17  22
ENDBRANCH   1  17
TORSDOF 6
ENDMDL
MODEL 7
REMARK VINA RESULT:    -7.396      3.825      7.853
REMARK INTER + INTRA:         -10.767
REMARK INTER:                  -9.992
REMARK INTRA:                  -0.775
REMARK UNBOUND:                -0.993
REMARK  Name = 
REMARK  6 active torsions:
REMARK  status: ('A' for Active; 'I' for Inactive)
REMARK    1  A    between atoms: C_2  and  C_4
REMARK    2  A    between atoms: N_8  and  C_9
REMARK    3  A    between atoms: C_9  and  C_10
REMARK    4  A    between atoms: C_10  and  O_11
REMARK    5  A    between atoms: C_10  and  C_12
REMARK    6  A    between atoms: C_17  and  C_18
REMARK                            x       y       z     vdW  Elec       q    Type
REMARK                         _______ _______ _______ _____ _____    ______ ____
ROOT
ATOM      1  C   UNL     1      45.096   6.384  11.480  0.00  0.00    +0.000 C 
ENDROOT
BRANCH   1   2
ATOM      2  C   UNL     1      44.819   4.988  10.958  0.00  0.00    +0.000 A 
ATOM      3  C   UNL     1      43.933   4.118  11.590  0.00  0.00    +0.000 A 
ATOM      4  C   UNL     1      43.699   2.848  11.067  0.00  0.00    +0.000 A 
ATOM      5  F   UNL     1      42.855   2.017  11.691  0.00  0.00    +0.000 F 
ATOM      6  C   UNL     1      44.344   2.422   9.917  0.00  0.00    +0.000 A 
ATOM      7  C   UNL     1      45.244   3.261   9.252  0.00  0.00    +0.000 A 
ATOM      8  C   UNL     1      45.450   4.555   9.779  0.00  0.00    +0.000 A 
BRANCH   7   9
ATOM      9  C   UNL     1      46.009   2.791   8.082  0.00  0.00    +0.000 A 
ATOM     10  C   UNL     1      46.490   1.474   8.010  0.00  0.00    +0.000 A 
ATOM     11  C   UNL     1      47.117   0.996   6.861  0.00  0.00    +0.000 A 
ATOM     12  C   UNL     1      47.280   1.831   5.761  0.00  0.00    +0.000 A 
ATOM     13  C   UNL     1      46.845   3.150   5.816  0.00  0.00    +0.000 A 
ATOM     14  C   UNL     1      46.223   3.629   6.971  0.00  0.00    +0.000 A 
ENDBRANCH   7   9
ENDBRANCH   1   2
BRANCH   1  15
ATOM     15  O   UNL     1      44.343   7.338  10.727  0.00  0.00    +0.000 OA
ATOM     16  H   UNL     1      44.965   7.827  10.162  0.00  0.00    +0.000 HD
ENDBRANCH   1  15
BRANCH   1  17
ATOM     17  C   UNL     1      46.609   6.682  11.438  0.00  0.00    +0.000 C 
BRANCH  17  22
ATOM     18  C   UNL     1      48.715   8.163  15.853  0.00  0.00    +0.000 A 
ATOM     19  C   UNL     1      48.091   8.879  14.841  0.00  0.00    +0.000 A 
ATOM     20  C   UNL     1      47.627   8.198  13.720  0.00  0.00    +0.000 A 
ATOM     21  C   UNL     1      47.797   6.819  13.617  0.00  0.00    +0.000 A 
ATOM     22  N   UNL     1      47.326   6.093  12.553  0.00  0.00    +0.000 N 
ATOM     23  N   UNL     1      48.428   6.120  14.582  0.00  0.00    +0.000 NA
ATOM     24  C   UNL     1      48.881   6.799  15.672  0.00  0.00    +0.000 A 
ATOM     25  H   UNL     1      47.577   5.110  12.558  0.00  0.00    +0.000 HD
BRANCH  18  27
ATOM     26  N   UNL     1      48.276   9.000  18.078  0.00  0.00    +0.000 N 
ATOM     27  C   UNL     1      49.198   8.812  17.086  0.00  0.00    +0.000 C 
ATOM     28  O   UNL     1      50.369   9.136  17.227  0.00  0.00    +0.000 OA
ATOM     29  H   UNL     1      48.625   9.347  18.963  0.00  0.00    +0.000 HD
ATOM     30  H   UNL     1      47.387   8.519  18.086  0.00  0.00    +0.000 HD
ENDBRANCH  18  27
ENDBRANCH  17  22
ENDBRANCH   1  17
TORSDOF 6
ENDMDL
MODEL 8
REMARK VINA RESULT:    -7.368      3.529      6.953
REMARK INTER + INTRA:         -10.730
REMARK INTER:                  -9.907
REMARK INTRA:                  -0.823
REMARK UNBOUND:                -0.993
REMARK  Name = 
REMARK  6 active torsions:
REMARK  status: ('A' for Active; 'I' for Inactive)
REMARK    1  A    between atoms: C_2  and  C_4
REMARK    2  A    between atoms: N_8  and  C_9
REMARK    3  A    between atoms: C_9  and  C_10
REMARK    4  A    between atoms: C_10  and  O_11
REMARK    5  A    between atoms: C_10  and  C_12
REMARK    6  A    between atoms: C_17  and  C_18
REMARK                            x       y       z     vdW  Elec       q    Type
REMARK                         _______ _______ _______ _____ _____    ______ ____
ROOT
ATOM      1  C   UNL     1      43.892   6.595  11.731  0.00  0.00    +0.000 C 
ENDROOT
BRANCH   1   2
ATOM      2  C   UNL     1      44.001   5.120  11.394  0.00  0.00    +0.000 A 
ATOM      3  C   UNL     1      43.474   4.128  12.217  0.00  0.00    +0.000 A 
ATOM      4  C   UNL     1      43.587   2.785  11.862  0.00  0.00    +0.000 A 
ATOM      5  F   UNL     1      43.086   1.840  12.667  0.00  0.00    +0.000 F 
ATOM      6  C   UNL     1      44.227   2.411  10.691  0.00  0.00    +0.000 A 
ATOM      7  C   UNL     1      44.775   3.374   9.838  0.00  0.00    +0.000 A 
ATOM      8  C   UNL     1      44.629   4.731  10.198  0.00  0.00    +0.000 A 
BRANCH   7   9
ATOM      9  C   UNL     1      45.542   2.988   8.639  0.00  0.00    +0.000 A 
ATOM     10  C   UNL     1      45.926   3.943   7.684  0.00  0.00    +0.000 A 
ATOM     11  C   UNL     1      46.742   3.600   6.607  0.00  0.00    +0.000 A 
ATOM     12  C   UNL     1      47.186   2.290   6.463  0.00  0.00    +0.000 A 
ATOM     13  C   UNL     1      46.793   1.316   7.374  0.00  0.00    +0.000 A 
ATOM     14  C   UNL     1      45.970   1.660   8.447  0.00  0.00    +0.000 A 
ENDBRANCH   7   9
ENDBRANCH   1   2
BRANCH   1  15
ATOM     15  O   UNL     1      42.813   7.178  10.996  0.00  0.00    +0.000 OA
ATOM     16  H   UNL     1      42.373   7.821  11.577  0.00  0.00    +0.000 HD
ENDBRANCH   1  15
BRANCH   1  17
ATOM     17  C   UNL     1      45.232   7.309  11.453  0.00  0.00    +0.000 C 
BRANCH  17  22
ATOM     18  C   UNL     1      49.946   8.165  13.230  0.00  0.00    +0.000 A 
ATOM     19  C   UNL     1      49.494   7.628  12.033  0.00  0.00    +0.000 A 
ATOM     20  C   UNL     1      48.124   7.489  11.831  0.00  0.00    +0.000 A 
ATOM     21  C   UNL     1      47.226   7.879  12.822  0.00  0.00    +0.000 A 
ATOM     22  N   UNL     1      45.866   7.800  12.661  0.00  0.00    +0.000 N 
ATOM     23  N   UNL     1      47.658   8.374  13.999  0.00  0.00    +0.000 NA
ATOM     24  C   UNL     1      49.001   8.501  14.186  0.00  0.00    +0.000 A 
ATOM     25  H   UNL     1      45.321   8.043  13.481  0.00  0.00    +0.000 HD
BRANCH  18  27
ATOM     26  N   UNL     1      51.930   7.626  14.503  0.00  0.00    +0.000 N 
ATOM     27  C   UNL     1      51.381   8.376  13.499  0.00  0.00    +0.000 C 
ATOM     28  O   UNL     1      52.052   9.156  12.839  0.00  0.00    +0.000 OA
ATOM     29  H   UNL     1      52.934   7.691  14.621  0.00  0.00    +0.000 HD
ATOM     30  H   UNL     1      51.470   6.809  14.880  0.00  0.00    +0.000 HD
ENDBRANCH  18  27
ENDBRANCH  17  22
ENDBRANCH   1  17
TORSDOF 6
ENDMDL
MODEL 9
REMARK VINA RESULT:    -6.965      5.020      7.253
REMARK INTER + INTRA:         -10.197
REMARK INTER:                  -9.093
REMARK INTRA:                  -1.104
REMARK UNBOUND:                -0.993
REMARK  Name = 
REMARK  6 active torsions:
REMARK  status: ('A' for Active; 'I' for Inactive)
REMARK    1  A    between atoms: C_2  and  C_4
REMARK    2  A    between atoms: N_8  and  C_9
REMARK    3  A    between atoms: C_9  and  C_10
REMARK    4  A    between atoms: C_10  and  O_11
REMARK    5  A    between atoms: C_10  and  C_12
REMARK    6  A    between atoms: C_17  and  C_18
REMARK                            x       y       z     vdW  Elec       q    Type
REMARK                         _______ _______ _______ _____ _____    ______ ____
ROOT
ATOM      1  C   UNL     1      49.060   6.842  16.297  0.00  0.00    +0.000 C 
ENDROOT
BRANCH   1   2
ATOM      2  C   UNL     1      48.991   5.401  16.766  0.00  0.00    +0.000 A 
ATOM      3  C   UNL     1      47.782   4.738  16.958  0.00  0.00    +0.000 A 
ATOM      4  C   UNL     1      47.766   3.409  17.378  0.00  0.00    +0.000 A 
ATOM      5  F   UNL     1      46.596   2.786  17.570  0.00  0.00    +0.000 F 
ATOM      6  C   UNL     1      48.947   2.725  17.618  0.00  0.00    +0.000 A 
ATOM      7  C   UNL     1      50.184   3.354  17.442  0.00  0.00    +0.000 A 
ATOM      8  C   UNL     1      50.183   4.692  16.990  0.00  0.00    +0.000 A 
BRANCH   7   9
ATOM      9  C   UNL     1      51.446   2.672  17.784  0.00  0.00    +0.000 A 
ATOM     10  C   UNL     1      51.666   1.331  17.431  0.00  0.00    +0.000 A 
ATOM     11  C   UNL     1      52.896   0.717  17.655  0.00  0.00    +0.000 A 
ATOM     12  C   UNL     1      53.932   1.435  18.244  0.00  0.00    +0.000 A 
ATOM     13  C   UNL     1      53.732   2.753  18.636  0.00  0.00    +0.000 A 
ATOM     14  C   UNL     1      52.496   3.364  18.416  0.00  0.00    +0.000 A 
ENDBRANCH   7   9
ENDBRANCH   1   2
BRANCH   1  15
ATOM     15  O   UNL     1      47.986   7.589  16.877  0.00  0.00    +0.000 OA
ATOM     16  H   UNL     1      47.176   7.060  16.786  0.00  0.00    +0.000 HD
ENDBRANCH   1  15
BRANCH   1  17
ATOM     17  C   UNL     1      49.040   6.906  14.756  0.00  0.00    +0.000 C 
BRANCH  17  22
ATOM     18  C   UNL     1      45.002   4.638  12.597  0.00  0.00    +0.000 A 
ATOM     19  C   UNL     1      46.228   4.139  13.014  0.00  0.00    +0.000 A 
ATOM     20  C   UNL     1      47.164   5.015  13.555  0.00  0.00    +0.000 A 
ATOM     21  C   UNL     1      46.871   6.372  13.667  0.00  0.00    +0.000 A 
ATOM     22  N   UNL     1      47.741   7.273  14.227  0.00  0.00    +0.000 N 
ATOM     23  N   UNL     1      45.694   6.869  13.238  0.00  0.00    +0.000 NA
ATOM     24  C   UNL     1      44.788   6.002  12.707  0.00  0.00    +0.000 A 
ATOM     25  H   UNL     1      47.444   8.242  14.184  0.00  0.00    +0.000 HD
BRANCH  18  27
ATOM     26  N   UNL     1      43.859   2.507  12.582  0.00  0.00    +0.000 N 
ATOM     27  C   UNL     1      43.948   3.764  12.049  0.00  0.00    +0.000 C 
ATOM     28  O   UNL     1      43.174   4.152  11.186  0.00  0.00    +0.000 OA
ATOM     29  H   UNL     1      43.073   1.942  12.284  0.00  0.00    +0.000 HD
ATOM     30  H   UNL     1      44.307   2.258  13.453  0.00  0.00    +0.000 HD
ENDBRANCH  18  27
ENDBRANCH  17  22
ENDBRANCH   1  17
TORSDOF 6
ENDMDL
