MODEL 1
REMARK VINA RESULT:    -8.522      0.000      0.000
REMARK INTER + INTRA:         -14.226
REMARK INTER:                 -13.005
REMARK INTRA:                  -1.221
REMARK UNBOUND:                -1.221
REMARK  Name = 
REMARK  11 active torsions:
REMARK  status: ('A' for Active; 'I' for Inactive)
REMARK    1  A    between atoms: C_1  and  C_2
REMARK    2  A    between atoms: C_2  and  C_3
REMARK    3  A    between atoms: C_2  and  N_4
REMARK    4  A    between atoms: C_2  and  C_19
REMARK    5  A    between atoms: N_4  and  C_5
REMARK    6  A    between atoms: C_8  and  C_9
REMARK    7  A    between atoms: C_9  and  C_10
REMARK    8  A    between atoms: C_10  and  N_11
REMARK    9  A    between atoms: C_22  and  C_23
REMARK   10  A    between atoms: N_25  and  C_26
REMARK   11  A    between atoms: C_26  and  C_27
REMARK                            x       y       z     vdW  Elec       q    Type
REMARK                         _______ _______ _______ _____ _____    ______ ____
ROOT
ATOM      1  C   UNL     1      42.392   5.420  11.624  0.00  0.00    +0.000 C 
ATOM      2  C   UNL     1      43.507   4.439  11.202  0.00  0.00    +0.000 C 
ATOM      3  C   UNL     1      43.246   2.987  11.668  0.00  0.00    +0.000 C 
ENDROOT
BRANCH   2   4
ATOM      4  C   UNL     1      44.796   4.977  11.878  0.00  0.00    +0.000 A 
ATOM      5  C   UNL     1      45.591   4.141  12.690  0.00  0.00    +0.000 A 
ATOM      6  C   UNL     1      46.743   4.617  13.323  0.00  0.00    +0.000 A 
ATOM      7  C   UNL     1      47.114   5.953  13.177  0.00  0.00    +0.000 A 
ATOM      8  C   UNL     1      46.335   6.803  12.386  0.00  0.00    +0.000 A 
ATOM      9  C   UNL     1      45.179   6.325  11.760  0.00  0.00    +0.000 A 
BRANCH   7  10
ATOM     10  C   UNL     1      48.331   6.508  13.825  0.00  0.00    +0.000 C 
ATOM     11  O   UNL     1      49.360   6.642  13.172  0.00  0.00    +0.000 OA
ATOM     12  N   UNL     1      48.211   6.876  15.145  0.00  0.00    +0.000 N 
ATOM     13  H   UNL     1      47.309   6.862  15.597  0.00  0.00    +0.000 HD
BRANCH  12  14
ATOM     14  C   UNL     1      49.316   7.461  15.873  0.00  0.00    +0.000 C 
BRANCH  14  15
ATOM     15  C   UNL     1      50.190   6.408  16.487  0.00  0.00    +0.000 A 
ATOM     16  C   UNL     1      49.654   5.264  17.086  0.00  0.00    +0.000 A 
ATOM     17  C   UNL     1      50.503   4.328  17.670  0.00  0.00    +0.000 A 
ATOM     18  C   UNL     1      51.867   4.568  17.638  0.00  0.00    +0.000 A 
ATOM     19  N   UNL     1      52.423   5.660  17.069  0.00  0.00    +0.000 NA
ATOM     20  C   UNL     1      51.573   6.554  16.516  0.00  0.00    +0.000 A 
ENDBRANCH  14  15
ENDBRANCH  12  14
ENDBRANCH   7  10
ENDBRANCH   2   4
BRANCH   2  21
ATOM     21  N   UNL     1      43.698   4.455   9.735  0.00  0.00    +0.000 N 
ATOM     22  H   UNL     1      43.618   5.397   9.356  0.00  0.00    +0.000 HD
BRANCH  21  23
ATOM     23  C   UNL     1      44.643   3.727   9.020  0.00  0.00    +0.000 A 
ATOM     24  C   UNL     1      45.624   4.293   8.210  0.00  0.00    +0.000 A 
ATOM     25  C   UNL     1      46.524   3.516   7.493  0.00  0.00    +0.000 A 
ATOM     26  C   UNL     1      46.527   2.130   7.624  0.00  0.00    +0.000 A 
ATOM     27  C   UNL     1      45.602   1.537   8.483  0.00  0.00    +0.000 A 
ATOM     28  C   UNL     1      44.676   2.331   9.175  0.00  0.00    +0.000 A 
BRANCH  26  29
ATOM     29  C   UNL     1      47.497   1.315   6.809  0.00  0.00    +0.000 C 
BRANCH  29  30
ATOM     30  C   UNL     1      47.724   1.915   5.408  0.00  0.00    +0.000 C 
BRANCH  30  31
ATOM     31  N   UNL     1      47.418   0.976   4.313  0.00  0.00    +0.000 NA
ATOM     32  C   UNL     1      47.227  -0.396   4.807  0.00  0.00    +0.000 C 
ATOM     33  C   UNL     1      46.946  -1.360   3.655  0.00  0.00    +0.000 C 
ATOM     34  C   UNL     1      45.733  -0.916   2.851  0.00  0.00    +0.000 C 
ATOM     35  C   UNL     1      45.897   0.532   2.408  0.00  0.00    +0.000 C 
ATOM     36  C   UNL     1      46.218   1.441   3.594  0.00  0.00    +0.000 C 
ENDBRANCH  30  31
ENDBRANCH  29  30
ENDBRANCH  26  29
ENDBRANCH  21  23
ENDBRANCH   2  21
TORSDOF 9
ENDMDL
MODEL 2
REMARK VINA RESULT:    -8.285      2.742      3.464
REMARK INTER + INTRA:         -13.864
REMARK INTER:                 -12.563
REMARK INTRA:                  -1.302
REMARK UNBOUND:                -1.221
REMARK  Name = 
REMARK  11 active torsions:
REMARK  status: ('A' for Active; 'I' for Inactive)
REMARK    1  A    between atoms: C_1  and  C_2
REMARK    2  A    between atoms: C_2  and  C_3
REMARK    3  A    between atoms: C_2  and  N_4
REMARK    4  A    between atoms: C_2  and  C_19
REMARK    5  A    between atoms: N_4  and  C_5
REMARK    6  A    between atoms: C_8  and  C_9
REMARK    7  A    between atoms: C_9  and  C_10
REMARK    8  A    between atoms: C_10  and  N_11
REMARK    9  A    between atoms: C_22  and  C_23
REMARK   10  A    between atoms: N_25  and  C_26
REMARK   11  A    between atoms: C_26  and  C_27
REMARK                            x       y       z     vdW  Elec       q    Type
REMARK                         _______ _______ _______ _____ _____    ______ ____
ROOT
ATOM      1  C   UNL     1      42.633   5.581  11.858  0.00  0.00    +0.000 C 
ATOM      2  C   UNL     1      43.693   4.559  11.392  0.00  0.00    +0.000 C 
ATOM      3  C   UNL     1      43.503   3.159  12.022  0.00  0.00    +0.000 C 
ENDROOT
BRANCH   2   4
ATOM      4  C   UNL     1      45.053   5.151  11.845  0.00  0.00    +0.000 A 
ATOM      5  C   UNL     1      45.871   4.465  12.767  0.00  0.00    +0.000 A 
ATOM      6  C   UNL     1      47.089   4.996  13.201  0.00  0.00    +0.000 A 
ATOM      7  C   UNL     1      47.507   6.244  12.739  0.00  0.00    +0.000 A 
ATOM      8  C   UNL     1      46.708   6.947  11.834  0.00  0.00    +0.000 A 
ATOM      9  C   UNL     1      45.486   6.416  11.407  0.00  0.00    +0.000 A 
BRANCH   7  10
ATOM     10  C   UNL     1      48.794   6.851  13.166  0.00  0.00    +0.000 C 
ATOM     11  O   UNL     1      49.159   6.748  14.332  0.00  0.00    +0.000 OA
ATOM     12  N   UNL     1      49.532   7.480  12.189  0.00  0.00    +0.000 N 
ATOM     13  H   UNL     1      49.246   7.425  11.222  0.00  0.00    +0.000 HD
BRANCH  12  14
ATOM     14  C   UNL     1      50.817   8.078  12.475  0.00  0.00    +0.000 C 
BRANCH  14  15
ATOM     15  C   UNL     1      51.613   8.299  11.223  0.00  0.00    +0.000 A 
ATOM     16  C   UNL     1      51.783   7.290  10.270  0.00  0.00    +0.000 A 
ATOM     17  C   UNL     1      52.555   7.532   9.138  0.00  0.00    +0.000 A 
ATOM     18  C   UNL     1      53.136   8.781   8.994  0.00  0.00    +0.000 A 
ATOM     19  N   UNL     1      52.996   9.781   9.891  0.00  0.00    +0.000 NA
ATOM     20  C   UNL     1      52.246   9.515  10.984  0.00  0.00    +0.000 A 
ENDBRANCH  14  15
ENDBRANCH  12  14
ENDBRANCH   7  10
ENDBRANCH   2   4
BRANCH   2  21
ATOM     21  N   UNL     1      43.696   4.436   9.918  0.00  0.00    +0.000 N 
ATOM     22  H   UNL     1      43.470   5.321   9.466  0.00  0.00    +0.000 HD
BRANCH  21  23
ATOM     23  C   UNL     1      44.615   3.726   9.153  0.00  0.00    +0.000 A 
ATOM     24  C   UNL     1      45.534   4.310   8.285  0.00  0.00    +0.000 A 
ATOM     25  C   UNL     1      46.409   3.549   7.521  0.00  0.00    +0.000 A 
ATOM     26  C   UNL     1      46.453   2.164   7.658  0.00  0.00    +0.000 A 
ATOM     27  C   UNL     1      45.594   1.556   8.573  0.00  0.00    +0.000 A 
ATOM     28  C   UNL     1      44.690   2.332   9.312  0.00  0.00    +0.000 A 
BRANCH  26  29
ATOM     29  C   UNL     1      47.394   1.368   6.793  0.00  0.00    +0.000 C 
BRANCH  29  30
ATOM     30  C   UNL     1      47.548   1.980   5.388  0.00  0.00    +0.000 C 
BRANCH  30  31
ATOM     31  N   UNL     1      47.334   1.010   4.299  0.00  0.00    +0.000 NA
ATOM     32  C   UNL     1      47.140  -0.354   4.813  0.00  0.00    +0.000 C 
ATOM     33  C   UNL     1      46.956  -1.351   3.671  0.00  0.00    +0.000 C 
ATOM     34  C   UNL     1      45.788  -0.954   2.779  0.00  0.00    +0.000 C 
ATOM     35  C   UNL     1      45.950   0.487   2.312  0.00  0.00    +0.000 C 
ATOM     36  C   UNL     1      46.174   1.430   3.493  0.00  0.00    +0.000 C 
ENDBRANCH  30  31
ENDBRANCH  29  30
ENDBRANCH  26  29
ENDBRANCH  21  23
ENDBRANCH   2  21
TORSDOF 9
ENDMDL
MODEL 3
REMARK VINA RESULT:    -8.181      1.559      2.096
REMARK INTER + INTRA:         -13.706
REMARK INTER:                 -12.894
REMARK INTRA:                  -0.812
REMARK UNBOUND:                -1.221
REMARK  Name = 
REMARK  11 active torsions:
REMARK  status: ('A' for Active; 'I' for Inactive)
REMARK    1  A    between atoms: C_1  and  C_2
REMARK    2  A    between atoms: C_2  and  C_3
REMARK    3  A    between atoms: C_2  and  N_4
REMARK    4  A    between atoms: C_2  and  C_19
REMARK    5  A    between atoms: N_4  and  C_5
REMARK    6  A    between atoms: C_8  and  C_9
REMARK    7  A    between atoms: C_9  and  C_10
REMARK    8  A    between atoms: C_10  and  N_11
REMARK    9  A    between atoms: C_22  and  C_23
REMARK   10  A    between atoms: N_25  and  C_26
REMARK   11  A    between atoms: C_26  and  C_27
REMARK                            x       y       z     vdW  Elec       q    Type
REMARK                         _______ _______ _______ _____ _____    ______ ____
ROOT
ATOM      1  C   UNL     1      42.359   5.428  11.648  0.00  0.00    +0.000 C 
ATOM      2  C   UNL     1      43.521   4.497  11.240  0.00  0.00    +0.000 C 
ATOM      3  C   UNL     1      43.244   3.008  11.555  0.00  0.00    +0.000 C 
ENDROOT
BRANCH   2   4
ATOM      4  C   UNL     1      44.740   4.985  12.067  0.00  0.00    +0.000 A 
ATOM      5  C   UNL     1      45.058   6.357  12.148  0.00  0.00    +0.000 A 
ATOM      6  C   UNL     1      46.165   6.809  12.871  0.00  0.00    +0.000 A 
ATOM      7  C   UNL     1      46.997   5.892  13.513  0.00  0.00    +0.000 A 
ATOM      8  C   UNL     1      46.708   4.527  13.437  0.00  0.00    +0.000 A 
ATOM      9  C   UNL     1      45.604   4.077  12.707  0.00  0.00    +0.000 A 
BRANCH   7  10
ATOM     10  C   UNL     1      48.184   6.321  14.298  0.00  0.00    +0.000 C 
ATOM     11  O   UNL     1      49.249   6.531  13.727  0.00  0.00    +0.000 OA
ATOM     12  N   UNL     1      47.998   6.491  15.651  0.00  0.00    +0.000 N 
ATOM     13  H   UNL     1      47.072   6.427  16.049  0.00  0.00    +0.000 HD
BRANCH  12  14
ATOM     14  C   UNL     1      49.069   6.940  16.514  0.00  0.00    +0.000 C 
BRANCH  14  15
ATOM     15  C   UNL     1      48.619   7.048  17.940  0.00  0.00    +0.000 A 
ATOM     16  C   UNL     1      49.098   8.050  18.789  0.00  0.00    +0.000 A 
ATOM     17  C   UNL     1      48.674   8.094  20.114  0.00  0.00    +0.000 A 
ATOM     18  C   UNL     1      47.781   7.129  20.550  0.00  0.00    +0.000 A 
ATOM     19  N   UNL     1      47.295   6.147  19.761  0.00  0.00    +0.000 NA
ATOM     20  C   UNL     1      47.729   6.126  18.481  0.00  0.00    +0.000 A 
ENDBRANCH  14  15
ENDBRANCH  12  14
ENDBRANCH   7  10
ENDBRANCH   2   4
BRANCH   2  21
ATOM     21  N   UNL     1      43.835   4.643   9.801  0.00  0.00    +0.000 N 
ATOM     22  H   UNL     1      43.911   5.622   9.531  0.00  0.00    +0.000 HD
BRANCH  21  23
ATOM     23  C   UNL     1      44.733   3.871   9.073  0.00  0.00    +0.000 A 
ATOM     24  C   UNL     1      45.715   4.389   8.233  0.00  0.00    +0.000 A 
ATOM     25  C   UNL     1      46.567   3.569   7.503  0.00  0.00    +0.000 A 
ATOM     26  C   UNL     1      46.519   2.186   7.651  0.00  0.00    +0.000 A 
ATOM     27  C   UNL     1      45.593   1.639   8.539  0.00  0.00    +0.000 A 
ATOM     28  C   UNL     1      44.716   2.476   9.243  0.00  0.00    +0.000 A 
BRANCH  26  29
ATOM     29  C   UNL     1      47.437   1.325   6.822  0.00  0.00    +0.000 C 
BRANCH  29  30
ATOM     30  C   UNL     1      47.675   1.915   5.420  0.00  0.00    +0.000 C 
BRANCH  30  31
ATOM     31  N   UNL     1      47.392   0.964   4.328  0.00  0.00    +0.000 NA
ATOM     32  C   UNL     1      47.145  -0.394   4.838  0.00  0.00    +0.000 C 
ATOM     33  C   UNL     1      46.890  -1.371   3.692  0.00  0.00    +0.000 C 
ATOM     34  C   UNL     1      45.723  -0.913   2.829  0.00  0.00    +0.000 C 
ATOM     35  C   UNL     1      45.942   0.523   2.369  0.00  0.00    +0.000 C 
ATOM     36  C   UNL     1      46.235   1.445   3.552  0.00  0.00    +0.000 C 
ENDBRANCH  30  31
ENDBRANCH  29  30
ENDBRANCH  26  29
ENDBRANCH  21  23
ENDBRANCH   2  21
TORSDOF 9
ENDMDL
MODEL 4
REMARK VINA RESULT:    -7.655      2.562     10.134
REMARK INTER + INTRA:         -12.904
REMARK INTER:                 -11.367
REMARK INTRA:                  -1.537
REMARK UNBOUND:                -1.221
REMARK  Name = 
REMARK  11 active torsions:
REMARK  status: ('A' for Active; 'I' for Inactive)
REMARK    1  A    between atoms: C_1  and  C_2
REMARK    2  A    between atoms: C_2  and  C_3
REMARK    3  A    between atoms: C_2  and  N_4
REMARK    4  A    between atoms: C_2  and  C_19
REMARK    5  A    between atoms: N_4  and  C_5
REMARK    6  A    between atoms: C_8  and  C_9
REMARK    7  A    between atoms: C_9  and  C_10
REMARK    8  A    between atoms: C_10  and  N_11
REMARK    9  A    between atoms: C_22  and  C_23
REMARK   10  A    between atoms: N_25  and  C_26
REMARK   11  A    between atoms: C_26  and  C_27
REMARK                            x       y       z     vdW  Elec       q    Type
REMARK                         _______ _______ _______ _____ _____    ______ ____
ROOT
ATOM      1  C   UNL     1      47.160  11.593  12.143  0.00  0.00    +0.000 C 
ATOM      2  C   UNL     1      48.124  10.470  12.585  0.00  0.00    +0.000 C 
ATOM      3  C   UNL     1      49.500  10.544  11.884  0.00  0.00    +0.000 C 
ENDROOT
BRANCH   2   4
ATOM      4  C   UNL     1      47.412   9.148  12.192  0.00  0.00    +0.000 A 
ATOM      5  C   UNL     1      48.153   8.022  11.777  0.00  0.00    +0.000 A 
ATOM      6  C   UNL     1      47.525   6.832  11.400  0.00  0.00    +0.000 A 
ATOM      7  C   UNL     1      46.133   6.749  11.404  0.00  0.00    +0.000 A 
ATOM      8  C   UNL     1      45.377   7.856  11.801  0.00  0.00    +0.000 A 
ATOM      9  C   UNL     1      46.008   9.048  12.171  0.00  0.00    +0.000 A 
BRANCH   7  10
ATOM     10  C   UNL     1      45.416   5.506  11.016  0.00  0.00    +0.000 C 
ATOM     11  O   UNL     1      44.993   4.751  11.885  0.00  0.00    +0.000 OA
ATOM     12  N   UNL     1      45.241   5.293   9.668  0.00  0.00    +0.000 N 
ATOM     13  H   UNL     1      45.497   6.008   9.003  0.00  0.00    +0.000 HD
BRANCH  12  14
ATOM     14  C   UNL     1      44.528   4.137   9.169  0.00  0.00    +0.000 C 
BRANCH  14  15
ATOM     15  C   UNL     1      45.446   3.190   8.455  0.00  0.00    +0.000 A 
ATOM     16  C   UNL     1      46.242   3.604   7.383  0.00  0.00    +0.000 A 
ATOM     17  C   UNL     1      47.056   2.683   6.731  0.00  0.00    +0.000 A 
ATOM     18  C   UNL     1      47.048   1.370   7.173  0.00  0.00    +0.000 A 
ATOM     19  N   UNL     1      46.294   0.932   8.204  0.00  0.00    +0.000 NA
ATOM     20  C   UNL     1      45.508   1.848   8.814  0.00  0.00    +0.000 A 
ENDBRANCH  14  15
ENDBRANCH  12  14
ENDBRANCH   7  10
ENDBRANCH   2   4
BRANCH   2  21
ATOM     21  N   UNL     1      48.319  10.486  14.051  0.00  0.00    +0.000 N 
ATOM     22  H   UNL     1      47.503  10.857  14.535  0.00  0.00    +0.000 HD
BRANCH  21  23
ATOM     23  C   UNL     1      48.918   9.490  14.812  0.00  0.00    +0.000 A 
ATOM     24  C   UNL     1      48.226   8.465  15.453  0.00  0.00    +0.000 A 
ATOM     25  C   UNL     1      48.874   7.512  16.228  0.00  0.00    +0.000 A 
ATOM     26  C   UNL     1      50.263   7.501  16.326  0.00  0.00    +0.000 A 
ATOM     27  C   UNL     1      50.989   8.472  15.637  0.00  0.00    +0.000 A 
ATOM     28  C   UNL     1      50.321   9.450  14.887  0.00  0.00    +0.000 A 
BRANCH  26  29
ATOM     29  C   UNL     1      50.931   6.471  17.198  0.00  0.00    +0.000 C 
BRANCH  29  30
ATOM     30  C   UNL     1      49.991   5.947  18.300  0.00  0.00    +0.000 C 
BRANCH  30  31
ATOM     31  N   UNL     1      49.635   4.526  18.140  0.00  0.00    +0.000 NA
ATOM     32  C   UNL     1      48.365   4.360  17.415  0.00  0.00    +0.000 C 
ATOM     33  C   UNL     1      47.994   2.883  17.290  0.00  0.00    +0.000 C 
ATOM     34  C   UNL     1      49.099   2.096  16.602  0.00  0.00    +0.000 C 
ATOM     35  C   UNL     1      50.429   2.332  17.306  0.00  0.00    +0.000 C 
ATOM     36  C   UNL     1      50.727   3.825  17.440  0.00  0.00    +0.000 C 
ENDBRANCH  30  31
ENDBRANCH  29  30
ENDBRANCH  26  29
ENDBRANCH  21  23
ENDBRANCH   2  21
TORSDOF 9
ENDMDL
MODEL 5
REMARK VINA RESULT:    -7.284      2.360      5.309
REMARK INTER + INTRA:         -12.337
REMARK INTER:                 -10.946
REMARK INTRA:                  -1.392
REMARK UNBOUND:                -1.221
REMARK  Name = 
REMARK  11 active torsions:
REMARK  status: ('A' for Active; 'I' for Inactive)
REMARK    1  A    between atoms: C_1  and  C_2
REMARK    2  A    between atoms: C_2  and  C_3
REMARK    3  A    between atoms: C_2  and  N_4
REMARK    4  A    between atoms: C_2  and  C_19
REMARK    5  A    between atoms: N_4  and  C_5
REMARK    6  A    between atoms: C_8  and  C_9
REMARK    7  A    between atoms: C_9  and  C_10
REMARK    8  A    between atoms: C_10  and  N_11
REMARK    9  A    between atoms: C_22  and  C_23
REMARK   10  A    between atoms: N_25  and  C_26
REMARK   11  A    between atoms: C_26  and  C_27
REMARK                            x       y       z     vdW  Elec       q    Type
REMARK                         _______ _______ _______ _____ _____    ______ ____
ROOT
ATOM      1  C   UNL     1      48.804   6.897  12.598  0.00  0.00    +0.000 C 
ATOM      2  C   UNL     1      48.066   7.265  13.903  0.00  0.00    +0.000 C 
ATOM      3  C   UNL     1      47.805   8.783  14.044  0.00  0.00    +0.000 C 
ENDROOT
BRANCH   2   4
ATOM      4  C   UNL     1      49.003   6.792  15.045  0.00  0.00    +0.000 A 
ATOM      5  C   UNL     1      48.534   5.921  16.052  0.00  0.00    +0.000 A 
ATOM      6  C   UNL     1      49.360   5.503  17.099  0.00  0.00    +0.000 A 
ATOM      7  C   UNL     1      50.672   5.969  17.178  0.00  0.00    +0.000 A 
ATOM      8  C   UNL     1      51.155   6.841  16.198  0.00  0.00    +0.000 A 
ATOM      9  C   UNL     1      50.324   7.263  15.155  0.00  0.00    +0.000 A 
BRANCH   7  10
ATOM     10  C   UNL     1      51.592   5.552  18.268  0.00  0.00    +0.000 C 
ATOM     11  O   UNL     1      51.134   5.187  19.345  0.00  0.00    +0.000 OA
ATOM     12  N   UNL     1      52.937   5.573  17.979  0.00  0.00    +0.000 N 
ATOM     13  H   UNL     1      53.253   5.760  17.039  0.00  0.00    +0.000 HD
BRANCH  12  14
ATOM     14  C   UNL     1      53.928   5.156  18.948  0.00  0.00    +0.000 C 
BRANCH  14  15
ATOM     15  C   UNL     1      54.266   3.702  18.799  0.00  0.00    +0.000 A 
ATOM     16  C   UNL     1      54.632   3.153  17.567  0.00  0.00    +0.000 A 
ATOM     17  C   UNL     1      54.908   1.792  17.471  0.00  0.00    +0.000 A 
ATOM     18  C   UNL     1      54.807   1.020  18.616  0.00  0.00    +0.000 A 
ATOM     19  N   UNL     1      54.457   1.512  19.824  0.00  0.00    +0.000 NA
ATOM     20  C   UNL     1      54.189   2.836  19.885  0.00  0.00    +0.000 A 
ENDBRANCH  14  15
ENDBRANCH  12  14
ENDBRANCH   7  10
ENDBRANCH   2   4
BRANCH   2  21
ATOM     21  N   UNL     1      46.783   6.536  14.008  0.00  0.00    +0.000 N 
ATOM     22  H   UNL     1      46.109   7.041  14.582  0.00  0.00    +0.000 HD
BRANCH  21  23
ATOM     23  C   UNL     1      46.131   5.864  12.981  0.00  0.00    +0.000 A 
ATOM     24  C   UNL     1      45.677   6.468  11.810  0.00  0.00    +0.000 A 
ATOM     25  C   UNL     1      45.003   5.753  10.828  0.00  0.00    +0.000 A 
ATOM     26  C   UNL     1      44.828   4.377  10.946  0.00  0.00    +0.000 A 
ATOM     27  C   UNL     1      45.334   3.732  12.074  0.00  0.00    +0.000 A 
ATOM     28  C   UNL     1      45.982   4.470  13.074  0.00  0.00    +0.000 A 
BRANCH  26  29
ATOM     29  C   UNL     1      44.066   3.638   9.876  0.00  0.00    +0.000 C 
BRANCH  29  30
ATOM     30  C   UNL     1      44.726   2.293   9.520  0.00  0.00    +0.000 C 
BRANCH  30  31
ATOM     31  N   UNL     1      45.866   2.426   8.594  0.00  0.00    +0.000 NA
ATOM     32  C   UNL     1      46.260   1.128   8.024  0.00  0.00    +0.000 C 
ATOM     33  C   UNL     1      47.464   1.280   7.096  0.00  0.00    +0.000 C 
ATOM     34  C   UNL     1      47.178   2.278   5.984  0.00  0.00    +0.000 C 
ATOM     35  C   UNL     1      46.692   3.596   6.573  0.00  0.00    +0.000 C 
ATOM     36  C   UNL     1      45.517   3.378   7.524  0.00  0.00    +0.000 C 
ENDBRANCH  30  31
ENDBRANCH  29  30
ENDBRANCH  26  29
ENDBRANCH  21  23
ENDBRANCH   2  21
TORSDOF 9
ENDMDL
MODEL 6
REMARK VINA RESULT:    -6.994      2.922     10.548
REMARK INTER + INTRA:         -11.894
REMARK INTER:                  -9.844
REMARK INTRA:                  -2.050
REMARK UNBOUND:                -1.221
REMARK  Name = 
REMARK  11 active torsions:
REMARK  status: ('A' for Active; 'I' for Inactive)
REMARK    1  A    between atoms: C_1  and  C_2
REMARK    2  A    between atoms: C_2  and  C_3
REMARK    3  A    between atoms: C_2  and  N_4
REMARK    4  A    between atoms: C_2  and  C_19
REMARK    5  A    between atoms: N_4  and  C_5
REMARK    6  A    between atoms: C_8  and  C_9
REMARK    7  A    between atoms: C_9  and  C_10
REMARK    8  A    between atoms: C_10  and  N_11
REMARK    9  A    between atoms: C_22  and  C_23
REMARK   10  A    between atoms: N_25  and  C_26
REMARK   11  A    between atoms: C_26  and  C_27
REMARK                            x       y       z     vdW  Elec       q    Type
REMARK                         _______ _______ _______ _____ _____    ______ ____
ROOT
ATOM      1  C   UNL     1      50.052  10.735  13.156  0.00  0.00    +0.000 C 
ATOM      2  C   UNL     1      50.078   9.616  14.219  0.00  0.00    +0.000 C 
ATOM      3  C   UNL     1      51.454   8.919  14.332  0.00  0.00    +0.000 C 
ENDROOT
BRANCH   2   4
ATOM      4  C   UNL     1      49.013   8.588  13.750  0.00  0.00    +0.000 A 
ATOM      5  C   UNL     1      47.675   8.980  13.534  0.00  0.00    +0.000 A 
ATOM      6  C   UNL     1      46.701   8.061  13.134  0.00  0.00    +0.000 A 
ATOM      7  C   UNL     1      47.039   6.719  12.964  0.00  0.00    +0.000 A 
ATOM      8  C   UNL     1      48.356   6.306  13.183  0.00  0.00    +0.000 A 
ATOM      9  C   UNL     1      49.327   7.226  13.591  0.00  0.00    +0.000 A 
BRANCH   7  10
ATOM     10  C   UNL     1      46.042   5.704  12.535  0.00  0.00    +0.000 C 
ATOM     11  O   UNL     1      45.802   4.743  13.258  0.00  0.00    +0.000 OA
ATOM     12  N   UNL     1      45.410   5.931  11.334  0.00  0.00    +0.000 N 
ATOM     13  H   UNL     1      45.552   6.801  10.841  0.00  0.00    +0.000 HD
BRANCH  12  14
ATOM     14  C   UNL     1      44.395   5.033  10.828  0.00  0.00    +0.000 C 
BRANCH  14  15
ATOM     15  C   UNL     1      44.935   4.145   9.746  0.00  0.00    +0.000 A 
ATOM     16  C   UNL     1      44.829   2.753   9.815  0.00  0.00    +0.000 A 
ATOM     17  C   UNL     1      45.370   1.968   8.802  0.00  0.00    +0.000 A 
ATOM     18  C   UNL     1      46.005   2.603   7.748  0.00  0.00    +0.000 A 
ATOM     19  N   UNL     1      46.128   3.944   7.644  0.00  0.00    +0.000 NA
ATOM     20  C   UNL     1      45.598   4.680   8.647  0.00  0.00    +0.000 A 
ENDBRANCH  14  15
ENDBRANCH  12  14
ENDBRANCH   7  10
ENDBRANCH   2   4
BRANCH   2  21
ATOM     21  N   UNL     1      49.682  10.137  15.546  0.00  0.00    +0.000 N 
ATOM     22  H   UNL     1      49.050  10.931  15.464  0.00  0.00    +0.000 HD
BRANCH  21  23
ATOM     23  C   UNL     1      49.361   9.378  16.665  0.00  0.00    +0.000 A 
ATOM     24  C   UNL     1      50.268   8.590  17.369  0.00  0.00    +0.000 A 
ATOM     25  C   UNL     1      49.885   7.827  18.464  0.00  0.00    +0.000 A 
ATOM     26  C   UNL     1      48.582   7.887  18.951  0.00  0.00    +0.000 A 
ATOM     27  C   UNL     1      47.667   8.723  18.310  0.00  0.00    +0.000 A 
ATOM     28  C   UNL     1      48.058   9.461  17.185  0.00  0.00    +0.000 A 
BRANCH  26  29
ATOM     29  C   UNL     1      48.193   7.024  20.122  0.00  0.00    +0.000 C 
BRANCH  29  30
ATOM     30  C   UNL     1      47.443   5.753  19.681  0.00  0.00    +0.000 C 
BRANCH  30  31
ATOM     31  N   UNL     1      48.076   5.064  18.542  0.00  0.00    +0.000 NA
ATOM     32  C   UNL     1      48.852   3.891  18.976  0.00  0.00    +0.000 C 
ATOM     33  C   UNL     1      49.529   3.211  17.788  0.00  0.00    +0.000 C 
ATOM     34  C   UNL     1      48.509   2.806  16.734  0.00  0.00    +0.000 C 
ATOM     35  C   UNL     1      47.652   4.003  16.344  0.00  0.00    +0.000 C 
ATOM     36  C   UNL     1      47.037   4.668  17.574  0.00  0.00    +0.000 C 
ENDBRANCH  30  31
ENDBRANCH  29  30
ENDBRANCH  26  29
ENDBRANCH  21  23
ENDBRANCH   2  21
TORSDOF 9
ENDMDL
MODEL 7
REMARK VINA RESULT:    -6.753      2.844     10.780
REMARK INTER + INTRA:         -11.526
REMARK INTER:                  -9.951
REMARK INTRA:                  -1.575
REMARK UNBOUND:                -1.221
REMARK  Name = 
REMARK  11 active torsions:
REMARK  status: ('A' for Active; 'I' for Inactive)
REMARK    1  A    between atoms: C_1  and  C_2
REMARK    2  A    between atoms: C_2  and  C_3
REMARK    3  A    between atoms: C_2  and  N_4
REMARK    4  A    between atoms: C_2  and  C_19
REMARK    5  A    between atoms: N_4  and  C_5
REMARK    6  A    between atoms: C_8  and  C_9
REMARK    7  A    between atoms: C_9  and  C_10
REMARK    8  A    between atoms: C_10  and  N_11
REMARK    9  A    between atoms: C_22  and  C_23
REMARK   10  A    between atoms: N_25  and  C_26
REMARK   11  A    between atoms: C_26  and  C_27
REMARK                            x       y       z     vdW  Elec       q    Type
REMARK                         _______ _______ _______ _____ _____    ______ ____
ROOT
ATOM      1  C   UNL     1      47.774  12.006  12.556  0.00  0.00    +0.000 C 
ATOM      2  C   UNL     1      48.849  10.906  12.411  0.00  0.00    +0.000 C 
ATOM      3  C   UNL     1      49.807  11.148  11.222  0.00  0.00    +0.000 C 
ENDROOT
BRANCH   2   4
ATOM      4  C   UNL     1      48.055   9.593  12.179  0.00  0.00    +0.000 A 
ATOM      5  C   UNL     1      46.682   9.512  12.493  0.00  0.00    +0.000 A 
ATOM      6  C   UNL     1      45.959   8.330  12.310  0.00  0.00    +0.000 A 
ATOM      7  C   UNL     1      46.602   7.190  11.829  0.00  0.00    +0.000 A 
ATOM      8  C   UNL     1      47.964   7.243  11.522  0.00  0.00    +0.000 A 
ATOM      9  C   UNL     1      48.687   8.426  11.713  0.00  0.00    +0.000 A 
BRANCH   7  10
ATOM     10  C   UNL     1      45.878   5.910  11.612  0.00  0.00    +0.000 C 
ATOM     11  O   UNL     1      46.024   4.986  12.406  0.00  0.00    +0.000 OA
ATOM     12  N   UNL     1      45.042   5.853  10.521  0.00  0.00    +0.000 N 
ATOM     13  H   UNL     1      44.863   6.682   9.974  0.00  0.00    +0.000 HD
BRANCH  12  14
ATOM     14  C   UNL     1      44.258   4.673  10.226  0.00  0.00    +0.000 C 
BRANCH  14  15
ATOM     15  C   UNL     1      44.977   3.755   9.283  0.00  0.00    +0.000 A 
ATOM     16  C   UNL     1      44.995   2.370   9.475  0.00  0.00    +0.000 A 
ATOM     17  C   UNL     1      45.701   1.560   8.590  0.00  0.00    +0.000 A 
ATOM     18  C   UNL     1      46.370   2.163   7.538  0.00  0.00    +0.000 A 
ATOM     19  N   UNL     1      46.376   3.495   7.319  0.00  0.00    +0.000 NA
ATOM     20  C   UNL     1      45.688   4.258   8.198  0.00  0.00    +0.000 A 
ENDBRANCH  14  15
ENDBRANCH  12  14
ENDBRANCH   7  10
ENDBRANCH   2   4
BRANCH   2  21
ATOM     21  N   UNL     1      49.637  10.770  13.655  0.00  0.00    +0.000 N 
ATOM     22  H   UNL     1      49.579  11.608  14.231  0.00  0.00    +0.000 HD
BRANCH  21  23
ATOM     23  C   UNL     1      49.717   9.638  14.459  0.00  0.00    +0.000 A 
ATOM     24  C   UNL     1      50.765   8.722  14.426  0.00  0.00    +0.000 A 
ATOM     25  C   UNL     1      50.779   7.590  15.231  0.00  0.00    +0.000 A 
ATOM     26  C   UNL     1      49.771   7.373  16.167  0.00  0.00    +0.000 A 
ATOM     27  C   UNL     1      48.744   8.310  16.274  0.00  0.00    +0.000 A 
ATOM     28  C   UNL     1      48.724   9.430  15.431  0.00  0.00    +0.000 A 
BRANCH  26  29
ATOM     29  C   UNL     1      49.801   6.120  17.003  0.00  0.00    +0.000 C 
BRANCH  29  30
ATOM     30  C   UNL     1      48.401   5.501  17.170  0.00  0.00    +0.000 C 
BRANCH  30  31
ATOM     31  N   UNL     1      48.044   5.229  18.575  0.00  0.00    +0.000 NA
ATOM     32  C   UNL     1      49.151   4.594  19.306  0.00  0.00    +0.000 C 
ATOM     33  C   UNL     1      48.751   4.288  20.748  0.00  0.00    +0.000 C 
ATOM     34  C   UNL     1      48.296   5.547  21.471  0.00  0.00    +0.000 C 
ATOM     35  C   UNL     1      47.205   6.247  20.672  0.00  0.00    +0.000 C 
ATOM     36  C   UNL     1      47.645   6.489  19.229  0.00  0.00    +0.000 C 
ENDBRANCH  30  31
ENDBRANCH  29  30
ENDBRANCH  26  29
ENDBRANCH  21  23
ENDBRANCH   2  21
TORSDOF 9
ENDMDL
MODEL 8
REMARK VINA RESULT:    -6.682      5.280      9.421
REMARK INTER + INTRA:         -11.418
REMARK INTER:                  -9.974
REMARK INTRA:                  -1.444
REMARK UNBOUND:                -1.221
REMARK  Name = 
REMARK  11 active torsions:
REMARK  status: ('A' for Active; 'I' for Inactive)
REMARK    1  A    between atoms: C_1  and  C_2
REMARK    2  A    between atoms: C_2  and  C_3
REMARK    3  A    between atoms: C_2  and  N_4
REMARK    4  A    between atoms: C_2  and  C_19
REMARK    5  A    between atoms: N_4  and  C_5
REMARK    6  A    between atoms: C_8  and  C_9
REMARK    7  A    between atoms: C_9  and  C_10
REMARK    8  A    between atoms: C_10  and  N_11
REMARK    9  A    between atoms: C_22  and  C_23
REMARK   10  A    between atoms: N_25  and  C_26
REMARK   11  A    between atoms: C_26  and  C_27
REMARK                            x       y       z     vdW  Elec       q    Type
REMARK                         _______ _______ _______ _____ _____    ______ ____
ROOT
ATOM      1  C   UNL     1      49.920   8.891  13.815  0.00  0.00    +0.000 C 
ATOM      2  C   UNL     1      48.470   9.326  14.121  0.00  0.00    +0.000 C 
ATOM      3  C   UNL     1      48.113   9.229  15.623  0.00  0.00    +0.000 C 
ENDROOT
BRANCH   2   4
ATOM      4  C   UNL     1      47.576   8.350  13.312  0.00  0.00    +0.000 A 
ATOM      5  C   UNL     1      48.144   7.297  12.565  0.00  0.00    +0.000 A 
ATOM      6  C   UNL     1      47.353   6.423  11.813  0.00  0.00    +0.000 A 
ATOM      7  C   UNL     1      45.970   6.600  11.772  0.00  0.00    +0.000 A 
ATOM      8  C   UNL     1      45.386   7.643  12.495  0.00  0.00    +0.000 A 
ATOM      9  C   UNL     1      46.181   8.520  13.240  0.00  0.00    +0.000 A 
BRANCH   7  10
ATOM     10  C   UNL     1      45.084   5.697  10.992  0.00  0.00    +0.000 C 
ATOM     11  O   UNL     1      44.009   5.342  11.464  0.00  0.00    +0.000 OA
ATOM     12  N   UNL     1      45.524   5.333   9.740  0.00  0.00    +0.000 N 
ATOM     13  H   UNL     1      46.355   5.754   9.351  0.00  0.00    +0.000 HD
BRANCH  12  14
ATOM     14  C   UNL     1      44.733   4.487   8.874  0.00  0.00    +0.000 C 
BRANCH  14  15
ATOM     15  C   UNL     1      45.548   3.362   8.308  0.00  0.00    +0.000 A 
ATOM     16  C   UNL     1      46.413   3.552   7.225  0.00  0.00    +0.000 A 
ATOM     17  C   UNL     1      47.127   2.472   6.715  0.00  0.00    +0.000 A 
ATOM     18  C   UNL     1      46.952   1.231   7.304  0.00  0.00    +0.000 A 
ATOM     19  N   UNL     1      46.128   1.007   8.350  0.00  0.00    +0.000 NA
ATOM     20  C   UNL     1      45.442   2.073   8.821  0.00  0.00    +0.000 A 
ENDBRANCH  14  15
ENDBRANCH  12  14
ENDBRANCH   7  10
ENDBRANCH   2   4
BRANCH   2  21
ATOM     21  N   UNL     1      48.220  10.704  13.645  0.00  0.00    +0.000 N 
ATOM     22  H   UNL     1      48.356  11.388  14.388  0.00  0.00    +0.000 HD
BRANCH  21  23
ATOM     23  C   UNL     1      48.612  11.236  12.422  0.00  0.00    +0.000 A 
ATOM     24  C   UNL     1      47.815  11.253  11.280  0.00  0.00    +0.000 A 
ATOM     25  C   UNL     1      48.269  11.771  10.074  0.00  0.00    +0.000 A 
ATOM     26  C   UNL     1      49.522  12.371   9.986  0.00  0.00    +0.000 A 
ATOM     27  C   UNL     1      50.316  12.433  11.131  0.00  0.00    +0.000 A 
ATOM     28  C   UNL     1      49.860  11.875  12.334  0.00  0.00    +0.000 A 
BRANCH  26  29
ATOM     29  C   UNL     1      49.995  12.895   8.655  0.00  0.00    +0.000 C 
BRANCH  29  30
ATOM     30  C   UNL     1      51.229  12.133   8.137  0.00  0.00    +0.000 C 
BRANCH  30  31
ATOM     31  N   UNL     1      50.945  11.286   6.964  0.00  0.00    +0.000 NA
ATOM     32  C   UNL     1      50.083  11.974   5.990  0.00  0.00    +0.000 C 
ATOM     33  C   UNL     1      49.770  11.070   4.799  0.00  0.00    +0.000 C 
ATOM     34  C   UNL     1      51.047  10.590   4.125  0.00  0.00    +0.000 C 
ATOM     35  C   UNL     1      51.975   9.950   5.149  0.00  0.00    +0.000 C 
ATOM     36  C   UNL     1      52.216  10.882   6.336  0.00  0.00    +0.000 C 
ENDBRANCH  30  31
ENDBRANCH  29  30
ENDBRANCH  26  29
ENDBRANCH  21  23
ENDBRANCH   2  21
TORSDOF 9
ENDMDL
MODEL 9
REMARK VINA RESULT:    -6.467      4.380      8.921
REMARK INTER + INTRA:         -11.090
REMARK INTER:                  -9.392
REMARK INTRA:                  -1.698
REMARK UNBOUND:                -1.221
REMARK  Name = 
REMARK  11 active torsions:
REMARK  status: ('A' for Active; 'I' for Inactive)
REMARK    1  A    between atoms: C_1  and  C_2
REMARK    2  A    between atoms: C_2  and  C_3
REMARK    3  A    between atoms: C_2  and  N_4
REMARK    4  A    between atoms: C_2  and  C_19
REMARK    5  A    between atoms: N_4  and  C_5
REMARK    6  A    between atoms: C_8  and  C_9
REMARK    7  A    between atoms: C_9  and  C_10
REMARK    8  A    between atoms: C_10  and  N_11
REMARK    9  A    between atoms: C_22  and  C_23
REMARK   10  A    between atoms: N_25  and  C_26
REMARK   11  A    between atoms: C_26  and  C_27
REMARK                            x       y       z     vdW  Elec       q    Type
REMARK                         _______ _______ _______ _____ _____    ______ ____
ROOT
ATOM      1  C   UNL     1      49.939   7.689  15.470  0.00  0.00    +0.000 C 
ATOM      2  C   UNL     1      48.801   8.568  14.907  0.00  0.00    +0.000 C 
ATOM      3  C   UNL     1      47.950   9.238  16.011  0.00  0.00    +0.000 C 
ENDROOT
BRANCH   2   4
ATOM      4  C   UNL     1      47.912   7.600  14.082  0.00  0.00    +0.000 A 
ATOM      5  C   UNL     1      47.981   6.206  14.283  0.00  0.00    +0.000 A 
ATOM      6  C   UNL     1      47.202   5.320  13.532  0.00  0.00    +0.000 A 
ATOM      7  C   UNL     1      46.352   5.810  12.542  0.00  0.00    +0.000 A 
ATOM      8  C   UNL     1      46.276   7.188  12.317  0.00  0.00    +0.000 A 
ATOM      9  C   UNL     1      47.061   8.071  13.065  0.00  0.00    +0.000 A 
BRANCH   7  10
ATOM     10  C   UNL     1      45.500   4.912  11.719  0.00  0.00    +0.000 C 
ATOM     11  O   UNL     1      44.938   3.957  12.244  0.00  0.00    +0.000 OA
ATOM     12  N   UNL     1      45.367   5.238  10.389  0.00  0.00    +0.000 N 
ATOM     13  H   UNL     1      45.749   6.104  10.037  0.00  0.00    +0.000 HD
BRANCH  12  14
ATOM     14  C   UNL     1      44.537   4.460   9.496  0.00  0.00    +0.000 C 
BRANCH  14  15
ATOM     15  C   UNL     1      45.339   3.438   8.747  0.00  0.00    +0.000 A 
ATOM     16  C   UNL     1      46.168   3.792   7.677  0.00  0.00    +0.000 A 
ATOM     17  C   UNL     1      46.871   2.805   6.993  0.00  0.00    +0.000 A 
ATOM     18  C   UNL     1      46.722   1.490   7.400  0.00  0.00    +0.000 A 
ATOM     19  N   UNL     1      45.933   1.108   8.427  0.00  0.00    +0.000 NA
ATOM     20  C   UNL     1      45.257   2.087   9.069  0.00  0.00    +0.000 A 
ENDBRANCH  14  15
ENDBRANCH  12  14
ENDBRANCH   7  10
ENDBRANCH   2   4
BRANCH   2  21
ATOM     21  N   UNL     1      49.336   9.609  14.001  0.00  0.00    +0.000 N 
ATOM     22  H   UNL     1      49.346  10.526  14.446  0.00  0.00    +0.000 HD
BRANCH  21  23
ATOM     23  C   UNL     1      50.425   9.477  13.147  0.00  0.00    +0.000 A 
ATOM     24  C   UNL     1      50.426   8.705  11.988  0.00  0.00    +0.000 A 
ATOM     25  C   UNL     1      51.554   8.583  11.187  0.00  0.00    +0.000 A 
ATOM     26  C   UNL     1      52.711   9.302  11.475  0.00  0.00    +0.000 A 
ATOM     27  C   UNL     1      52.717  10.140  12.590  0.00  0.00    +0.000 A 
ATOM     28  C   UNL     1      51.583  10.227  13.411  0.00  0.00    +0.000 A 
BRANCH  26  29
ATOM     29  C   UNL     1      53.925   9.124  10.602  0.00  0.00    +0.000 C 
BRANCH  29  30
ATOM     30  C   UNL     1      54.478   7.688  10.664  0.00  0.00    +0.000 C 
BRANCH  30  31
ATOM     31  N   UNL     1      54.510   7.015   9.352  0.00  0.00    +0.000 NA
ATOM     32  C   UNL     1      53.721   5.774   9.356  0.00  0.00    +0.000 C 
ATOM     33  C   UNL     1      53.795   5.072   8.001  0.00  0.00    +0.000 C 
ATOM     34  C   UNL     1      53.327   5.990   6.881  0.00  0.00    +0.000 C 
ATOM     35  C   UNL     1      54.088   7.308   6.928  0.00  0.00    +0.000 C 
ATOM     36  C   UNL     1      54.015   7.941   8.317  0.00  0.00    +0.000 C 
ENDBRANCH  30  31
ENDBRANCH  29  30
ENDBRANCH  26  29
ENDBRANCH  21  23
ENDBRANCH   2  21
TORSDOF 9
ENDMDL
