MODEL 1
REMARK VINA RESULT:    -8.350      0.000      0.000
REMARK INTER + INTRA:         -13.452
REMARK INTER:                 -12.255
REMARK INTRA:                  -1.197
REMARK UNBOUND:                -1.197
REMARK  Name = 
REMARK  9 active torsions:
REMARK  status: ('A' for Active; 'I' for Inactive)
REMARK    1  A    between atoms: C_1  and  C_2
REMARK    2  A    between atoms: C_2  and  C_3
REMARK    3  A    between atoms: C_3  and  N_4
REMARK    4  A    between atoms: C_3  and  C_12
REMARK    5  A    between atoms: N_4  and  C_5
REMARK    6  A    between atoms: C_5  and  C_6
REMARK    7  A    between atoms: C_15  and  C_16
REMARK    8  A    between atoms: C_16  and  N_17
REMARK    9  A    between atoms: C_18  and  C_20
REMARK                            x       y       z     vdW  Elec       q    Type
REMARK                         _______ _______ _______ _____ _____    ______ ____
ROOT
ATOM      1  C   UNL     1      45.493   4.565  12.320  0.00  0.00    +0.000 A 
ATOM      2  C   UNL     1      45.996   5.653  11.584  0.00  0.00    +0.000 A 
ATOM      3  C   UNL     1      46.958   6.510  12.131  0.00  0.00    +0.000 A 
ATOM      4  C   UNL     1      47.472   6.274  13.410  0.00  0.00    +0.000 A 
ATOM      5  C   UNL     1      46.986   5.187  14.142  0.00  0.00    +0.000 A 
ATOM      6  C   UNL     1      46.004   4.354  13.610  0.00  0.00    +0.000 A 
ENDROOT
BRANCH   1   7
ATOM      7  C   UNL     1      44.369   3.701  11.741  0.00  0.00    +0.000 C 
BRANCH   7   9
ATOM      8  C   UNL     1      42.386   5.385  11.840  0.00  0.00    +0.000 C 
ATOM      9  C   UNL     1      43.335   4.570  10.973  0.00  0.00    +0.000 C 
ENDBRANCH   7   9
BRANCH   7  10
ATOM     10  N   UNL     1      44.882   2.641  10.856  0.00  0.00    +0.000 NA
ATOM     11  H   UNL     1      44.593   1.738  11.222  0.00  0.00    +0.000 HD
BRANCH  10  12
ATOM     12  C   UNL     1      44.378   2.740   9.474  0.00  0.00    +0.000 C 
BRANCH  12  13
ATOM     13  C   UNL     1      45.460   2.462   8.447  0.00  0.00    +0.000 A 
ATOM     14  C   UNL     1      45.880   3.469   7.581  0.00  0.00    +0.000 A 
ATOM     15  C   UNL     1      46.896   3.191   6.671  0.00  0.00    +0.000 A 
ATOM     16  C   UNL     1      47.465   1.925   6.648  0.00  0.00    +0.000 A 
ATOM     17  C   UNL     1      46.984   0.978   7.535  0.00  0.00    +0.000 A 
ATOM     18  N   UNL     1      46.000   1.215   8.427  0.00  0.00    +0.000 NA
ENDBRANCH  12  13
ENDBRANCH  10  12
ENDBRANCH   7  10
ENDBRANCH   1   7
BRANCH   4  19
ATOM     19  C   UNL     1      48.494   7.188  14.027  0.00  0.00    +0.000 C 
BRANCH  19  20
ATOM     20  N   UNL     1      48.348   7.247  15.464  0.00  0.00    +0.000 N 
ATOM     21  C   UNL     1      49.288   6.743  16.324  0.00  0.00    +0.000 C 
ATOM     22  O   UNL     1      50.323   6.211  15.929  0.00  0.00    +0.000 OA
ATOM     23  H   UNL     1      47.423   7.481  15.811  0.00  0.00    +0.000 HD
BRANCH  21  24
ATOM     24  C   UNL     1      49.028   6.935  17.758  0.00  0.00    +0.000 A 
ATOM     25  C   UNL     1      48.945   8.225  18.267  0.00  0.00    +0.000 A 
ATOM     26  S   UNL     1      48.583   8.284  19.931  0.00  0.00    +0.000 S 
ATOM     27  C   UNL     1      48.574   6.587  20.045  0.00  0.00    +0.000 A 
ATOM     28  N   UNL     1      48.350   5.969  21.237  0.00  0.00    +0.000 NA
ATOM     29  C   UNL     1      48.418   4.681  21.189  0.00  0.00    +0.000 A 
ATOM     30  N   UNL     1      48.671   3.951  20.056  0.00  0.00    +0.000 N 
ATOM     31  C   UNL     1      48.829   4.528  18.819  0.00  0.00    +0.000 A 
ATOM     32  O   UNL     1      48.930   3.844  17.807  0.00  0.00    +0.000 OA
ATOM     33  C   UNL     1      48.816   5.981  18.825  0.00  0.00    +0.000 A 
ATOM     34  H   UNL     1      48.682   2.941  20.082  0.00  0.00    +0.000 HD
ENDBRANCH  21  24
ENDBRANCH  19  20
ENDBRANCH   4  19
TORSDOF 8
ENDMDL
MODEL 2
REMARK VINA RESULT:    -8.003      2.053      2.547
REMARK INTER + INTRA:         -12.943
REMARK INTER:                 -11.491
REMARK INTRA:                  -1.452
REMARK UNBOUND:                -1.197
REMARK  Name = 
REMARK  9 active torsions:
REMARK  status: ('A' for Active; 'I' for Inactive)
REMARK    1  A    between atoms: C_1  and  C_2
REMARK    2  A    between atoms: C_2  and  C_3
REMARK    3  A    between atoms: C_3  and  N_4
REMARK    4  A    between atoms: C_3  and  C_12
REMARK    5  A    between atoms: N_4  and  C_5
REMARK    6  A    between atoms: C_5  and  C_6
REMARK    7  A    between atoms: C_15  and  C_16
REMARK    8  A    between atoms: C_16  and  N_17
REMARK    9  A    between atoms: C_18  and  C_20
REMARK                            x       y       z     vdW  Elec       q    Type
REMARK                         _______ _______ _______ _____ _____    ______ ____
ROOT
ATOM      1  C   UNL     1      45.513   4.878  12.104  0.00  0.00    +0.000 A 
ATOM      2  C   UNL     1      46.189   4.925  13.336  0.00  0.00    +0.000 A 
ATOM      3  C   UNL     1      47.222   5.843  13.557  0.00  0.00    +0.000 A 
ATOM      4  C   UNL     1      47.574   6.766  12.567  0.00  0.00    +0.000 A 
ATOM      5  C   UNL     1      46.898   6.733  11.344  0.00  0.00    +0.000 A 
ATOM      6  C   UNL     1      45.892   5.797  11.113  0.00  0.00    +0.000 A 
ENDROOT
BRANCH   1   7
ATOM      7  C   UNL     1      44.456   3.800  11.849  0.00  0.00    +0.000 C 
BRANCH   7   9
ATOM      8  C   UNL     1      42.461   5.473  11.839  0.00  0.00    +0.000 C 
ATOM      9  C   UNL     1      43.230   4.387  11.099  0.00  0.00    +0.000 C 
ENDBRANCH   7   9
BRANCH   7  10
ATOM     10  N   UNL     1      44.999   2.655  11.096  0.00  0.00    +0.000 NA
ATOM     11  H   UNL     1      44.815   1.802  11.616  0.00  0.00    +0.000 HD
BRANCH  10  12
ATOM     12  C   UNL     1      44.394   2.497   9.760  0.00  0.00    +0.000 C 
BRANCH  12  13
ATOM     13  C   UNL     1      45.437   2.479   8.657  0.00  0.00    +0.000 A 
ATOM     14  C   UNL     1      45.741   3.646   7.961  0.00  0.00    +0.000 A 
ATOM     15  C   UNL     1      46.723   3.603   6.975  0.00  0.00    +0.000 A 
ATOM     16  C   UNL     1      47.375   2.406   6.713  0.00  0.00    +0.000 A 
ATOM     17  C   UNL     1      47.008   1.289   7.443  0.00  0.00    +0.000 A 
ATOM     18  N   UNL     1      46.058   1.298   8.402  0.00  0.00    +0.000 NA
ENDBRANCH  12  13
ENDBRANCH  10  12
ENDBRANCH   7  10
ENDBRANCH   1   7
BRANCH   4  19
ATOM     19  C   UNL     1      48.691   7.751  12.771  0.00  0.00    +0.000 C 
BRANCH  19  20
ATOM     20  N   UNL     1      49.711   7.218  13.646  0.00  0.00    +0.000 N 
ATOM     21  C   UNL     1      50.040   7.801  14.841  0.00  0.00    +0.000 C 
ATOM     22  O   UNL     1      49.482   8.816  15.252  0.00  0.00    +0.000 OA
ATOM     23  H   UNL     1      50.327   6.520  13.241  0.00  0.00    +0.000 HD
BRANCH  21  24
ATOM     24  C   UNL     1      51.053   7.107  15.648  0.00  0.00    +0.000 A 
ATOM     25  C   UNL     1      52.391   7.446  15.498  0.00  0.00    +0.000 A 
ATOM     26  S   UNL     1      53.436   6.597  16.541  0.00  0.00    +0.000 S 
ATOM     27  C   UNL     1      52.145   5.705  17.196  0.00  0.00    +0.000 A 
ATOM     28  N   UNL     1      52.364   4.756  18.147  0.00  0.00    +0.000 NA
ATOM     29  C   UNL     1      51.304   4.124  18.522  0.00  0.00    +0.000 A 
ATOM     30  N   UNL     1      50.040   4.364  18.048  0.00  0.00    +0.000 N 
ATOM     31  C   UNL     1      49.760   5.362  17.146  0.00  0.00    +0.000 A 
ATOM     32  O   UNL     1      48.606   5.634  16.836  0.00  0.00    +0.000 OA
ATOM     33  C   UNL     1      50.928   6.069  16.648  0.00  0.00    +0.000 A 
ATOM     34  H   UNL     1      49.246   3.851  18.406  0.00  0.00    +0.000 HD
ENDBRANCH  21  24
ENDBRANCH  19  20
ENDBRANCH   4  19
TORSDOF 8
ENDMDL
MODEL 3
REMARK VINA RESULT:    -7.991      1.512      2.205
REMARK INTER + INTRA:         -12.925
REMARK INTER:                 -11.738
REMARK INTRA:                  -1.187
REMARK UNBOUND:                -1.197
REMARK  Name = 
REMARK  9 active torsions:
REMARK  status: ('A' for Active; 'I' for Inactive)
REMARK    1  A    between atoms: C_1  and  C_2
REMARK    2  A    between atoms: C_2  and  C_3
REMARK    3  A    between atoms: C_3  and  N_4
REMARK    4  A    between atoms: C_3  and  C_12
REMARK    5  A    between atoms: N_4  and  C_5
REMARK    6  A    between atoms: C_5  and  C_6
REMARK    7  A    between atoms: C_15  and  C_16
REMARK    8  A    between atoms: C_16  and  N_17
REMARK    9  A    between atoms: C_18  and  C_20
REMARK                            x       y       z     vdW  Elec       q    Type
REMARK                         _______ _______ _______ _____ _____    ______ ____
ROOT
ATOM      1  C   UNL     1      45.415   4.473  12.179  0.00  0.00    +0.000 A 
ATOM      2  C   UNL     1      45.889   5.677  11.629  0.00  0.00    +0.000 A 
ATOM      3  C   UNL     1      46.857   6.440  12.292  0.00  0.00    +0.000 A 
ATOM      4  C   UNL     1      47.406   5.995  13.499  0.00  0.00    +0.000 A 
ATOM      5  C   UNL     1      46.948   4.793  14.045  0.00  0.00    +0.000 A 
ATOM      6  C   UNL     1      45.960   4.050  13.402  0.00  0.00    +0.000 A 
ENDROOT
BRANCH   1   7
ATOM      7  C   UNL     1      44.284   3.706  11.487  0.00  0.00    +0.000 C 
BRANCH   7   9
ATOM      8  C   UNL     1      42.381   5.459  11.773  0.00  0.00    +0.000 C 
ATOM      9  C   UNL     1      43.276   4.680  10.819  0.00  0.00    +0.000 C 
ENDBRANCH   7   9
BRANCH   7  10
ATOM     10  N   UNL     1      44.792   2.752  10.485  0.00  0.00    +0.000 NA
ATOM     11  H   UNL     1      44.266   1.885  10.561  0.00  0.00    +0.000 HD
BRANCH  10  12
ATOM     12  C   UNL     1      44.653   3.233   9.099  0.00  0.00    +0.000 C 
BRANCH  12  13
ATOM     13  C   UNL     1      45.676   2.607   8.168  0.00  0.00    +0.000 A 
ATOM     14  C   UNL     1      46.233   3.354   7.134  0.00  0.00    +0.000 A 
ATOM     15  C   UNL     1      47.190   2.760   6.317  0.00  0.00    +0.000 A 
ATOM     16  C   UNL     1      47.568   1.445   6.552  0.00  0.00    +0.000 A 
ATOM     17  C   UNL     1      46.959   0.768   7.595  0.00  0.00    +0.000 A 
ATOM     18  N   UNL     1      46.026   1.315   8.402  0.00  0.00    +0.000 NA
ENDBRANCH  12  13
ENDBRANCH  10  12
ENDBRANCH   7  10
ENDBRANCH   1   7
BRANCH   4  19
ATOM     19  C   UNL     1      48.434   6.804  14.241  0.00  0.00    +0.000 C 
BRANCH  19  20
ATOM     20  N   UNL     1      48.128   6.882  15.651  0.00  0.00    +0.000 N 
ATOM     21  C   UNL     1      48.933   6.334  16.615  0.00  0.00    +0.000 C 
ATOM     22  O   UNL     1      49.976   5.743  16.342  0.00  0.00    +0.000 OA
ATOM     23  H   UNL     1      47.183   7.168  15.889  0.00  0.00    +0.000 HD
BRANCH  21  24
ATOM     24  C   UNL     1      48.520   6.550  18.008  0.00  0.00    +0.000 A 
ATOM     25  C   UNL     1      48.566   5.488  18.903  0.00  0.00    +0.000 A 
ATOM     26  S   UNL     1      48.114   5.909  20.491  0.00  0.00    +0.000 S 
ATOM     27  C   UNL     1      47.789   7.514  20.031  0.00  0.00    +0.000 A 
ATOM     28  N   UNL     1      47.325   8.418  20.936  0.00  0.00    +0.000 NA
ATOM     29  C   UNL     1      47.077   9.584  20.443  0.00  0.00    +0.000 A 
ATOM     30  N   UNL     1      47.266   9.937  19.132  0.00  0.00    +0.000 N 
ATOM     31  C   UNL     1      47.802   9.080  18.201  0.00  0.00    +0.000 A 
ATOM     32  O   UNL     1      48.075   9.462  17.068  0.00  0.00    +0.000 OA
ATOM     33  C   UNL     1      48.049   7.735  18.690  0.00  0.00    +0.000 A 
ATOM     34  H   UNL     1      47.078  10.879  18.816  0.00  0.00    +0.000 HD
ENDBRANCH  21  24
ENDBRANCH  19  20
ENDBRANCH   4  19
TORSDOF 8
ENDMDL
MODEL 4
REMARK VINA RESULT:    -7.375      4.591      6.926
REMARK INTER + INTRA:         -12.022
REMARK INTER:                 -10.779
REMARK INTRA:                  -1.242
REMARK UNBOUND:                -1.197
REMARK  Name = 
REMARK  9 active torsions:
REMARK  status: ('A' for Active; 'I' for Inactive)
REMARK    1  A    between atoms: C_1  and  C_2
REMARK    2  A    between atoms: C_2  and  C_3
REMARK    3  A    between atoms: C_3  and  N_4
REMARK    4  A    between atoms: C_3  and  C_12
REMARK    5  A    between atoms: N_4  and  C_5
REMARK    6  A    between atoms: C_5  and  C_6
REMARK    7  A    between atoms: C_15  and  C_16
REMARK    8  A    between atoms: C_16  and  N_17
REMARK    9  A    between atoms: C_18  and  C_20
REMARK                            x       y       z     vdW  Elec       q    Type
REMARK                         _______ _______ _______ _____ _____    ______ ____
ROOT
ATOM      1  C   UNL     1      45.554   4.786  12.172  0.00  0.00    +0.000 A 
ATOM      2  C   UNL     1      46.235   4.623  13.392  0.00  0.00    +0.000 A 
ATOM      3  C   UNL     1      47.340   5.421  13.712  0.00  0.00    +0.000 A 
ATOM      4  C   UNL     1      47.763   6.430  12.840  0.00  0.00    +0.000 A 
ATOM      5  C   UNL     1      47.082   6.605  11.632  0.00  0.00    +0.000 A 
ATOM      6  C   UNL     1      46.003   5.789  11.299  0.00  0.00    +0.000 A 
ENDROOT
BRANCH   1   7
ATOM      7  C   UNL     1      44.412   3.837  11.799  0.00  0.00    +0.000 C 
BRANCH   7   9
ATOM      8  C   UNL     1      42.402   5.486  11.935  0.00  0.00    +0.000 C 
ATOM      9  C   UNL     1      43.274   4.595  11.062  0.00  0.00    +0.000 C 
ENDBRANCH   7   9
BRANCH   7  10
ATOM     10  N   UNL     1      44.874   2.709  10.971  0.00  0.00    +0.000 NA
ATOM     11  H   UNL     1      44.565   1.839  11.398  0.00  0.00    +0.000 HD
BRANCH  10  12
ATOM     12  C   UNL     1      44.345   2.739   9.596  0.00  0.00    +0.000 C 
BRANCH  12  13
ATOM     13  C   UNL     1      45.432   2.528   8.558  0.00  0.00    +0.000 A 
ATOM     14  C   UNL     1      45.848   3.587   7.754  0.00  0.00    +0.000 A 
ATOM     15  C   UNL     1      46.868   3.369   6.832  0.00  0.00    +0.000 A 
ATOM     16  C   UNL     1      47.446   2.110   6.737  0.00  0.00    +0.000 A 
ATOM     17  C   UNL     1      46.968   1.109   7.566  0.00  0.00    +0.000 A 
ATOM     18  N   UNL     1      45.979   1.288   8.467  0.00  0.00    +0.000 NA
ENDBRANCH  12  13
ENDBRANCH  10  12
ENDBRANCH   7  10
ENDBRANCH   1   7
BRANCH   4  19
ATOM     19  C   UNL     1      48.956   7.289  13.152  0.00  0.00    +0.000 C 
BRANCH  19  20
ATOM     20  N   UNL     1      49.809   7.447  11.995  0.00  0.00    +0.000 N 
ATOM     21  C   UNL     1      50.972   8.170  12.026  0.00  0.00    +0.000 C 
ATOM     22  O   UNL     1      51.371   8.729  13.046  0.00  0.00    +0.000 OA
ATOM     23  H   UNL     1      49.404   7.185  11.102  0.00  0.00    +0.000 HD
BRANCH  21  24
ATOM     24  C   UNL     1      51.762   8.188  10.788  0.00  0.00    +0.000 A 
ATOM     25  C   UNL     1      52.215   6.988  10.254  0.00  0.00    +0.000 A 
ATOM     26  S   UNL     1      53.066   7.166   8.788  0.00  0.00    +0.000 S 
ATOM     27  C   UNL     1      52.905   8.859   8.838  0.00  0.00    +0.000 A 
ATOM     28  N   UNL     1      53.450   9.640   7.866  0.00  0.00    +0.000 NA
ATOM     29  C   UNL     1      53.293  10.907   8.053  0.00  0.00    +0.000 A 
ATOM     30  N   UNL     1      52.626  11.467   9.111  0.00  0.00    +0.000 N 
ATOM     31  C   UNL     1      51.995  10.716  10.075  0.00  0.00    +0.000 A 
ATOM     32  O   UNL     1      51.303  11.243  10.938  0.00  0.00    +0.000 OA
ATOM     33  C   UNL     1      52.187   9.283   9.943  0.00  0.00    +0.000 A 
ATOM     34  H   UNL     1      52.514  12.469   9.183  0.00  0.00    +0.000 HD
ENDBRANCH  21  24
ENDBRANCH  19  20
ENDBRANCH   4  19
TORSDOF 8
ENDMDL
MODEL 5
REMARK VINA RESULT:    -7.128      4.815      9.671
REMARK INTER + INTRA:         -11.659
REMARK INTER:                 -10.485
REMARK INTRA:                  -1.174
REMARK UNBOUND:                -1.197
REMARK  Name = 
REMARK  9 active torsions:
REMARK  status: ('A' for Active; 'I' for Inactive)
REMARK    1  A    between atoms: C_1  and  C_2
REMARK    2  A    between atoms: C_2  and  C_3
REMARK    3  A    between atoms: C_3  and  N_4
REMARK    4  A    between atoms: C_3  and  C_12
REMARK    5  A    between atoms: N_4  and  C_5
REMARK    6  A    between atoms: C_5  and  C_6
REMARK    7  A    between atoms: C_15  and  C_16
REMARK    8  A    between atoms: C_16  and  N_17
REMARK    9  A    between atoms: C_18  and  C_20
REMARK                            x       y       z     vdW  Elec       q    Type
REMARK                         _______ _______ _______ _____ _____    ______ ____
ROOT
ATOM      1  C   UNL     1      51.433   3.586  17.760  0.00  0.00    +0.000 A 
ATOM      2  C   UNL     1      50.824   2.382  17.365  0.00  0.00    +0.000 A 
ATOM      3  C   UNL     1      49.454   2.326  17.084  0.00  0.00    +0.000 A 
ATOM      4  C   UNL     1      48.670   3.483  17.147  0.00  0.00    +0.000 A 
ATOM      5  C   UNL     1      49.271   4.685  17.526  0.00  0.00    +0.000 A 
ATOM      6  C   UNL     1      50.629   4.734  17.839  0.00  0.00    +0.000 A 
ENDROOT
BRANCH   1   7
ATOM      7  C   UNL     1      52.911   3.602  18.161  0.00  0.00    +0.000 C 
BRANCH   7   9
ATOM      8  C   UNL     1      54.350   5.711  17.650  0.00  0.00    +0.000 C 
ATOM      9  C   UNL     1      53.360   5.028  18.583  0.00  0.00    +0.000 C 
ENDBRANCH   7   9
BRANCH   7  10
ATOM     10  N   UNL     1      53.204   2.648  19.245  0.00  0.00    +0.000 NA
ATOM     11  H   UNL     1      52.559   1.865  19.178  0.00  0.00    +0.000 HD
BRANCH  10  12
ATOM     12  C   UNL     1      54.571   2.099  19.184  0.00  0.00    +0.000 C 
BRANCH  12  13
ATOM     13  C   UNL     1      54.626   0.776  18.442  0.00  0.00    +0.000 A 
ATOM     14  C   UNL     1      54.884   0.750  17.074  0.00  0.00    +0.000 A 
ATOM     15  C   UNL     1      54.958  -0.480  16.427  0.00  0.00    +0.000 A 
ATOM     16  C   UNL     1      54.777  -1.647  17.158  0.00  0.00    +0.000 A 
ATOM     17  C   UNL     1      54.515  -1.535  18.512  0.00  0.00    +0.000 A 
ATOM     18  N   UNL     1      54.434  -0.357  19.167  0.00  0.00    +0.000 NA
ENDBRANCH  12  13
ENDBRANCH  10  12
ENDBRANCH   7  10
ENDBRANCH   1   7
BRANCH   4  19
ATOM     19  C   UNL     1      47.193   3.447  16.866  0.00  0.00    +0.000 C 
BRANCH  19  20
ATOM     20  N   UNL     1      46.823   4.421  15.863  0.00  0.00    +0.000 N 
ATOM     21  C   UNL     1      46.871   4.155  14.520  0.00  0.00    +0.000 C 
ATOM     22  O   UNL     1      47.227   3.064  14.079  0.00  0.00    +0.000 OA
ATOM     23  H   UNL     1      46.735   5.381  16.183  0.00  0.00    +0.000 HD
BRANCH  21  24
ATOM     24  C   UNL     1      46.405   5.224  13.627  0.00  0.00    +0.000 A 
ATOM     25  C   UNL     1      47.239   6.304  13.366  0.00  0.00    +0.000 A 
ATOM     26  S   UNL     1      46.581   7.430  12.270  0.00  0.00    +0.000 S 
ATOM     27  C   UNL     1      45.135   6.543  12.142  0.00  0.00    +0.000 A 
ATOM     28  N   UNL     1      44.112   6.986  11.362  0.00  0.00    +0.000 NA
ATOM     29  C   UNL     1      43.059   6.242  11.394  0.00  0.00    +0.000 A 
ATOM     30  N   UNL     1      42.938   5.085  12.119  0.00  0.00    +0.000 N 
ATOM     31  C   UNL     1      43.970   4.560  12.860  0.00  0.00    +0.000 A 
ATOM     32  O   UNL     1      43.873   3.462  13.397  0.00  0.00    +0.000 OA
ATOM     33  C   UNL     1      45.163   5.388  12.904  0.00  0.00    +0.000 A 
ATOM     34  H   UNL     1      42.093   4.532  12.077  0.00  0.00    +0.000 HD
ENDBRANCH  21  24
ENDBRANCH  19  20
ENDBRANCH   4  19
TORSDOF 8
ENDMDL
MODEL 6
REMARK VINA RESULT:    -7.085      4.634      6.749
REMARK INTER + INTRA:         -11.596
REMARK INTER:                 -10.157
REMARK INTRA:                  -1.438
REMARK UNBOUND:                -1.197
REMARK  Name = 
REMARK  9 active torsions:
REMARK  status: ('A' for Active; 'I' for Inactive)
REMARK    1  A    between atoms: C_1  and  C_2
REMARK    2  A    between atoms: C_2  and  C_3
REMARK    3  A    between atoms: C_3  and  N_4
REMARK    4  A    between atoms: C_3  and  C_12
REMARK    5  A    between atoms: N_4  and  C_5
REMARK    6  A    between atoms: C_5  and  C_6
REMARK    7  A    between atoms: C_15  and  C_16
REMARK    8  A    between atoms: C_16  and  N_17
REMARK    9  A    between atoms: C_18  and  C_20
REMARK                            x       y       z     vdW  Elec       q    Type
REMARK                         _______ _______ _______ _____ _____    ______ ____
ROOT
ATOM      1  C   UNL     1      45.810   4.818  12.157  0.00  0.00    +0.000 A 
ATOM      2  C   UNL     1      46.029   5.893  11.277  0.00  0.00    +0.000 A 
ATOM      3  C   UNL     1      46.872   6.953  11.631  0.00  0.00    +0.000 A 
ATOM      4  C   UNL     1      47.551   6.942  12.854  0.00  0.00    +0.000 A 
ATOM      5  C   UNL     1      47.348   5.870  13.727  0.00  0.00    +0.000 A 
ATOM      6  C   UNL     1      46.483   4.831  13.389  0.00  0.00    +0.000 A 
ENDROOT
BRANCH   1   7
ATOM      7  C   UNL     1      44.807   3.720  11.793  0.00  0.00    +0.000 C 
BRANCH   7   9
ATOM      8  C   UNL     1      42.843   5.061  12.851  0.00  0.00    +0.000 C 
ATOM      9  C   UNL     1      43.587   3.737  12.754  0.00  0.00    +0.000 C 
ENDBRANCH   7   9
BRANCH   7  10
ATOM     10  N   UNL     1      44.342   3.832  10.398  0.00  0.00    +0.000 NA
ATOM     11  H   UNL     1      44.958   4.466   9.896  0.00  0.00    +0.000 HD
BRANCH  10  12
ATOM     12  C   UNL     1      44.348   2.547   9.676  0.00  0.00    +0.000 C 
BRANCH  12  13
ATOM     13  C   UNL     1      45.419   2.497   8.601  0.00  0.00    +0.000 A 
ATOM     14  C   UNL     1      45.723   3.637   7.863  0.00  0.00    +0.000 A 
ATOM     15  C   UNL     1      46.731   3.567   6.904  0.00  0.00    +0.000 A 
ATOM     16  C   UNL     1      47.406   2.370   6.711  0.00  0.00    +0.000 A 
ATOM     17  C   UNL     1      47.037   1.280   7.480  0.00  0.00    +0.000 A 
ATOM     18  N   UNL     1      46.063   1.316   8.413  0.00  0.00    +0.000 NA
ENDBRANCH  12  13
ENDBRANCH  10  12
ENDBRANCH   7  10
ENDBRANCH   1   7
BRANCH   4  19
ATOM     19  C   UNL     1      48.449   8.075  13.265  0.00  0.00    +0.000 C 
BRANCH  19  20
ATOM     20  N   UNL     1      48.797   8.909  12.136  0.00  0.00    +0.000 N 
ATOM     21  C   UNL     1      48.563  10.258  12.114  0.00  0.00    +0.000 C 
ATOM     22  O   UNL     1      48.045  10.852  13.058  0.00  0.00    +0.000 OA
ATOM     23  H   UNL     1      49.022   8.423  11.274  0.00  0.00    +0.000 HD
BRANCH  21  24
ATOM     24  C   UNL     1      49.029  10.980  10.922  0.00  0.00    +0.000 A 
ATOM     25  C   UNL     1      48.121  11.724  10.179  0.00  0.00    +0.000 A 
ATOM     26  S   UNL     1      48.822  12.548   8.863  0.00  0.00    +0.000 S 
ATOM     27  C   UNL     1      50.358  11.901   9.206  0.00  0.00    +0.000 A 
ATOM     28  N   UNL     1      51.429  12.194   8.420  0.00  0.00    +0.000 NA
ATOM     29  C   UNL     1      52.521  11.600   8.767  0.00  0.00    +0.000 A 
ATOM     30  N   UNL     1      52.646  10.753   9.838  0.00  0.00    +0.000 N 
ATOM     31  C   UNL     1      51.611  10.489  10.702  0.00  0.00    +0.000 A 
ATOM     32  O   UNL     1      51.786   9.828  11.720  0.00  0.00    +0.000 OA
ATOM     33  C   UNL     1      50.343  11.089  10.327  0.00  0.00    +0.000 A 
ATOM     34  H   UNL     1      53.539  10.342  10.072  0.00  0.00    +0.000 HD
ENDBRANCH  21  24
ENDBRANCH  19  20
ENDBRANCH   4  19
TORSDOF 8
ENDMDL
MODEL 7
REMARK VINA RESULT:    -6.988      3.503      8.739
REMARK INTER + INTRA:         -11.453
REMARK INTER:                  -9.840
REMARK INTRA:                  -1.613
REMARK UNBOUND:                -1.197
REMARK  Name = 
REMARK  9 active torsions:
REMARK  status: ('A' for Active; 'I' for Inactive)
REMARK    1  A    between atoms: C_1  and  C_2
REMARK    2  A    between atoms: C_2  and  C_3
REMARK    3  A    between atoms: C_3  and  N_4
REMARK    4  A    between atoms: C_3  and  C_12
REMARK    5  A    between atoms: N_4  and  C_5
REMARK    6  A    between atoms: C_5  and  C_6
REMARK    7  A    between atoms: C_15  and  C_16
REMARK    8  A    between atoms: C_16  and  N_17
REMARK    9  A    between atoms: C_18  and  C_20
REMARK                            x       y       z     vdW  Elec       q    Type
REMARK                         _______ _______ _______ _____ _____    ______ ____
ROOT
ATOM      1  C   UNL     1      48.682   7.804  16.324  0.00  0.00    +0.000 A 
ATOM      2  C   UNL     1      48.444   9.040  15.697  0.00  0.00    +0.000 A 
ATOM      3  C   UNL     1      48.332   9.133  14.305  0.00  0.00    +0.000 A 
ATOM      4  C   UNL     1      48.409   7.984  13.510  0.00  0.00    +0.000 A 
ATOM      5  C   UNL     1      48.632   6.751  14.128  0.00  0.00    +0.000 A 
ATOM      6  C   UNL     1      48.778   6.664  15.511  0.00  0.00    +0.000 A 
ENDROOT
BRANCH   1   7
ATOM      7  C   UNL     1      48.901   7.741  17.838  0.00  0.00    +0.000 C 
BRANCH   7   9
ATOM      8  C   UNL     1      50.605   8.883  19.441  0.00  0.00    +0.000 C 
ATOM      9  C   UNL     1      49.542   9.054  18.365  0.00  0.00    +0.000 C 
ENDBRANCH   7   9
BRANCH   7  10
ATOM     10  N   UNL     1      47.651   7.470  18.571  0.00  0.00    +0.000 NA
ATOM     11  H   UNL     1      46.895   7.360  17.901  0.00  0.00    +0.000 HD
BRANCH  10  12
ATOM     12  C   UNL     1      47.705   6.241  19.382  0.00  0.00    +0.000 C 
BRANCH  12  13
ATOM     13  C   UNL     1      47.964   5.007  18.536  0.00  0.00    +0.000 A 
ATOM     14  C   UNL     1      49.221   4.408  18.537  0.00  0.00    +0.000 A 
ATOM     15  C   UNL     1      49.419   3.260  17.775  0.00  0.00    +0.000 A 
ATOM     16  C   UNL     1      48.363   2.740  17.038  0.00  0.00    +0.000 A 
ATOM     17  C   UNL     1      47.148   3.401  17.083  0.00  0.00    +0.000 A 
ATOM     18  N   UNL     1      46.926   4.516  17.810  0.00  0.00    +0.000 NA
ENDBRANCH  12  13
ENDBRANCH  10  12
ENDBRANCH   7  10
ENDBRANCH   1   7
BRANCH   4  19
ATOM     19  C   UNL     1      48.309   8.057  12.012  0.00  0.00    +0.000 C 
BRANCH  19  20
ATOM     20  N   UNL     1      47.572   6.934  11.477  0.00  0.00    +0.000 N 
ATOM     21  C   UNL     1      46.203   6.906  11.424  0.00  0.00    +0.000 C 
ATOM     22  O   UNL     1      45.510   7.839  11.824  0.00  0.00    +0.000 OA
ATOM     23  H   UNL     1      48.098   6.077  11.343  0.00  0.00    +0.000 HD
BRANCH  21  24
ATOM     24  C   UNL     1      45.600   5.722  10.796  0.00  0.00    +0.000 A 
ATOM     25  C   UNL     1      45.770   5.516   9.433  0.00  0.00    +0.000 A 
ATOM     26  S   UNL     1      45.062   4.074   8.863  0.00  0.00    +0.000 S 
ATOM     27  C   UNL     1      44.457   3.697  10.408  0.00  0.00    +0.000 A 
ATOM     28  N   UNL     1      43.713   2.576  10.611  0.00  0.00    +0.000 NA
ATOM     29  C   UNL     1      43.280   2.437  11.818  0.00  0.00    +0.000 A 
ATOM     30  N   UNL     1      43.535   3.306  12.848  0.00  0.00    +0.000 N 
ATOM     31  C   UNL     1      44.343   4.409  12.707  0.00  0.00    +0.000 A 
ATOM     32  O   UNL     1      44.654   5.097  13.673  0.00  0.00    +0.000 OA
ATOM     33  C   UNL     1      44.814   4.643  11.353  0.00  0.00    +0.000 A 
ATOM     34  H   UNL     1      43.188   3.123  13.779  0.00  0.00    +0.000 HD
ENDBRANCH  21  24
ENDBRANCH  19  20
ENDBRANCH   4  19
TORSDOF 8
ENDMDL
MODEL 8
REMARK VINA RESULT:    -6.834      4.006      9.169
REMARK INTER + INTRA:         -11.228
REMARK INTER:                  -9.719
REMARK INTRA:                  -1.509
REMARK UNBOUND:                -1.197
REMARK  Name = 
REMARK  9 active torsions:
REMARK  status: ('A' for Active; 'I' for Inactive)
REMARK    1  A    between atoms: C_1  and  C_2
REMARK    2  A    between atoms: C_2  and  C_3
REMARK    3  A    between atoms: C_3  and  N_4
REMARK    4  A    between atoms: C_3  and  C_12
REMARK    5  A    between atoms: N_4  and  C_5
REMARK    6  A    between atoms: C_5  and  C_6
REMARK    7  A    between atoms: C_15  and  C_16
REMARK    8  A    between atoms: C_16  and  N_17
REMARK    9  A    between atoms: C_18  and  C_20
REMARK                            x       y       z     vdW  Elec       q    Type
REMARK                         _______ _______ _______ _____ _____    ______ ____
ROOT
ATOM      1  C   UNL     1      51.410   3.791  17.945  0.00  0.00    +0.000 A 
ATOM      2  C   UNL     1      50.906   2.580  17.439  0.00  0.00    +0.000 A 
ATOM      3  C   UNL     1      49.554   2.448  17.100  0.00  0.00    +0.000 A 
ATOM      4  C   UNL     1      48.684   3.537  17.217  0.00  0.00    +0.000 A 
ATOM      5  C   UNL     1      49.182   4.748  17.707  0.00  0.00    +0.000 A 
ATOM      6  C   UNL     1      50.520   4.869  18.076  0.00  0.00    +0.000 A 
ENDROOT
BRANCH   1   7
ATOM      7  C   UNL     1      52.868   3.883  18.404  0.00  0.00    +0.000 C 
BRANCH   7   9
ATOM      8  C   UNL     1      54.177   1.654  18.714  0.00  0.00    +0.000 C 
ATOM      9  C   UNL     1      53.727   2.757  17.766  0.00  0.00    +0.000 C 
ENDBRANCH   7   9
BRANCH   7  10
ATOM     10  N   UNL     1      53.466   5.196  18.099  0.00  0.00    +0.000 NA
ATOM     11  H   UNL     1      54.062   5.473  18.874  0.00  0.00    +0.000 HD
BRANCH  10  12
ATOM     12  C   UNL     1      54.297   5.190  16.882  0.00  0.00    +0.000 C 
BRANCH  12  13
ATOM     13  C   UNL     1      53.888   6.276  15.903  0.00  0.00    +0.000 A 
ATOM     14  C   UNL     1      52.625   6.855  15.986  0.00  0.00    +0.000 A 
ATOM     15  C   UNL     1      52.291   7.869  15.093  0.00  0.00    +0.000 A 
ATOM     16  C   UNL     1      53.221   8.279  14.147  0.00  0.00    +0.000 A 
ATOM     17  C   UNL     1      54.451   7.645  14.124  0.00  0.00    +0.000 A 
ATOM     18  N   UNL     1      54.803   6.658  14.974  0.00  0.00    +0.000 NA
ENDBRANCH  12  13
ENDBRANCH  10  12
ENDBRANCH   7  10
ENDBRANCH   1   7
BRANCH   4  19
ATOM     19  C   UNL     1      47.225   3.418  16.876  0.00  0.00    +0.000 C 
BRANCH  19  20
ATOM     20  N   UNL     1      46.834   4.395  15.884  0.00  0.00    +0.000 N 
ATOM     21  C   UNL     1      46.874   4.139  14.539  0.00  0.00    +0.000 C 
ATOM     22  O   UNL     1      47.242   3.057  14.086  0.00  0.00    +0.000 OA
ATOM     23  H   UNL     1      46.734   5.350  16.212  0.00  0.00    +0.000 HD
BRANCH  21  24
ATOM     24  C   UNL     1      46.385   5.209  13.658  0.00  0.00    +0.000 A 
ATOM     25  C   UNL     1      47.180   6.328  13.441  0.00  0.00    +0.000 A 
ATOM     26  S   UNL     1      46.503   7.451  12.354  0.00  0.00    +0.000 S 
ATOM     27  C   UNL     1      45.098   6.509  12.171  0.00  0.00    +0.000 A 
ATOM     28  N   UNL     1      44.076   6.928  11.376  0.00  0.00    +0.000 NA
ATOM     29  C   UNL     1      43.054   6.140  11.365  0.00  0.00    +0.000 A 
ATOM     30  N   UNL     1      42.964   4.963  12.062  0.00  0.00    +0.000 N 
ATOM     31  C   UNL     1      43.999   4.464  12.817  0.00  0.00    +0.000 A 
ATOM     32  O   UNL     1      43.935   3.351  13.327  0.00  0.00    +0.000 OA
ATOM     33  C   UNL     1      45.155   5.338  12.908  0.00  0.00    +0.000 A 
ATOM     34  H   UNL     1      42.144   4.377  11.987  0.00  0.00    +0.000 HD
ENDBRANCH  21  24
ENDBRANCH  19  20
ENDBRANCH   4  19
TORSDOF 8
ENDMDL
MODEL 9
REMARK VINA RESULT:    -6.831      3.238      9.182
REMARK INTER + INTRA:         -11.224
REMARK INTER:                  -9.475
REMARK INTRA:                  -1.749
REMARK UNBOUND:                -1.197
REMARK  Name = 
REMARK  9 active torsions:
REMARK  status: ('A' for Active; 'I' for Inactive)
REMARK    1  A    between atoms: C_1  and  C_2
REMARK    2  A    between atoms: C_2  and  C_3
REMARK    3  A    between atoms: C_3  and  N_4
REMARK    4  A    between atoms: C_3  and  C_12
REMARK    5  A    between atoms: N_4  and  C_5
REMARK    6  A    between atoms: C_5  and  C_6
REMARK    7  A    between atoms: C_15  and  C_16
REMARK    8  A    between atoms: C_16  and  N_17
REMARK    9  A    between atoms: C_18  and  C_20
REMARK                            x       y       z     vdW  Elec       q    Type
REMARK                         _______ _______ _______ _____ _____    ______ ____
ROOT
ATOM      1  C   UNL     1      49.005   8.072  16.149  0.00  0.00    +0.000 A 
ATOM      2  C   UNL     1      49.257   6.902  15.410  0.00  0.00    +0.000 A 
ATOM      3  C   UNL     1      48.833   6.783  14.082  0.00  0.00    +0.000 A 
ATOM      4  C   UNL     1      48.188   7.849  13.446  0.00  0.00    +0.000 A 
ATOM      5  C   UNL     1      47.946   9.020  14.170  0.00  0.00    +0.000 A 
ATOM      6  C   UNL     1      48.338   9.125  15.503  0.00  0.00    +0.000 A 
ENDROOT
BRANCH   1   7
ATOM      7  C   UNL     1      49.388   8.141  17.630  0.00  0.00    +0.000 C 
BRANCH   7   9
ATOM      8  C   UNL     1      50.687   9.736  19.225  0.00  0.00    +0.000 C 
ATOM      9  C   UNL     1      49.727   9.597  18.052  0.00  0.00    +0.000 C 
ENDBRANCH   7   9
BRANCH   7  10
ATOM     10  N   UNL     1      48.328   7.604  18.504  0.00  0.00    +0.000 NA
ATOM     11  H   UNL     1      47.528   7.350  17.931  0.00  0.00    +0.000 HD
BRANCH  10  12
ATOM     12  C   UNL     1      48.741   6.401  19.248  0.00  0.00    +0.000 C 
BRANCH  12  13
ATOM     13  C   UNL     1      48.575   5.134  18.428  0.00  0.00    +0.000 A 
ATOM     14  C   UNL     1      49.674   4.321  18.165  0.00  0.00    +0.000 A 
ATOM     15  C   UNL     1      49.484   3.150  17.436  0.00  0.00    +0.000 A 
ATOM     16  C   UNL     1      48.210   2.821  16.992  0.00  0.00    +0.000 A 
ATOM     17  C   UNL     1      47.172   3.689  17.288  0.00  0.00    +0.000 A 
ATOM     18  N   UNL     1      47.325   4.831  17.989  0.00  0.00    +0.000 NA
ENDBRANCH  12  13
ENDBRANCH  10  12
ENDBRANCH   7  10
ENDBRANCH   1   7
BRANCH   4  19
ATOM     19  C   UNL     1      47.708   7.743  12.025  0.00  0.00    +0.000 C 
BRANCH  19  20
ATOM     20  N   UNL     1      46.970   6.519  11.808  0.00  0.00    +0.000 N 
ATOM     21  C   UNL     1      45.606   6.449  11.917  0.00  0.00    +0.000 C 
ATOM     22  O   UNL     1      44.918   7.427  12.201  0.00  0.00    +0.000 OA
ATOM     23  H   UNL     1      47.517   5.664  11.786  0.00  0.00    +0.000 HD
BRANCH  21  24
ATOM     24  C   UNL     1      44.994   5.150  11.605  0.00  0.00    +0.000 A 
ATOM     25  C   UNL     1      44.263   4.490  12.585  0.00  0.00    +0.000 A 
ATOM     26  S   UNL     1      43.569   3.027  12.055  0.00  0.00    +0.000 S 
ATOM     27  C   UNL     1      44.262   3.194  10.511  0.00  0.00    +0.000 A 
ATOM     28  N   UNL     1      44.078   2.241   9.557  0.00  0.00    +0.000 NA
ATOM     29  C   UNL     1      44.697   2.472   8.449  0.00  0.00    +0.000 A 
ATOM     30  N   UNL     1      45.471   3.576   8.198  0.00  0.00    +0.000 N 
ATOM     31  C   UNL     1      45.623   4.599   9.103  0.00  0.00    +0.000 A 
ATOM     32  O   UNL     1      46.217   5.628   8.805  0.00  0.00    +0.000 OA
ATOM     33  C   UNL     1      44.991   4.365  10.390  0.00  0.00    +0.000 A 
ATOM     34  H   UNL     1      45.906   3.710   7.296  0.00  0.00    +0.000 HD
ENDBRANCH  21  24
ENDBRANCH  19  20
ENDBRANCH   4  19
TORSDOF 8
ENDMDL
