MODEL 1
REMARK VINA RESULT:    -8.242      0.000      0.000
REMARK INTER + INTRA:         -12.122
REMARK INTER:                 -11.133
REMARK INTRA:                  -0.989
REMARK UNBOUND:                -0.989
REMARK  Name = 
REMARK  6 active torsions:
REMARK  status: ('A' for Active; 'I' for Inactive)
REMARK    1  A    between atoms: C_2  and  C_25
REMARK    2  A    between atoms: N_3  and  C_4
REMARK    3  A    between atoms: C_4  and  C_5
REMARK    4  A    between atoms: C_8  and  C_9
REMARK    5  A    between atoms: C_9  and  N_10
REMARK    6  A    between atoms: C_11  and  C_13
REMARK                            x       y       z     vdW  Elec       q    Type
REMARK                         _______ _______ _______ _____ _____    ______ ____
ROOT
ATOM      1  C   UNL     1      45.417   4.060  12.482  0.00  0.00    +0.000 A 
ATOM      2  C   UNL     1      45.351   5.435  12.532  0.00  0.00    +0.000 A 
ATOM      3  N   UNL     1      46.176   6.206  13.266  0.00  0.00    +0.000 NA
ATOM      4  C   UNL     1      47.129   5.564  13.972  0.00  0.00    +0.000 A 
ATOM      5  N   UNL     1      47.270   4.223  14.011  0.00  0.00    +0.000 NA
ATOM      6  C   UNL     1      46.416   3.502  13.252  0.00  0.00    +0.000 A 
ENDROOT
BRANCH   1   7
ATOM      7  C   UNL     1      44.485   3.252  11.646  0.00  0.00    +0.000 C 
BRANCH   7  10
ATOM      8  O   UNL     1      44.286   4.228   9.006  0.00  0.00    +0.000 OA
ATOM      9  C   UNL     1      44.992   3.249   9.230  0.00  0.00    +0.000 C 
ATOM     10  N   UNL     1      45.134   2.693  10.487  0.00  0.00    +0.000 N 
ATOM     11  H   UNL     1      45.719   1.864  10.545  0.00  0.00    +0.000 HD
BRANCH   9  12
ATOM     12  C   UNL     1      45.781   2.578   8.149  0.00  0.00    +0.000 A 
ATOM     13  C   UNL     1      46.098   3.287   6.996  0.00  0.00    +0.000 A 
ATOM     14  C   UNL     1      46.854   2.652   6.018  0.00  0.00    +0.000 A 
ATOM     15  C   UNL     1      47.267   1.340   6.227  0.00  0.00    +0.000 A 
ATOM     16  C   UNL     1      46.905   0.711   7.410  0.00  0.00    +0.000 A 
ATOM     17  N   UNL     1      46.168   1.292   8.386  0.00  0.00    +0.000 NA
ENDBRANCH   9  12
ENDBRANCH   7  10
ENDBRANCH   1   7
BRANCH   4  18
ATOM     18  C   UNL     1      48.086   6.422  14.768  0.00  0.00    +0.000 C 
BRANCH  18  19
ATOM     19  N   UNL     1      48.996   5.660  15.598  0.00  0.00    +0.000 N 
ATOM     20  C   UNL     1      49.143   5.969  16.926  0.00  0.00    +0.000 C 
ATOM     21  O   UNL     1      48.543   6.910  17.441  0.00  0.00    +0.000 OA
ATOM     22  H   UNL     1      49.254   4.736  15.261  0.00  0.00    +0.000 HD
BRANCH  20  23
ATOM     23  C   UNL     1      50.128   5.188  17.681  0.00  0.00    +0.000 A 
ATOM     24  C   UNL     1      51.010   5.816  18.550  0.00  0.00    +0.000 A 
ATOM     25  S   UNL     1      52.321   4.814  19.004  0.00  0.00    +0.000 S 
ATOM     26  C   UNL     1      51.680   3.499  18.134  0.00  0.00    +0.000 A 
ATOM     27  N   UNL     1      52.365   2.334  17.982  0.00  0.00    +0.000 NA
ATOM     28  C   UNL     1      51.708   1.409  17.364  0.00  0.00    +0.000 A 
ATOM     29  N   UNL     1      50.409   1.521  16.936  0.00  0.00    +0.000 N 
ATOM     30  C   UNL     1      49.678   2.673  17.085  0.00  0.00    +0.000 A 
ATOM     31  O   UNL     1      48.488   2.727  16.792  0.00  0.00    +0.000 OA
ATOM     32  C   UNL     1      50.420   3.782  17.643  0.00  0.00    +0.000 A 
ATOM     33  H   UNL     1      49.919   0.729  16.548  0.00  0.00    +0.000 HD
ENDBRANCH  20  23
ENDBRANCH  18  19
ENDBRANCH   4  18
TORSDOF 6
ENDMDL
MODEL 2
REMARK VINA RESULT:    -8.198      2.224      2.579
REMARK INTER + INTRA:         -12.063
REMARK INTER:                 -11.209
REMARK INTRA:                  -0.854
REMARK UNBOUND:                -0.989
REMARK  Name = 
REMARK  6 active torsions:
REMARK  status: ('A' for Active; 'I' for Inactive)
REMARK    1  A    between atoms: C_2  and  C_25
REMARK    2  A    between atoms: N_3  and  C_4
REMARK    3  A    between atoms: C_4  and  C_5
REMARK    4  A    between atoms: C_8  and  C_9
REMARK    5  A    between atoms: C_9  and  N_10
REMARK    6  A    between atoms: C_11  and  C_13
REMARK                            x       y       z     vdW  Elec       q    Type
REMARK                         _______ _______ _______ _____ _____    ______ ____
ROOT
ATOM      1  C   UNL     1      45.619   4.310  12.275  0.00  0.00    +0.000 A 
ATOM      2  C   UNL     1      45.727   5.652  11.982  0.00  0.00    +0.000 A 
ATOM      3  N   UNL     1      46.578   6.494  12.597  0.00  0.00    +0.000 NA
ATOM      4  C   UNL     1      47.377   5.958  13.542  0.00  0.00    +0.000 A 
ATOM      5  N   UNL     1      47.341   4.664  13.921  0.00  0.00    +0.000 NA
ATOM      6  C   UNL     1      46.469   3.866  13.267  0.00  0.00    +0.000 A 
ENDROOT
BRANCH   1   7
ATOM      7  C   UNL     1      44.667   3.417  11.558  0.00  0.00    +0.000 C 
BRANCH   7  10
ATOM      8  O   UNL     1      44.468   4.309   8.889  0.00  0.00    +0.000 OA
ATOM      9  C   UNL     1      45.129   3.304   9.136  0.00  0.00    +0.000 C 
ATOM     10  N   UNL     1      45.265   2.785  10.409  0.00  0.00    +0.000 N 
ATOM     11  H   UNL     1      45.810   1.931  10.487  0.00  0.00    +0.000 HD
BRANCH   9  12
ATOM     12  C   UNL     1      45.864   2.557   8.066  0.00  0.00    +0.000 A 
ATOM     13  C   UNL     1      46.182   3.205   6.878  0.00  0.00    +0.000 A 
ATOM     14  C   UNL     1      46.888   2.499   5.911  0.00  0.00    +0.000 A 
ATOM     15  C   UNL     1      47.251   1.180   6.165  0.00  0.00    +0.000 A 
ATOM     16  C   UNL     1      46.891   0.615   7.381  0.00  0.00    +0.000 A 
ATOM     17  N   UNL     1      46.202   1.266   8.348  0.00  0.00    +0.000 NA
ENDBRANCH   9  12
ENDBRANCH   7  10
ENDBRANCH   1   7
BRANCH   4  18
ATOM     18  C   UNL     1      48.365   6.888  14.211  0.00  0.00    +0.000 C 
BRANCH  18  19
ATOM     19  N   UNL     1      48.088   7.117  15.614  0.00  0.00    +0.000 N 
ATOM     20  C   UNL     1      48.903   6.578  16.576  0.00  0.00    +0.000 C 
ATOM     21  O   UNL     1      49.860   5.864  16.286  0.00  0.00    +0.000 OA
ATOM     22  H   UNL     1      47.501   7.917  15.837  0.00  0.00    +0.000 HD
BRANCH  20  23
ATOM     23  C   UNL     1      48.518   6.808  17.972  0.00  0.00    +0.000 A 
ATOM     24  C   UNL     1      48.249   8.091  18.428  0.00  0.00    +0.000 A 
ATOM     25  S   UNL     1      48.228   8.198  20.135  0.00  0.00    +0.000 S 
ATOM     26  C   UNL     1      48.474   6.521  20.292  0.00  0.00    +0.000 A 
ATOM     27  N   UNL     1      48.687   5.934  21.501  0.00  0.00    +0.000 NA
ATOM     28  C   UNL     1      48.776   4.646  21.457  0.00  0.00    +0.000 A 
ATOM     29  N   UNL     1      48.613   3.886  20.326  0.00  0.00    +0.000 N 
ATOM     30  C   UNL     1      48.380   4.438  19.091  0.00  0.00    +0.000 A 
ATOM     31  O   UNL     1      48.135   3.747  18.108  0.00  0.00    +0.000 OA
ATOM     32  C   UNL     1      48.416   5.884  19.068  0.00  0.00    +0.000 A 
ATOM     33  H   UNL     1      48.596   2.879  20.373  0.00  0.00    +0.000 HD
ENDBRANCH  20  23
ENDBRANCH  18  19
ENDBRANCH   4  18
TORSDOF 6
ENDMDL
MODEL 3
REMARK VINA RESULT:    -7.930      1.884      2.365
REMARK INTER + INTRA:         -11.701
REMARK INTER:                 -10.662
REMARK INTRA:                  -1.039
REMARK UNBOUND:                -0.989
REMARK  Name = 
REMARK  6 active torsions:
REMARK  status: ('A' for Active; 'I' for Inactive)
REMARK    1  A    between atoms: C_2  and  C_25
REMARK    2  A    between atoms: N_3  and  C_4
REMARK    3  A    between atoms: C_4  and  C_5
REMARK    4  A    between atoms: C_8  and  C_9
REMARK    5  A    between atoms: C_9  and  N_10
REMARK    6  A    between atoms: C_11  and  C_13
REMARK                            x       y       z     vdW  Elec       q    Type
REMARK                         _______ _______ _______ _____ _____    ______ ____
ROOT
ATOM      1  C   UNL     1      45.012   5.979  11.184  0.00  0.00    +0.000 A 
ATOM      2  C   UNL     1      46.192   5.585  11.777  0.00  0.00    +0.000 A 
ATOM      3  N   UNL     1      46.945   6.378  12.562  0.00  0.00    +0.000 NA
ATOM      4  C   UNL     1      46.483   7.626  12.777  0.00  0.00    +0.000 A 
ATOM      5  N   UNL     1      45.353   8.121  12.231  0.00  0.00    +0.000 NA
ATOM      6  C   UNL     1      44.637   7.278  11.455  0.00  0.00    +0.000 A 
ENDROOT
BRANCH   1   7
ATOM      7  C   UNL     1      44.209   5.060  10.331  0.00  0.00    +0.000 C 
BRANCH   7  10
ATOM      8  O   UNL     1      44.224   2.275   9.877  0.00  0.00    +0.000 OA
ATOM      9  C   UNL     1      44.946   2.996   9.194  0.00  0.00    +0.000 C 
ATOM     10  N   UNL     1      45.017   4.366   9.359  0.00  0.00    +0.000 N 
ATOM     11  H   UNL     1      45.674   4.855   8.758  0.00  0.00    +0.000 HD
BRANCH   9  12
ATOM     12  C   UNL     1      45.808   2.445   8.101  0.00  0.00    +0.000 A 
ATOM     13  C   UNL     1      46.118   3.246   7.008  0.00  0.00    +0.000 A 
ATOM     14  C   UNL     1      46.942   2.722   6.019  0.00  0.00    +0.000 A 
ATOM     15  C   UNL     1      47.427   1.426   6.158  0.00  0.00    +0.000 A 
ATOM     16  C   UNL     1      47.066   0.700   7.285  0.00  0.00    +0.000 A 
ATOM     17  N   UNL     1      46.265   1.171   8.269  0.00  0.00    +0.000 NA
ENDBRANCH   9  12
ENDBRANCH   7  10
ENDBRANCH   1   7
BRANCH   4  18
ATOM     18  C   UNL     1      47.301   8.512  13.689  0.00  0.00    +0.000 C 
BRANCH  18  19
ATOM     19  N   UNL     1      47.703   7.863  14.921  0.00  0.00    +0.000 N 
ATOM     20  C   UNL     1      48.985   7.399  15.070  0.00  0.00    +0.000 C 
ATOM     21  O   UNL     1      49.813   7.485  14.166  0.00  0.00    +0.000 OA
ATOM     22  H   UNL     1      47.134   8.051  15.741  0.00  0.00    +0.000 HD
BRANCH  20  23
ATOM     23  C   UNL     1      49.293   6.702  16.323  0.00  0.00    +0.000 A 
ATOM     24  C   UNL     1      50.107   7.293  17.279  0.00  0.00    +0.000 A 
ATOM     25  S   UNL     1      50.673   6.182  18.450  0.00  0.00    +0.000 S 
ATOM     26  C   UNL     1      49.761   4.920  17.762  0.00  0.00    +0.000 A 
ATOM     27  N   UNL     1      49.871   3.634  18.193  0.00  0.00    +0.000 NA
ATOM     28  C   UNL     1      49.054   2.812  17.623  0.00  0.00    +0.000 A 
ATOM     29  N   UNL     1      48.098   3.165  16.705  0.00  0.00    +0.000 N 
ATOM     30  C   UNL     1      47.942   4.453  16.257  0.00  0.00    +0.000 A 
ATOM     31  O   UNL     1      47.019   4.774  15.516  0.00  0.00    +0.000 OA
ATOM     32  C   UNL     1      48.930   5.382  16.761  0.00  0.00    +0.000 A 
ATOM     33  H   UNL     1      47.424   2.493  16.370  0.00  0.00    +0.000 HD
ENDBRANCH  20  23
ENDBRANCH  18  19
ENDBRANCH   4  18
TORSDOF 6
ENDMDL
MODEL 4
REMARK VINA RESULT:    -7.624      2.712      4.202
REMARK INTER + INTRA:         -11.288
REMARK INTER:                 -10.422
REMARK INTRA:                  -0.866
REMARK UNBOUND:                -0.989
REMARK  Name = 
REMARK  6 active torsions:
REMARK  status: ('A' for Active; 'I' for Inactive)
REMARK    1  A    between atoms: C_2  and  C_25
REMARK    2  A    between atoms: N_3  and  C_4
REMARK    3  A    between atoms: C_4  and  C_5
REMARK    4  A    between atoms: C_8  and  C_9
REMARK    5  A    between atoms: C_9  and  N_10
REMARK    6  A    between atoms: C_11  and  C_13
REMARK                            x       y       z     vdW  Elec       q    Type
REMARK                         _______ _______ _______ _____ _____    ______ ____
ROOT
ATOM      1  C   UNL     1      45.158   4.433  11.617  0.00  0.00    +0.000 A 
ATOM      2  C   UNL     1      45.443   3.238  12.241  0.00  0.00    +0.000 A 
ATOM      3  N   UNL     1      46.155   3.129  13.378  0.00  0.00    +0.000 NA
ATOM      4  C   UNL     1      46.588   4.282  13.929  0.00  0.00    +0.000 A 
ATOM      5  N   UNL     1      46.384   5.503  13.393  0.00  0.00    +0.000 NA
ATOM      6  C   UNL     1      45.661   5.549  12.253  0.00  0.00    +0.000 A 
ENDROOT
BRANCH   1   7
ATOM      7  C   UNL     1      44.358   4.501  10.363  0.00  0.00    +0.000 C 
BRANCH   7  10
ATOM      8  O   UNL     1      46.221   5.355   8.424  0.00  0.00    +0.000 OA
ATOM      9  C   UNL     1      45.838   4.188   8.413  0.00  0.00    +0.000 C 
ATOM     10  N   UNL     1      44.915   3.688   9.311  0.00  0.00    +0.000 N 
ATOM     11  H   UNL     1      44.651   2.716   9.184  0.00  0.00    +0.000 HD
BRANCH   9  12
ATOM     12  C   UNL     1      46.360   3.194   7.422  0.00  0.00    +0.000 A 
ATOM     13  C   UNL     1      46.582   1.882   7.825  0.00  0.00    +0.000 A 
ATOM     14  C   UNL     1      47.040   0.971   6.881  0.00  0.00    +0.000 A 
ATOM     15  C   UNL     1      47.257   1.399   5.576  0.00  0.00    +0.000 A 
ATOM     16  C   UNL     1      47.007   2.729   5.263  0.00  0.00    +0.000 A 
ATOM     17  N   UNL     1      46.562   3.648   6.152  0.00  0.00    +0.000 NA
ENDBRANCH   9  12
ENDBRANCH   7  10
ENDBRANCH   1   7
BRANCH   4  18
ATOM     18  C   UNL     1      47.354   4.174  15.229  0.00  0.00    +0.000 C 
BRANCH  18  19
ATOM     19  N   UNL     1      47.483   5.433  15.932  0.00  0.00    +0.000 N 
ATOM     20  C   UNL     1      48.631   5.722  16.626  0.00  0.00    +0.000 C 
ATOM     21  O   UNL     1      49.559   4.920  16.701  0.00  0.00    +0.000 OA
ATOM     22  H   UNL     1      46.867   6.185  15.636  0.00  0.00    +0.000 HD
BRANCH  20  23
ATOM     23  C   UNL     1      48.657   6.991  17.360  0.00  0.00    +0.000 A 
ATOM     24  C   UNL     1      48.201   7.059  18.669  0.00  0.00    +0.000 A 
ATOM     25  S   UNL     1      47.929   8.663  19.196  0.00  0.00    +0.000 S 
ATOM     26  C   UNL     1      48.510   9.295  17.727  0.00  0.00    +0.000 A 
ATOM     27  N   UNL     1      48.444  10.623  17.438  0.00  0.00    +0.000 NA
ATOM     28  C   UNL     1      48.999  10.951  16.318  0.00  0.00    +0.000 A 
ATOM     29  N   UNL     1      49.666  10.084  15.490  0.00  0.00    +0.000 N 
ATOM     30  C   UNL     1      49.771   8.741  15.754  0.00  0.00    +0.000 A 
ATOM     31  O   UNL     1      50.456   7.996  15.061  0.00  0.00    +0.000 OA
ATOM     32  C   UNL     1      49.041   8.305  16.924  0.00  0.00    +0.000 A 
ATOM     33  H   UNL     1      50.165  10.418  14.678  0.00  0.00    +0.000 HD
ENDBRANCH  20  23
ENDBRANCH  18  19
ENDBRANCH   4  18
TORSDOF 6
ENDMDL
MODEL 5
REMARK VINA RESULT:    -7.500      2.342      3.185
REMARK INTER + INTRA:         -11.120
REMARK INTER:                 -10.141
REMARK INTRA:                  -0.980
REMARK UNBOUND:                -0.989
REMARK  Name = 
REMARK  6 active torsions:
REMARK  status: ('A' for Active; 'I' for Inactive)
REMARK    1  A    between atoms: C_2  and  C_25
REMARK    2  A    between atoms: N_3  and  C_4
REMARK    3  A    between atoms: C_4  and  C_5
REMARK    4  A    between atoms: C_8  and  C_9
REMARK    5  A    between atoms: C_9  and  N_10
REMARK    6  A    between atoms: C_11  and  C_13
REMARK                            x       y       z     vdW  Elec       q    Type
REMARK                         _______ _______ _______ _____ _____    ______ ____
ROOT
ATOM      1  C   UNL     1      44.727   4.999  11.834  0.00  0.00    +0.000 A 
ATOM      2  C   UNL     1      44.257   6.234  11.443  0.00  0.00    +0.000 A 
ATOM      3  N   UNL     1      44.779   7.405  11.853  0.00  0.00    +0.000 NA
ATOM      4  C   UNL     1      45.840   7.334  12.683  0.00  0.00    +0.000 A 
ATOM      5  N   UNL     1      46.367   6.180  13.144  0.00  0.00    +0.000 NA
ATOM      6  C   UNL     1      45.803   5.037  12.696  0.00  0.00    +0.000 A 
ENDROOT
BRANCH   1   7
ATOM      7  C   UNL     1      44.120   3.729  11.344  0.00  0.00    +0.000 C 
BRANCH   7  10
ATOM      8  O   UNL     1      44.101   4.248   8.571  0.00  0.00    +0.000 OA
ATOM      9  C   UNL     1      44.875   3.406   9.017  0.00  0.00    +0.000 C 
ATOM     10  N   UNL     1      44.940   3.074  10.356  0.00  0.00    +0.000 N 
ATOM     11  H   UNL     1      45.597   2.340  10.604  0.00  0.00    +0.000 HD
BRANCH   9  12
ATOM     12  C   UNL     1      45.838   2.670   8.136  0.00  0.00    +0.000 A 
ATOM     13  C   UNL     1      46.514   3.362   7.138  0.00  0.00    +0.000 A 
ATOM     14  C   UNL     1      47.422   2.663   6.351  0.00  0.00    +0.000 A 
ATOM     15  C   UNL     1      47.623   1.308   6.590  0.00  0.00    +0.000 A 
ATOM     16  C   UNL     1      46.904   0.700   7.610  0.00  0.00    +0.000 A 
ATOM     17  N   UNL     1      46.010   1.343   8.397  0.00  0.00    +0.000 NA
ENDBRANCH   9  12
ENDBRANCH   7  10
ENDBRANCH   1   7
BRANCH   4  18
ATOM     18  C   UNL     1      46.459   8.643  13.118  0.00  0.00    +0.000 C 
BRANCH  18  19
ATOM     19  N   UNL     1      47.029   8.603  14.449  0.00  0.00    +0.000 N 
ATOM     20  C   UNL     1      48.281   9.113  14.679  0.00  0.00    +0.000 C 
ATOM     21  O   UNL     1      48.964   9.582  13.772  0.00  0.00    +0.000 OA
ATOM     22  H   UNL     1      46.376   8.494  15.220  0.00  0.00    +0.000 HD
BRANCH  20  23
ATOM     23  C   UNL     1      48.809   8.978  16.040  0.00  0.00    +0.000 A 
ATOM     24  C   UNL     1      48.809  10.061  16.908  0.00  0.00    +0.000 A 
ATOM     25  S   UNL     1      49.820   9.823  18.267  0.00  0.00    +0.000 S 
ATOM     26  C   UNL     1      50.192   8.237  17.774  0.00  0.00    +0.000 A 
ATOM     27  N   UNL     1      51.120   7.481  18.419  0.00  0.00    +0.000 NA
ATOM     28  C   UNL     1      51.226   6.274  17.971  0.00  0.00    +0.000 A 
ATOM     29  N   UNL     1      50.449   5.735  16.976  0.00  0.00    +0.000 N 
ATOM     30  C   UNL     1      49.490   6.459  16.312  0.00  0.00    +0.000 A 
ATOM     31  O   UNL     1      48.734   5.938  15.499  0.00  0.00    +0.000 OA
ATOM     32  C   UNL     1      49.435   7.855  16.683  0.00  0.00    +0.000 A 
ATOM     33  H   UNL     1      50.513   4.756  16.738  0.00  0.00    +0.000 HD
ENDBRANCH  20  23
ENDBRANCH  18  19
ENDBRANCH   4  18
TORSDOF 6
ENDMDL
MODEL 6
REMARK VINA RESULT:    -7.296      2.347      3.042
REMARK INTER + INTRA:         -10.845
REMARK INTER:                  -9.966
REMARK INTRA:                  -0.880
REMARK UNBOUND:                -0.989
REMARK  Name = 
REMARK  6 active torsions:
REMARK  status: ('A' for Active; 'I' for Inactive)
REMARK    1  A    between atoms: C_2  and  C_25
REMARK    2  A    between atoms: N_3  and  C_4
REMARK    3  A    between atoms: C_4  and  C_5
REMARK    4  A    between atoms: C_8  and  C_9
REMARK    5  A    between atoms: C_9  and  N_10
REMARK    6  A    between atoms: C_11  and  C_13
REMARK                            x       y       z     vdW  Elec       q    Type
REMARK                         _______ _______ _______ _____ _____    ______ ____
ROOT
ATOM      1  C   UNL     1      45.256   5.814  11.537  0.00  0.00    +0.000 A 
ATOM      2  C   UNL     1      45.285   7.191  11.551  0.00  0.00    +0.000 A 
ATOM      3  N   UNL     1      46.054   7.922  12.380  0.00  0.00    +0.000 NA
ATOM      4  C   UNL     1      46.849   7.236  13.226  0.00  0.00    +0.000 A 
ATOM      5  N   UNL     1      46.884   5.889  13.311  0.00  0.00    +0.000 NA
ATOM      6  C   UNL     1      46.093   5.209  12.452  0.00  0.00    +0.000 A 
ENDROOT
BRANCH   1   7
ATOM      7  C   UNL     1      44.393   5.050  10.593  0.00  0.00    +0.000 C 
BRANCH   7  10
ATOM      8  O   UNL     1      44.017   2.354   9.850  0.00  0.00    +0.000 OA
ATOM      9  C   UNL     1      44.895   3.010   9.296  0.00  0.00    +0.000 C 
ATOM     10  N   UNL     1      45.162   4.329   9.609  0.00  0.00    +0.000 N 
ATOM     11  H   UNL     1      45.933   4.760   9.107  0.00  0.00    +0.000 HD
BRANCH   9  12
ATOM     12  C   UNL     1      45.749   2.433   8.210  0.00  0.00    +0.000 A 
ATOM     13  C   UNL     1      46.137   3.239   7.146  0.00  0.00    +0.000 A 
ATOM     14  C   UNL     1      46.952   2.688   6.164  0.00  0.00    +0.000 A 
ATOM     15  C   UNL     1      47.350   1.360   6.281  0.00  0.00    +0.000 A 
ATOM     16  C   UNL     1      46.914   0.630   7.379  0.00  0.00    +0.000 A 
ATOM     17  N   UNL     1      46.120   1.128   8.355  0.00  0.00    +0.000 NA
ENDBRANCH   9  12
ENDBRANCH   7  10
ENDBRANCH   1   7
BRANCH   4  18
ATOM     18  C   UNL     1      47.746   8.047  14.134  0.00  0.00    +0.000 C 
BRANCH  18  19
ATOM     19  N   UNL     1      48.067   7.381  15.379  0.00  0.00    +0.000 N 
ATOM     20  C   UNL     1      49.376   7.209  15.752  0.00  0.00    +0.000 C 
ATOM     21  O   UNL     1      50.305   7.577  15.038  0.00  0.00    +0.000 OA
ATOM     22  H   UNL     1      47.331   7.347  16.080  0.00  0.00    +0.000 HD
BRANCH  20  23
ATOM     23  C   UNL     1      49.615   6.472  16.997  0.00  0.00    +0.000 A 
ATOM     24  C   UNL     1      50.567   5.463  17.048  0.00  0.00    +0.000 A 
ATOM     25  S   UNL     1      50.408   4.469  18.431  0.00  0.00    +0.000 S 
ATOM     26  C   UNL     1      49.137   5.427  19.033  0.00  0.00    +0.000 A 
ATOM     27  N   UNL     1      48.432   5.074  20.141  0.00  0.00    +0.000 NA
ATOM     28  C   UNL     1      47.555   5.947  20.513  0.00  0.00    +0.000 A 
ATOM     29  N   UNL     1      47.359   7.166  19.914  0.00  0.00    +0.000 N 
ATOM     30  C   UNL     1      48.061   7.567  18.805  0.00  0.00    +0.000 A 
ATOM     31  O   UNL     1      47.950   8.697  18.342  0.00  0.00    +0.000 OA
ATOM     32  C   UNL     1      48.953   6.563  18.269  0.00  0.00    +0.000 A 
ATOM     33  H   UNL     1      46.727   7.846  20.311  0.00  0.00    +0.000 HD
ENDBRANCH  20  23
ENDBRANCH  18  19
ENDBRANCH   4  18
TORSDOF 6
ENDMDL
MODEL 7
REMARK VINA RESULT:    -7.087      1.518      2.087
REMARK INTER + INTRA:         -10.563
REMARK INTER:                  -9.749
REMARK INTRA:                  -0.814
REMARK UNBOUND:                -0.989
REMARK  Name = 
REMARK  6 active torsions:
REMARK  status: ('A' for Active; 'I' for Inactive)
REMARK    1  A    between atoms: C_2  and  C_25
REMARK    2  A    between atoms: N_3  and  C_4
REMARK    3  A    between atoms: C_4  and  C_5
REMARK    4  A    between atoms: C_8  and  C_9
REMARK    5  A    between atoms: C_9  and  N_10
REMARK    6  A    between atoms: C_11  and  C_13
REMARK                            x       y       z     vdW  Elec       q    Type
REMARK                         _______ _______ _______ _____ _____    ______ ____
ROOT
ATOM      1  C   UNL     1      46.587   6.224  13.458  0.00  0.00    +0.000 A 
ATOM      2  C   UNL     1      47.203   7.451  13.344  0.00  0.00    +0.000 A 
ATOM      3  N   UNL     1      48.298   7.815  14.038  0.00  0.00    +0.000 NA
ATOM      4  C   UNL     1      48.813   6.892  14.876  0.00  0.00    +0.000 A 
ATOM      5  N   UNL     1      48.280   5.670  15.080  0.00  0.00    +0.000 NA
ATOM      6  C   UNL     1      47.183   5.360  14.353  0.00  0.00    +0.000 A 
ENDROOT
BRANCH   1   7
ATOM      7  C   UNL     1      45.382   5.866  12.660  0.00  0.00    +0.000 C 
BRANCH   7  10
ATOM      8  O   UNL     1      43.613   5.166  10.576  0.00  0.00    +0.000 OA
ATOM      9  C   UNL     1      44.774   4.767  10.535  0.00  0.00    +0.000 C 
ATOM     10  N   UNL     1      45.703   5.045  11.519  0.00  0.00    +0.000 N 
ATOM     11  H   UNL     1      46.623   4.634  11.394  0.00  0.00    +0.000 HD
BRANCH   9  12
ATOM     12  C   UNL     1      45.291   3.950   9.391  0.00  0.00    +0.000 A 
ATOM     13  C   UNL     1      45.247   2.563   9.471  0.00  0.00    +0.000 A 
ATOM     14  C   UNL     1      45.707   1.825   8.386  0.00  0.00    +0.000 A 
ATOM     15  C   UNL     1      46.189   2.496   7.267  0.00  0.00    +0.000 A 
ATOM     16  C   UNL     1      46.193   3.885   7.275  0.00  0.00    +0.000 A 
ATOM     17  N   UNL     1      45.756   4.639   8.311  0.00  0.00    +0.000 NA
ENDBRANCH   9  12
ENDBRANCH   7  10
ENDBRANCH   1   7
BRANCH   4  18
ATOM     18  C   UNL     1      50.067   7.276  15.631  0.00  0.00    +0.000 C 
BRANCH  18  19
ATOM     19  N   UNL     1      50.664   6.177  16.362  0.00  0.00    +0.000 N 
ATOM     20  C   UNL     1      50.576   6.130  17.730  0.00  0.00    +0.000 C 
ATOM     21  O   UNL     1      50.028   7.022  18.373  0.00  0.00    +0.000 OA
ATOM     22  H   UNL     1      50.846   5.327  15.836  0.00  0.00    +0.000 HD
BRANCH  20  23
ATOM     23  C   UNL     1      51.258   5.017  18.397  0.00  0.00    +0.000 A 
ATOM     24  C   UNL     1      52.153   5.255  19.431  0.00  0.00    +0.000 A 
ATOM     25  S   UNL     1      53.133   3.899  19.787  0.00  0.00    +0.000 S 
ATOM     26  C   UNL     1      52.312   2.944  18.641  0.00  0.00    +0.000 A 
ATOM     27  N   UNL     1      52.722   1.686  18.327  0.00  0.00    +0.000 NA
ATOM     28  C   UNL     1      51.946   1.067  17.500  0.00  0.00    +0.000 A 
ATOM     29  N   UNL     1      50.768   1.567  17.005  0.00  0.00    +0.000 N 
ATOM     30  C   UNL     1      50.311   2.824  17.311  0.00  0.00    +0.000 A 
ATOM     31  O   UNL     1      49.209   3.220  16.946  0.00  0.00    +0.000 OA
ATOM     32  C   UNL     1      51.219   3.607  18.120  0.00  0.00    +0.000 A 
ATOM     33  H   UNL     1      50.156   0.996  16.441  0.00  0.00    +0.000 HD
ENDBRANCH  20  23
ENDBRANCH  18  19
ENDBRANCH   4  18
TORSDOF 6
ENDMDL
MODEL 8
REMARK VINA RESULT:    -7.030      4.797      7.396
REMARK INTER + INTRA:         -10.485
REMARK INTER:                  -9.586
REMARK INTRA:                  -0.899
REMARK UNBOUND:                -0.989
REMARK  Name = 
REMARK  6 active torsions:
REMARK  status: ('A' for Active; 'I' for Inactive)
REMARK    1  A    between atoms: C_2  and  C_25
REMARK    2  A    between atoms: N_3  and  C_4
REMARK    3  A    between atoms: C_4  and  C_5
REMARK    4  A    between atoms: C_8  and  C_9
REMARK    5  A    between atoms: C_9  and  N_10
REMARK    6  A    between atoms: C_11  and  C_13
REMARK                            x       y       z     vdW  Elec       q    Type
REMARK                         _______ _______ _______ _____ _____    ______ ____
ROOT
ATOM      1  C   UNL     1      44.759   8.837  11.799  0.00  0.00    +0.000 A 
ATOM      2  C   UNL     1      45.744   8.687  12.750  0.00  0.00    +0.000 A 
ATOM      3  N   UNL     1      46.152   7.500  13.236  0.00  0.00    +0.000 NA
ATOM      4  C   UNL     1      45.553   6.404  12.727  0.00  0.00    +0.000 A 
ATOM      5  N   UNL     1      44.564   6.436  11.809  0.00  0.00    +0.000 NA
ATOM      6  C   UNL     1      44.200   7.656  11.357  0.00  0.00    +0.000 A 
ENDROOT
BRANCH   1   7
ATOM      7  C   UNL     1      44.350  10.174  11.286  0.00  0.00    +0.000 C 
BRANCH   7  10
ATOM      8  O   UNL     1      41.874  10.693  10.036  0.00  0.00    +0.000 OA
ATOM      9  C   UNL     1      41.986  10.881  11.245  0.00  0.00    +0.000 C 
ATOM     10  N   UNL     1      43.163  10.672  11.936  0.00  0.00    +0.000 N 
ATOM     11  H   UNL     1      43.145  10.892  12.927  0.00  0.00    +0.000 HD
BRANCH   9  12
ATOM     12  C   UNL     1      40.834  11.343  12.084  0.00  0.00    +0.000 A 
ATOM     13  C   UNL     1      39.557  10.866  11.811  0.00  0.00    +0.000 A 
ATOM     14  C   UNL     1      38.509  11.288  12.621  0.00  0.00    +0.000 A 
ATOM     15  C   UNL     1      38.773  12.165  13.668  0.00  0.00    +0.000 A 
ATOM     16  C   UNL     1      40.080  12.589  13.866  0.00  0.00    +0.000 A 
ATOM     17  N   UNL     1      41.128  12.204  13.100  0.00  0.00    +0.000 NA
ENDBRANCH   9  12
ENDBRANCH   7  10
ENDBRANCH   1   7
BRANCH   4  18
ATOM     18  C   UNL     1      46.031   5.063  13.237  0.00  0.00    +0.000 C 
BRANCH  18  19
ATOM     19  N   UNL     1      46.711   5.137  14.514  0.00  0.00    +0.000 N 
ATOM     20  C   UNL     1      47.390   4.048  14.999  0.00  0.00    +0.000 C 
ATOM     21  O   UNL     1      47.414   2.980  14.393  0.00  0.00    +0.000 OA
ATOM     22  H   UNL     1      46.933   6.067  14.858  0.00  0.00    +0.000 HD
BRANCH  20  23
ATOM     23  C   UNL     1      47.999   4.187  16.325  0.00  0.00    +0.000 A 
ATOM     24  C   UNL     1      47.862   3.182  17.274  0.00  0.00    +0.000 A 
ATOM     25  S   UNL     1      48.274   3.698  18.852  0.00  0.00    +0.000 S 
ATOM     26  C   UNL     1      48.738   5.233  18.281  0.00  0.00    +0.000 A 
ATOM     27  N   UNL     1      49.082   6.242  19.126  0.00  0.00    +0.000 NA
ATOM     28  C   UNL     1      49.485   7.316  18.534  0.00  0.00    +0.000 A 
ATOM     29  N   UNL     1      49.633   7.456  17.177  0.00  0.00    +0.000 N 
ATOM     30  C   UNL     1      49.314   6.457  16.291  0.00  0.00    +0.000 A 
ATOM     31  O   UNL     1      49.547   6.556  15.091  0.00  0.00    +0.000 OA
ATOM     32  C   UNL     1      48.723   5.286  16.901  0.00  0.00    +0.000 A 
ATOM     33  H   UNL     1      50.047   8.287  16.780  0.00  0.00    +0.000 HD
ENDBRANCH  20  23
ENDBRANCH  18  19
ENDBRANCH   4  18
TORSDOF 6
ENDMDL
MODEL 9
REMARK VINA RESULT:    -6.976      3.474      8.876
REMARK INTER + INTRA:         -10.412
REMARK INTER:                  -9.520
REMARK INTRA:                  -0.892
REMARK UNBOUND:                -0.989
REMARK  Name = 
REMARK  6 active torsions:
REMARK  status: ('A' for Active; 'I' for Inactive)
REMARK    1  A    between atoms: C_2  and  C_25
REMARK    2  A    between atoms: N_3  and  C_4
REMARK    3  A    between atoms: C_4  and  C_5
REMARK    4  A    between atoms: C_8  and  C_9
REMARK    5  A    between atoms: C_9  and  N_10
REMARK    6  A    between atoms: C_11  and  C_13
REMARK                            x       y       z     vdW  Elec       q    Type
REMARK                         _______ _______ _______ _____ _____    ______ ____
ROOT
ATOM      1  C   UNL     1      49.458   7.639  16.219  0.00  0.00    +0.000 A 
ATOM      2  C   UNL     1      49.641   6.853  15.102  0.00  0.00    +0.000 A 
ATOM      3  N   UNL     1      49.073   7.096  13.906  0.00  0.00    +0.000 NA
ATOM      4  C   UNL     1      48.296   8.194  13.820  0.00  0.00    +0.000 A 
ATOM      5  N   UNL     1      48.033   9.021  14.854  0.00  0.00    +0.000 NA
ATOM      6  C   UNL     1      48.633   8.729  16.029  0.00  0.00    +0.000 A 
ENDROOT
BRANCH   1   7
ATOM      7  C   UNL     1      50.117   7.334  17.519  0.00  0.00    +0.000 C 
BRANCH   7  10
ATOM      8  O   UNL     1      49.035   4.918  18.497  0.00  0.00    +0.000 OA
ATOM      9  C   UNL     1      50.158   4.913  18.000  0.00  0.00    +0.000 C 
ATOM     10  N   UNL     1      50.773   6.050  17.513  0.00  0.00    +0.000 N 
ATOM     11  H   UNL     1      51.716   5.930  17.155  0.00  0.00    +0.000 HD
BRANCH   9  12
ATOM     12  C   UNL     1      50.958   3.654  17.863  0.00  0.00    +0.000 A 
ATOM     13  C   UNL     1      52.230   3.591  18.420  0.00  0.00    +0.000 A 
ATOM     14  C   UNL     1      52.943   2.403  18.303  0.00  0.00    +0.000 A 
ATOM     15  C   UNL     1      52.361   1.327  17.642  0.00  0.00    +0.000 A 
ATOM     16  C   UNL     1      51.084   1.480  17.118  0.00  0.00    +0.000 A 
ATOM     17  N   UNL     1      50.358   2.620  17.208  0.00  0.00    +0.000 NA
ENDBRANCH   9  12
ENDBRANCH   7  10
ENDBRANCH   1   7
BRANCH   4  18
ATOM     18  C   UNL     1      47.685   8.498  12.470  0.00  0.00    +0.000 C 
BRANCH  18  19
ATOM     19  N   UNL     1      47.280   7.316  11.737  0.00  0.00    +0.000 N 
ATOM     20  C   UNL     1      45.962   6.939  11.710  0.00  0.00    +0.000 C 
ATOM     21  O   UNL     1      45.099   7.561  12.325  0.00  0.00    +0.000 OA
ATOM     22  H   UNL     1      47.916   6.987  11.016  0.00  0.00    +0.000 HD
BRANCH  20  23
ATOM     23  C   UNL     1      45.645   5.698  10.997  0.00  0.00    +0.000 A 
ATOM     24  C   UNL     1      45.881   5.586   9.634  0.00  0.00    +0.000 A 
ATOM     25  S   UNL     1      45.079   4.251   8.927  0.00  0.00    +0.000 S 
ATOM     26  C   UNL     1      44.489   3.743  10.440  0.00  0.00    +0.000 A 
ATOM     27  N   UNL     1      43.608   2.714  10.561  0.00  0.00    +0.000 NA
ATOM     28  C   UNL     1      43.321   2.401  11.781  0.00  0.00    +0.000 A 
ATOM     29  N   UNL     1      43.878   2.983  12.892  0.00  0.00    +0.000 N 
ATOM     30  C   UNL     1      44.784   4.011  12.813  0.00  0.00    +0.000 A 
ATOM     31  O   UNL     1      45.351   4.452  13.807  0.00  0.00    +0.000 OA
ATOM     32  C   UNL     1      45.026   4.490  11.470  0.00  0.00    +0.000 A 
ATOM     33  H   UNL     1      43.687   2.628  13.817  0.00  0.00    +0.000 HD
ENDBRANCH  20  23
ENDBRANCH  18  19
ENDBRANCH   4  18
TORSDOF 6
ENDMDL
