MODEL 1
REMARK VINA RESULT:    -8.015      0.000      0.000
REMARK INTER + INTRA:         -11.843
REMARK INTER:                 -10.826
REMARK INTRA:                  -1.017
REMARK UNBOUND:                -1.017
REMARK  Name = 
REMARK  7 active torsions:
REMARK  status: ('A' for Active; 'I' for Inactive)
REMARK    1  A    between atoms: C_1  and  C_2
REMARK    2  A    between atoms: C_2  and  N_3
REMARK    3  A    between atoms: C_2  and  C_10
REMARK    4  A    between atoms: N_3  and  C_4
REMARK    5  A    between atoms: C_13  and  C_14
REMARK    6  A    between atoms: C_14  and  N_15
REMARK    7  A    between atoms: N_15  and  C_16
REMARK                            x       y       z     vdW  Elec       q    Type
REMARK                         _______ _______ _______ _____ _____    ______ ____
ROOT
ATOM      1  C   UNL     1      45.110   5.012  11.573  0.00  0.00    +0.000 A 
ATOM      2  C   UNL     1      45.540   4.354  12.737  0.00  0.00    +0.000 A 
ATOM      3  C   UNL     1      46.615   4.845  13.481  0.00  0.00    +0.000 A 
ATOM      4  C   UNL     1      47.283   6.010  13.085  0.00  0.00    +0.000 A 
ATOM      5  C   UNL     1      46.891   6.642  11.898  0.00  0.00    +0.000 A 
ATOM      6  C   UNL     1      45.808   6.160  11.159  0.00  0.00    +0.000 A 
ENDROOT
BRANCH   1   8
ATOM      7  C   UNL     1      42.681   5.405  11.361  0.00  0.00    +0.000 C 
ATOM      8  C   UNL     1      43.842   4.537  10.866  0.00  0.00    +0.000 C 
BRANCH   8   9
ATOM      9  N   UNL     1      44.003   4.627   9.406  0.00  0.00    +0.000 N 
ATOM     10  H   UNL     1      44.193   5.588   9.125  0.00  0.00    +0.000 HD
BRANCH   9  11
ATOM     11  C   UNL     1      44.890   3.762   8.744  0.00  0.00    +0.000 A 
ATOM     12  C   UNL     1      45.893   4.188   7.877  0.00  0.00    +0.000 A 
ATOM     13  C   UNL     1      46.751   3.255   7.313  0.00  0.00    +0.000 A 
ATOM     14  N   UNL     1      46.696   1.934   7.563  0.00  0.00    +0.000 NA
ATOM     15  C   UNL     1      45.756   1.538   8.439  0.00  0.00    +0.000 A 
ATOM     16  C   UNL     1      44.862   2.398   9.060  0.00  0.00    +0.000 A 
ENDBRANCH   9  11
ENDBRANCH   8   9
ENDBRANCH   1   8
BRANCH   4  17
ATOM     17  C   UNL     1      48.397   6.586  13.931  0.00  0.00    +0.000 C 
BRANCH  17  18
ATOM     18  N   UNL     1      48.021   6.556  15.327  0.00  0.00    +0.000 N 
ATOM     19  H   UNL     1      47.046   6.330  15.513  0.00  0.00    +0.000 HD
BRANCH  18  20
ATOM     20  C   UNL     1      48.861   5.801  16.151  0.00  0.00    +0.000 A 
ATOM     21  N   UNL     1      50.164   6.151  16.336  0.00  0.00    +0.000 NA
ATOM     22  C   UNL     1      50.927   5.413  17.175  0.00  0.00    +0.000 A 
ATOM     23  N   UNL     1      50.580   4.321  17.882  0.00  0.00    +0.000 NA
ATOM     24  C   UNL     1      49.294   4.011  17.659  0.00  0.00    +0.000 A 
ATOM     25  N   UNL     1      48.595   2.975  18.205  0.00  0.00    +0.000 N 
ATOM     26  C   UNL     1      47.325   3.022  17.697  0.00  0.00    +0.000 A 
ATOM     27  N   UNL     1      47.165   4.026  16.862  0.00  0.00    +0.000 NA
ATOM     28  C   UNL     1      48.392   4.664  16.839  0.00  0.00    +0.000 A 
ATOM     29  H   UNL     1      48.962   2.305  18.865  0.00  0.00    +0.000 HD
ENDBRANCH  18  20
ENDBRANCH  17  18
ENDBRANCH   4  17
TORSDOF 6
ENDMDL
MODEL 2
REMARK VINA RESULT:    -7.514      1.316      2.024
REMARK INTER + INTRA:         -11.166
REMARK INTER:                 -10.221
REMARK INTRA:                  -0.945
REMARK UNBOUND:                -1.017
REMARK  Name = 
REMARK  7 active torsions:
REMARK  status: ('A' for Active; 'I' for Inactive)
REMARK    1  A    between atoms: C_1  and  C_2
REMARK    2  A    between atoms: C_2  and  N_3
REMARK    3  A    between atoms: C_2  and  C_10
REMARK    4  A    between atoms: N_3  and  C_4
REMARK    5  A    between atoms: C_13  and  C_14
REMARK    6  A    between atoms: C_14  and  N_15
REMARK    7  A    between atoms: N_15  and  C_16
REMARK                            x       y       z     vdW  Elec       q    Type
REMARK                         _______ _______ _______ _____ _____    ______ ____
ROOT
ATOM      1  C   UNL     1      44.810   4.917  12.032  0.00  0.00    +0.000 A 
ATOM      2  C   UNL     1      45.264   6.243  12.104  0.00  0.00    +0.000 A 
ATOM      3  C   UNL     1      46.369   6.581  12.887  0.00  0.00    +0.000 A 
ATOM      4  C   UNL     1      47.053   5.599  13.614  0.00  0.00    +0.000 A 
ATOM      5  C   UNL     1      46.574   4.282  13.587  0.00  0.00    +0.000 A 
ATOM      6  C   UNL     1      45.477   3.941  12.793  0.00  0.00    +0.000 A 
ENDROOT
BRANCH   1   8
ATOM      7  C   UNL     1      42.469   5.404  11.410  0.00  0.00    +0.000 C 
ATOM      8  C   UNL     1      43.694   4.556  11.053  0.00  0.00    +0.000 C 
BRANCH   8   9
ATOM      9  N   UNL     1      44.130   4.790   9.667  0.00  0.00    +0.000 N 
ATOM     10  H   UNL     1      44.528   5.723   9.569  0.00  0.00    +0.000 HD
BRANCH   9  11
ATOM     11  C   UNL     1      44.963   3.857   9.028  0.00  0.00    +0.000 A 
ATOM     12  C   UNL     1      44.886   2.480   9.226  0.00  0.00    +0.000 A 
ATOM     13  C   UNL     1      45.723   1.638   8.506  0.00  0.00    +0.000 A 
ATOM     14  N   UNL     1      46.614   2.064   7.593  0.00  0.00    +0.000 NA
ATOM     15  C   UNL     1      46.646   3.391   7.373  0.00  0.00    +0.000 A 
ATOM     16  C   UNL     1      45.842   4.306   8.036  0.00  0.00    +0.000 A 
ENDBRANCH   9  11
ENDBRANCH   8   9
ENDBRANCH   1   8
BRANCH   4  17
ATOM     17  C   UNL     1      48.296   5.948  14.402  0.00  0.00    +0.000 C 
BRANCH  17  18
ATOM     18  N   UNL     1      47.942   6.256  15.769  0.00  0.00    +0.000 N 
ATOM     19  H   UNL     1      47.000   6.618  15.907  0.00  0.00    +0.000 HD
BRANCH  18  20
ATOM     20  C   UNL     1      48.214   5.244  16.695  0.00  0.00    +0.000 A 
ATOM     21  N   UNL     1      48.712   4.041  16.295  0.00  0.00    +0.000 NA
ATOM     22  C   UNL     1      48.998   3.107  17.232  0.00  0.00    +0.000 A 
ATOM     23  N   UNL     1      48.846   3.185  18.567  0.00  0.00    +0.000 NA
ATOM     24  C   UNL     1      48.344   4.381  18.910  0.00  0.00    +0.000 A 
ATOM     25  N   UNL     1      48.062   4.820  20.170  0.00  0.00    +0.000 N 
ATOM     26  C   UNL     1      47.558   6.088  20.060  0.00  0.00    +0.000 A 
ATOM     27  N   UNL     1      47.502   6.491  18.809  0.00  0.00    +0.000 NA
ATOM     28  C   UNL     1      48.006   5.431  18.076  0.00  0.00    +0.000 A 
ATOM     29  H   UNL     1      48.207   4.295  21.018  0.00  0.00    +0.000 HD
ENDBRANCH  18  20
ENDBRANCH  17  18
ENDBRANCH   4  17
TORSDOF 6
ENDMDL
MODEL 3
REMARK VINA RESULT:    -7.132      0.695      2.173
REMARK INTER + INTRA:         -10.650
REMARK INTER:                  -9.771
REMARK INTRA:                  -0.880
REMARK UNBOUND:                -1.017
REMARK  Name = 
REMARK  7 active torsions:
REMARK  status: ('A' for Active; 'I' for Inactive)
REMARK    1  A    between atoms: C_1  and  C_2
REMARK    2  A    between atoms: C_2  and  N_3
REMARK    3  A    between atoms: C_2  and  C_10
REMARK    4  A    between atoms: N_3  and  C_4
REMARK    5  A    between atoms: C_13  and  C_14
REMARK    6  A    between atoms: C_14  and  N_15
REMARK    7  A    between atoms: N_15  and  C_16
REMARK                            x       y       z     vdW  Elec       q    Type
REMARK                         _______ _______ _______ _____ _____    ______ ____
ROOT
ATOM      1  C   UNL     1      45.075   5.040  11.879  0.00  0.00    +0.000 A 
ATOM      2  C   UNL     1      45.650   6.275  11.540  0.00  0.00    +0.000 A 
ATOM      3  C   UNL     1      46.731   6.784  12.262  0.00  0.00    +0.000 A 
ATOM      4  C   UNL     1      47.269   6.067  13.338  0.00  0.00    +0.000 A 
ATOM      5  C   UNL     1      46.667   4.859  13.713  0.00  0.00    +0.000 A 
ATOM      6  C   UNL     1      45.595   4.343  12.983  0.00  0.00    +0.000 A 
ENDROOT
BRANCH   1   8
ATOM      7  C   UNL     1      42.648   5.033  11.416  0.00  0.00    +0.000 C 
ATOM      8  C   UNL     1      43.993   4.443  10.980  0.00  0.00    +0.000 C 
BRANCH   8   9
ATOM      9  N   UNL     1      44.281   4.734   9.566  0.00  0.00    +0.000 N 
ATOM     10  H   UNL     1      44.621   5.689   9.459  0.00  0.00    +0.000 HD
BRANCH   9  11
ATOM     11  C   UNL     1      45.094   3.862   8.823  0.00  0.00    +0.000 A 
ATOM     12  C   UNL     1      46.024   4.282   7.875  0.00  0.00    +0.000 A 
ATOM     13  C   UNL     1      46.816   3.342   7.231  0.00  0.00    +0.000 A 
ATOM     14  N   UNL     1      46.763   2.020   7.474  0.00  0.00    +0.000 NA
ATOM     15  C   UNL     1      45.898   1.629   8.427  0.00  0.00    +0.000 A 
ATOM     16  C   UNL     1      45.074   2.496   9.129  0.00  0.00    +0.000 A 
ENDBRANCH   9  11
ENDBRANCH   8   9
ENDBRANCH   1   8
BRANCH   4  17
ATOM     17  C   UNL     1      48.488   6.579  14.073  0.00  0.00    +0.000 C 
BRANCH  17  18
ATOM     18  N   UNL     1      48.176   6.766  15.473  0.00  0.00    +0.000 N 
ATOM     19  H   UNL     1      47.186   6.862  15.692  0.00  0.00    +0.000 HD
BRANCH  18  20
ATOM     20  C   UNL     1      48.779   5.851  16.342  0.00  0.00    +0.000 A 
ATOM     21  N   UNL     1      48.052   4.875  16.951  0.00  0.00    +0.000 NA
ATOM     22  C   UNL     1      48.687   3.988  17.752  0.00  0.00    +0.000 A 
ATOM     23  N   UNL     1      49.996   3.927  18.063  0.00  0.00    +0.000 NA
ATOM     24  C   UNL     1      50.667   4.913  17.448  0.00  0.00    +0.000 A 
ATOM     25  N   UNL     1      52.006   5.162  17.523  0.00  0.00    +0.000 N 
ATOM     26  C   UNL     1      52.262   6.265  16.753  0.00  0.00    +0.000 A 
ATOM     27  N   UNL     1      51.172   6.736  16.187  0.00  0.00    +0.000 NA
ATOM     28  C   UNL     1      50.163   5.887  16.605  0.00  0.00    +0.000 A 
ATOM     29  H   UNL     1      52.673   4.621  18.052  0.00  0.00    +0.000 HD
ENDBRANCH  18  20
ENDBRANCH  17  18
ENDBRANCH   4  17
TORSDOF 6
ENDMDL
MODEL 4
REMARK VINA RESULT:    -7.089      3.032      5.964
REMARK INTER + INTRA:         -10.593
REMARK INTER:                  -9.625
REMARK INTRA:                  -0.967
REMARK UNBOUND:                -1.017
REMARK  Name = 
REMARK  7 active torsions:
REMARK  status: ('A' for Active; 'I' for Inactive)
REMARK    1  A    between atoms: C_1  and  C_2
REMARK    2  A    between atoms: C_2  and  N_3
REMARK    3  A    between atoms: C_2  and  C_10
REMARK    4  A    between atoms: N_3  and  C_4
REMARK    5  A    between atoms: C_13  and  C_14
REMARK    6  A    between atoms: C_14  and  N_15
REMARK    7  A    between atoms: N_15  and  C_16
REMARK                            x       y       z     vdW  Elec       q    Type
REMARK                         _______ _______ _______ _____ _____    ______ ____
ROOT
ATOM      1  C   UNL     1      46.552   2.487   7.091  0.00  0.00    +0.000 A 
ATOM      2  C   UNL     1      46.244   1.446   7.982  0.00  0.00    +0.000 A 
ATOM      3  C   UNL     1      45.384   1.657   9.061  0.00  0.00    +0.000 A 
ATOM      4  C   UNL     1      44.803   2.913   9.273  0.00  0.00    +0.000 A 
ATOM      5  C   UNL     1      45.146   3.969   8.418  0.00  0.00    +0.000 A 
ATOM      6  C   UNL     1      45.996   3.755   7.331  0.00  0.00    +0.000 A 
ENDROOT
BRANCH   1   8
ATOM      7  C   UNL     1      48.776   2.767   6.055  0.00  0.00    +0.000 C 
ATOM      8  C   UNL     1      47.375   2.187   5.840  0.00  0.00    +0.000 C 
BRANCH   8   9
ATOM      9  N   UNL     1      47.421   0.737   5.589  0.00  0.00    +0.000 N 
ATOM     10  H   UNL     1      47.046   0.223   6.386  0.00  0.00    +0.000 HD
BRANCH   9  11
ATOM     11  C   UNL     1      46.882   0.214   4.401  0.00  0.00    +0.000 A 
ATOM     12  C   UNL     1      46.906  -1.137   4.064  0.00  0.00    +0.000 A 
ATOM     13  C   UNL     1      46.300  -1.559   2.889  0.00  0.00    +0.000 A 
ATOM     14  N   UNL     1      45.658  -0.739   2.037  0.00  0.00    +0.000 NA
ATOM     15  C   UNL     1      45.597   0.556   2.397  0.00  0.00    +0.000 A 
ATOM     16  C   UNL     1      46.163   1.066   3.556  0.00  0.00    +0.000 A 
ENDBRANCH   9  11
ENDBRANCH   8   9
ENDBRANCH   1   8
BRANCH   4  17
ATOM     17  C   UNL     1      43.812   3.125  10.395  0.00  0.00    +0.000 C 
BRANCH  17  18
ATOM     18  N   UNL     1      44.490   3.059  11.671  0.00  0.00    +0.000 N 
ATOM     19  H   UNL     1      45.212   2.345  11.746  0.00  0.00    +0.000 HD
BRANCH  18  20
ATOM     20  C   UNL     1      44.963   4.283  12.155  0.00  0.00    +0.000 A 
ATOM     21  N   UNL     1      44.510   5.462  11.647  0.00  0.00    +0.000 NA
ATOM     22  C   UNL     1      44.968   6.620  12.175  0.00  0.00    +0.000 A 
ATOM     23  N   UNL     1      45.857   6.795  13.171  0.00  0.00    +0.000 NA
ATOM     24  C   UNL     1      46.280   5.607  13.630  0.00  0.00    +0.000 A 
ATOM     25  N   UNL     1      47.176   5.391  14.636  0.00  0.00    +0.000 N 
ATOM     26  C   UNL     1      47.326   4.036  14.767  0.00  0.00    +0.000 A 
ATOM     27  N   UNL     1      46.581   3.372  13.911  0.00  0.00    +0.000 NA
ATOM     28  C   UNL     1      45.907   4.348  13.199  0.00  0.00    +0.000 A 
ATOM     29  H   UNL     1      47.633   6.109  15.177  0.00  0.00    +0.000 HD
ENDBRANCH  18  20
ENDBRANCH  17  18
ENDBRANCH   4  17
TORSDOF 6
ENDMDL
MODEL 5
REMARK VINA RESULT:    -6.969      3.562      5.865
REMARK INTER + INTRA:         -10.430
REMARK INTER:                  -9.512
REMARK INTRA:                  -0.918
REMARK UNBOUND:                -1.017
REMARK  Name = 
REMARK  7 active torsions:
REMARK  status: ('A' for Active; 'I' for Inactive)
REMARK    1  A    between atoms: C_1  and  C_2
REMARK    2  A    between atoms: C_2  and  N_3
REMARK    3  A    between atoms: C_2  and  C_10
REMARK    4  A    between atoms: N_3  and  C_4
REMARK    5  A    between atoms: C_13  and  C_14
REMARK    6  A    between atoms: C_14  and  N_15
REMARK    7  A    between atoms: N_15  and  C_16
REMARK                            x       y       z     vdW  Elec       q    Type
REMARK                         _______ _______ _______ _____ _____    ______ ____
ROOT
ATOM      1  C   UNL     1      45.170   4.335  11.797  0.00  0.00    +0.000 A 
ATOM      2  C   UNL     1      44.956   5.616  11.261  0.00  0.00    +0.000 A 
ATOM      3  C   UNL     1      45.593   6.734  11.802  0.00  0.00    +0.000 A 
ATOM      4  C   UNL     1      46.466   6.600  12.889  0.00  0.00    +0.000 A 
ATOM      5  C   UNL     1      46.643   5.332  13.460  0.00  0.00    +0.000 A 
ATOM      6  C   UNL     1      46.017   4.211  12.911  0.00  0.00    +0.000 A 
ENDROOT
BRANCH   1   8
ATOM      7  C   UNL     1      43.239   2.795  11.764  0.00  0.00    +0.000 C 
ATOM      8  C   UNL     1      44.577   3.117  11.090  0.00  0.00    +0.000 C 
BRANCH   8   9
ATOM      9  N   UNL     1      44.410   3.386   9.653  0.00  0.00    +0.000 N 
ATOM     10  H   UNL     1      44.218   4.374   9.493  0.00  0.00    +0.000 HD
BRANCH   9  11
ATOM     11  C   UNL     1      45.383   2.945   8.740  0.00  0.00    +0.000 A 
ATOM     12  C   UNL     1      45.784   1.618   8.610  0.00  0.00    +0.000 A 
ATOM     13  C   UNL     1      46.718   1.278   7.641  0.00  0.00    +0.000 A 
ATOM     14  N   UNL     1      47.266   2.157   6.783  0.00  0.00    +0.000 NA
ATOM     15  C   UNL     1      46.835   3.427   6.883  0.00  0.00    +0.000 A 
ATOM     16  C   UNL     1      45.899   3.857   7.812  0.00  0.00    +0.000 A 
ENDBRANCH   9  11
ENDBRANCH   8   9
ENDBRANCH   1   8
BRANCH   4  17
ATOM     17  C   UNL     1      47.216   7.797  13.429  0.00  0.00    +0.000 C 
BRANCH  17  18
ATOM     18  N   UNL     1      46.339   8.946  13.478  0.00  0.00    +0.000 N 
ATOM     19  H   UNL     1      46.248   9.389  14.391  0.00  0.00    +0.000 HD
BRANCH  18  20
ATOM     20  C   UNL     1      46.569   9.910  12.491  0.00  0.00    +0.000 A 
ATOM     21  N   UNL     1      47.833  10.218  12.091  0.00  0.00    +0.000 NA
ATOM     22  C   UNL     1      48.002  11.128  11.104  0.00  0.00    +0.000 A 
ATOM     23  N   UNL     1      47.064  11.818  10.429  0.00  0.00    +0.000 NA
ATOM     24  C   UNL     1      45.839  11.488  10.866  0.00  0.00    +0.000 A 
ATOM     25  N   UNL     1      44.649  11.979  10.415  0.00  0.00    +0.000 N 
ATOM     26  C   UNL     1      43.656  11.381  11.142  0.00  0.00    +0.000 A 
ATOM     27  N   UNL     1      44.134  10.535  12.028  0.00  0.00    +0.000 NA
ATOM     28  C   UNL     1      45.506  10.582  11.856  0.00  0.00    +0.000 A 
ATOM     29  H   UNL     1      44.539  12.657   9.676  0.00  0.00    +0.000 HD
ENDBRANCH  18  20
ENDBRANCH  17  18
ENDBRANCH   4  17
TORSDOF 6
ENDMDL
MODEL 6
REMARK VINA RESULT:    -6.961      3.253      4.966
REMARK INTER + INTRA:         -10.420
REMARK INTER:                  -9.400
REMARK INTRA:                  -1.020
REMARK UNBOUND:                -1.017
REMARK  Name = 
REMARK  7 active torsions:
REMARK  status: ('A' for Active; 'I' for Inactive)
REMARK    1  A    between atoms: C_1  and  C_2
REMARK    2  A    between atoms: C_2  and  N_3
REMARK    3  A    between atoms: C_2  and  C_10
REMARK    4  A    between atoms: N_3  and  C_4
REMARK    5  A    between atoms: C_13  and  C_14
REMARK    6  A    between atoms: C_14  and  N_15
REMARK    7  A    between atoms: N_15  and  C_16
REMARK                            x       y       z     vdW  Elec       q    Type
REMARK                         _______ _______ _______ _____ _____    ______ ____
ROOT
ATOM      1  C   UNL     1      45.152   5.036  11.489  0.00  0.00    +0.000 A 
ATOM      2  C   UNL     1      45.686   4.472  12.659  0.00  0.00    +0.000 A 
ATOM      3  C   UNL     1      46.784   5.053  13.297  0.00  0.00    +0.000 A 
ATOM      4  C   UNL     1      47.371   6.217  12.785  0.00  0.00    +0.000 A 
ATOM      5  C   UNL     1      46.874   6.755  11.590  0.00  0.00    +0.000 A 
ATOM      6  C   UNL     1      45.768   6.182  10.959  0.00  0.00    +0.000 A 
ENDROOT
BRANCH   1   8
ATOM      7  C   UNL     1      42.698   5.313  11.419  0.00  0.00    +0.000 C 
ATOM      8  C   UNL     1      43.863   4.464  10.900  0.00  0.00    +0.000 C 
BRANCH   8   9
ATOM      9  N   UNL     1      43.923   4.466   9.429  0.00  0.00    +0.000 N 
ATOM     10  H   UNL     1      44.033   5.416   9.077  0.00  0.00    +0.000 HD
BRANCH   9  11
ATOM     11  C   UNL     1      44.820   3.614   8.764  0.00  0.00    +0.000 A 
ATOM     12  C   UNL     1      45.793   4.052   7.869  0.00  0.00    +0.000 A 
ATOM     13  C   UNL     1      46.665   3.133   7.303  0.00  0.00    +0.000 A 
ATOM     14  N   UNL     1      46.652   1.816   7.577  0.00  0.00    +0.000 NA
ATOM     15  C   UNL     1      45.742   1.409   8.480  0.00  0.00    +0.000 A 
ATOM     16  C   UNL     1      44.837   2.256   9.104  0.00  0.00    +0.000 A 
ENDBRANCH   9  11
ENDBRANCH   8   9
ENDBRANCH   1   8
BRANCH   4  17
ATOM     17  C   UNL     1      48.510   6.892  13.515  0.00  0.00    +0.000 C 
BRANCH  17  18
ATOM     18  N   UNL     1      49.688   6.914  12.676  0.00  0.00    +0.000 N 
ATOM     19  H   UNL     1      49.685   6.256  11.899  0.00  0.00    +0.000 HD
BRANCH  18  20
ATOM     20  C   UNL     1      50.078   8.184  12.237  0.00  0.00    +0.000 A 
ATOM     21  N   UNL     1      49.535   9.311  12.774  0.00  0.00    +0.000 NA
ATOM     22  C   UNL     1      49.974  10.517  12.344  0.00  0.00    +0.000 A 
ATOM     23  N   UNL     1      50.906  10.786  11.411  0.00  0.00    +0.000 NA
ATOM     24  C   UNL     1      51.402   9.647  10.906  0.00  0.00    +0.000 A 
ATOM     25  N   UNL     1      52.365   9.528   9.947  0.00  0.00    +0.000 N 
ATOM     26  C   UNL     1      52.559   8.191   9.724  0.00  0.00    +0.000 A 
ATOM     27  N   UNL     1      51.784   7.446  10.483  0.00  0.00    +0.000 NA
ATOM     28  C   UNL     1      51.061   8.349  11.241  0.00  0.00    +0.000 A 
ATOM     29  H   UNL     1      52.839  10.295   9.496  0.00  0.00    +0.000 HD
ENDBRANCH  18  20
ENDBRANCH  17  18
ENDBRANCH   4  17
TORSDOF 6
ENDMDL
MODEL 7
REMARK VINA RESULT:    -6.776      2.694      4.354
REMARK INTER + INTRA:         -10.169
REMARK INTER:                  -8.988
REMARK INTRA:                  -1.182
REMARK UNBOUND:                -1.017
REMARK  Name = 
REMARK  7 active torsions:
REMARK  status: ('A' for Active; 'I' for Inactive)
REMARK    1  A    between atoms: C_1  and  C_2
REMARK    2  A    between atoms: C_2  and  N_3
REMARK    3  A    between atoms: C_2  and  C_10
REMARK    4  A    between atoms: N_3  and  C_4
REMARK    5  A    between atoms: C_13  and  C_14
REMARK    6  A    between atoms: C_14  and  N_15
REMARK    7  A    between atoms: N_15  and  C_16
REMARK                            x       y       z     vdW  Elec       q    Type
REMARK                         _______ _______ _______ _____ _____    ______ ____
ROOT
ATOM      1  C   UNL     1      44.863   5.081  11.812  0.00  0.00    +0.000 A 
ATOM      2  C   UNL     1      45.549   4.232  12.696  0.00  0.00    +0.000 A 
ATOM      3  C   UNL     1      46.663   4.685  13.404  0.00  0.00    +0.000 A 
ATOM      4  C   UNL     1      47.117   6.000  13.252  0.00  0.00    +0.000 A 
ATOM      5  C   UNL     1      46.469   6.837  12.334  0.00  0.00    +0.000 A 
ATOM      6  C   UNL     1      45.346   6.389  11.635  0.00  0.00    +0.000 A 
ENDROOT
BRANCH   1   8
ATOM      7  C   UNL     1      42.430   5.492  11.692  0.00  0.00    +0.000 C 
ATOM      8  C   UNL     1      43.563   4.604  11.167  0.00  0.00    +0.000 C 
BRANCH   8   9
ATOM      9  N   UNL     1      43.664   4.664   9.700  0.00  0.00    +0.000 N 
ATOM     10  H   UNL     1      43.809   5.624   9.390  0.00  0.00    +0.000 HD
BRANCH   9  11
ATOM     11  C   UNL     1      44.555   3.815   9.024  0.00  0.00    +0.000 A 
ATOM     12  C   UNL     1      45.541   4.259   8.147  0.00  0.00    +0.000 A 
ATOM     13  C   UNL     1      46.406   3.341   7.568  0.00  0.00    +0.000 A 
ATOM     14  N   UNL     1      46.373   2.019   7.813  0.00  0.00    +0.000 NA
ATOM     15  C   UNL     1      45.451   1.605   8.700  0.00  0.00    +0.000 A 
ATOM     16  C   UNL     1      44.552   2.450   9.335  0.00  0.00    +0.000 A 
ENDBRANCH   9  11
ENDBRANCH   8   9
ENDBRANCH   1   8
BRANCH   4  17
ATOM     17  C   UNL     1      48.277   6.516  14.075  0.00  0.00    +0.000 C 
BRANCH  17  18
ATOM     18  N   UNL     1      49.367   6.899  13.205  0.00  0.00    +0.000 N 
ATOM     19  H   UNL     1      49.192   6.785  12.208  0.00  0.00    +0.000 HD
BRANCH  18  20
ATOM     20  C   UNL     1      49.915   8.160  13.461  0.00  0.00    +0.000 A 
ATOM     21  N   UNL     1      50.728   8.368  14.533  0.00  0.00    +0.000 NA
ATOM     22  C   UNL     1      51.267   9.595  14.716  0.00  0.00    +0.000 A 
ATOM     23  N   UNL     1      51.105  10.703  13.968  0.00  0.00    +0.000 NA
ATOM     24  C   UNL     1      50.290  10.450  12.933  0.00  0.00    +0.000 A 
ATOM     25  N   UNL     1      49.902  11.328  11.963  0.00  0.00    +0.000 N 
ATOM     26  C   UNL     1      49.063  10.657  11.114  0.00  0.00    +0.000 A 
ATOM     27  N   UNL     1      48.892   9.404  11.477  0.00  0.00    +0.000 NA
ATOM     28  C   UNL     1      49.669   9.257  12.612  0.00  0.00    +0.000 A 
ATOM     29  H   UNL     1      50.192  12.291  11.897  0.00  0.00    +0.000 HD
ENDBRANCH  18  20
ENDBRANCH  17  18
ENDBRANCH   4  17
TORSDOF 6
ENDMDL
MODEL 8
REMARK VINA RESULT:    -6.707      1.881      2.972
REMARK INTER + INTRA:         -10.077
REMARK INTER:                  -8.934
REMARK INTRA:                  -1.143
REMARK UNBOUND:                -1.017
REMARK  Name = 
REMARK  7 active torsions:
REMARK  status: ('A' for Active; 'I' for Inactive)
REMARK    1  A    between atoms: C_1  and  C_2
REMARK    2  A    between atoms: C_2  and  N_3
REMARK    3  A    between atoms: C_2  and  C_10
REMARK    4  A    between atoms: N_3  and  C_4
REMARK    5  A    between atoms: C_13  and  C_14
REMARK    6  A    between atoms: C_14  and  N_15
REMARK    7  A    between atoms: N_15  and  C_16
REMARK                            x       y       z     vdW  Elec       q    Type
REMARK                         _______ _______ _______ _____ _____    ______ ____
ROOT
ATOM      1  C   UNL     1      46.349   7.624  12.551  0.00  0.00    +0.000 A 
ATOM      2  C   UNL     1      47.364   6.659  12.449  0.00  0.00    +0.000 A 
ATOM      3  C   UNL     1      48.523   6.754  13.222  0.00  0.00    +0.000 A 
ATOM      4  C   UNL     1      48.694   7.814  14.121  0.00  0.00    +0.000 A 
ATOM      5  C   UNL     1      47.707   8.807  14.189  0.00  0.00    +0.000 A 
ATOM      6  C   UNL     1      46.542   8.705  13.427  0.00  0.00    +0.000 A 
ENDROOT
BRANCH   1   8
ATOM      7  C   UNL     1      44.558   8.778  11.301  0.00  0.00    +0.000 C 
ATOM      8  C   UNL     1      45.032   7.411  11.805  0.00  0.00    +0.000 C 
BRANCH   8   9
ATOM      9  N   UNL     1      45.216   6.459  10.697  0.00  0.00    +0.000 N 
ATOM     10  H   UNL     1      46.200   6.399  10.436  0.00  0.00    +0.000 HD
BRANCH   9  11
ATOM     11  C   UNL     1      44.677   5.165  10.789  0.00  0.00    +0.000 A 
ATOM     12  C   UNL     1      43.771   4.767  11.770  0.00  0.00    +0.000 A 
ATOM     13  C   UNL     1      43.258   3.478  11.743  0.00  0.00    +0.000 A 
ATOM     14  N   UNL     1      43.564   2.565  10.803  0.00  0.00    +0.000 NA
ATOM     15  C   UNL     1      44.400   2.975   9.832  0.00  0.00    +0.000 A 
ATOM     16  C   UNL     1      44.954   4.245   9.771  0.00  0.00    +0.000 A 
ENDBRANCH   9  11
ENDBRANCH   8   9
ENDBRANCH   1   8
BRANCH   4  17
ATOM     17  C   UNL     1      49.912   7.879  15.014  0.00  0.00    +0.000 C 
BRANCH  17  18
ATOM     18  N   UNL     1      50.070   6.629  15.724  0.00  0.00    +0.000 N 
ATOM     19  H   UNL     1      51.021   6.404  16.008  0.00  0.00    +0.000 HD
BRANCH  18  20
ATOM     20  C   UNL     1      49.185   6.438  16.790  0.00  0.00    +0.000 A 
ATOM     21  N   UNL     1      48.930   7.437  17.680  0.00  0.00    +0.000 NA
ATOM     22  C   UNL     1      48.036   7.217  18.672  0.00  0.00    +0.000 A 
ATOM     23  N   UNL     1      47.332   6.100  18.933  0.00  0.00    +0.000 NA
ATOM     24  C   UNL     1      47.625   5.144  18.039  0.00  0.00    +0.000 A 
ATOM     25  N   UNL     1      47.103   3.886  17.985  0.00  0.00    +0.000 N 
ATOM     26  C   UNL     1      47.685   3.244  16.925  0.00  0.00    +0.000 A 
ATOM     27  N   UNL     1      48.545   4.014  16.294  0.00  0.00    +0.000 NA
ATOM     28  C   UNL     1      48.507   5.217  16.976  0.00  0.00    +0.000 A 
ATOM     29  H   UNL     1      46.412   3.512  18.618  0.00  0.00    +0.000 HD
ENDBRANCH  18  20
ENDBRANCH  17  18
ENDBRANCH   4  17
TORSDOF 6
ENDMDL
MODEL 9
REMARK VINA RESULT:    -6.612      3.101      4.624
REMARK INTER + INTRA:          -9.948
REMARK INTER:                  -8.899
REMARK INTRA:                  -1.050
REMARK UNBOUND:                -1.017
REMARK  Name = 
REMARK  7 active torsions:
REMARK  status: ('A' for Active; 'I' for Inactive)
REMARK    1  A    between atoms: C_1  and  C_2
REMARK    2  A    between atoms: C_2  and  N_3
REMARK    3  A    between atoms: C_2  and  C_10
REMARK    4  A    between atoms: N_3  and  C_4
REMARK    5  A    between atoms: C_13  and  C_14
REMARK    6  A    between atoms: C_14  and  N_15
REMARK    7  A    between atoms: N_15  and  C_16
REMARK                            x       y       z     vdW  Elec       q    Type
REMARK                         _______ _______ _______ _____ _____    ______ ____
ROOT
ATOM      1  C   UNL     1      44.993   5.319  11.829  0.00  0.00    +0.000 A 
ATOM      2  C   UNL     1      45.666   6.398  11.233  0.00  0.00    +0.000 A 
ATOM      3  C   UNL     1      46.854   6.890  11.777  0.00  0.00    +0.000 A 
ATOM      4  C   UNL     1      47.403   6.312  12.928  0.00  0.00    +0.000 A 
ATOM      5  C   UNL     1      46.710   5.269  13.556  0.00  0.00    +0.000 A 
ATOM      6  C   UNL     1      45.529   4.767  13.005  0.00  0.00    +0.000 A 
ENDROOT
BRANCH   1   8
ATOM      7  C   UNL     1      42.536   5.455  11.619  0.00  0.00    +0.000 C 
ATOM      8  C   UNL     1      43.781   4.709  11.128  0.00  0.00    +0.000 C 
BRANCH   8   9
ATOM      9  N   UNL     1      43.929   4.806   9.667  0.00  0.00    +0.000 N 
ATOM     10  H   UNL     1      44.180   5.755   9.394  0.00  0.00    +0.000 HD
BRANCH   9  11
ATOM     11  C   UNL     1      44.749   3.891   8.984  0.00  0.00    +0.000 A 
ATOM     12  C   UNL     1      45.732   4.259   8.069  0.00  0.00    +0.000 A 
ATOM     13  C   UNL     1      46.524   3.279   7.486  0.00  0.00    +0.000 A 
ATOM     14  N   UNL     1      46.421   1.966   7.762  0.00  0.00    +0.000 NA
ATOM     15  C   UNL     1      45.503   1.626   8.684  0.00  0.00    +0.000 A 
ATOM     16  C   UNL     1      44.675   2.536   9.326  0.00  0.00    +0.000 A 
ENDBRANCH   9  11
ENDBRANCH   8   9
ENDBRANCH   1   8
BRANCH   4  17
ATOM     17  C   UNL     1      48.728   6.793  13.476  0.00  0.00    +0.000 C 
BRANCH  17  18
ATOM     18  N   UNL     1      49.072   8.068  12.885  0.00  0.00    +0.000 N 
ATOM     19  H   UNL     1      48.929   8.880  13.482  0.00  0.00    +0.000 HD
BRANCH  18  20
ATOM     20  C   UNL     1      50.334   8.121  12.284  0.00  0.00    +0.000 A 
ATOM     21  N   UNL     1      50.576   7.492  11.101  0.00  0.00    +0.000 NA
ATOM     22  C   UNL     1      51.802   7.607  10.539  0.00  0.00    +0.000 A 
ATOM     23  N   UNL     1      52.877   8.273  11.000  0.00  0.00    +0.000 NA
ATOM     24  C   UNL     1      52.592   8.865  12.169  0.00  0.00    +0.000 A 
ATOM     25  N   UNL     1      53.432   9.628  12.927  0.00  0.00    +0.000 N 
ATOM     26  C   UNL     1      52.738  10.021  14.040  0.00  0.00    +0.000 A 
ATOM     27  N   UNL     1      51.505   9.561  14.041  0.00  0.00    +0.000 NA
ATOM     28  C   UNL     1      51.396   8.843  12.863  0.00  0.00    +0.000 A 
ATOM     29  H   UNL     1      54.386   9.854  12.694  0.00  0.00    +0.000 HD
ENDBRANCH  18  20
ENDBRANCH  17  18
ENDBRANCH   4  17
TORSDOF 6
ENDMDL
