MODEL 1
REMARK VINA RESULT:    -8.086      0.000      0.000
REMARK INTER + INTRA:         -11.728
REMARK INTER:                 -10.922
REMARK INTRA:                  -0.806
REMARK UNBOUND:                -0.806
REMARK  Name = 
REMARK  7 active torsions:
REMARK  status: ('A' for Active; 'I' for Inactive)
REMARK    1  A    between atoms: C_1  and  C_2
REMARK    2  A    between atoms: C_2  and  C_3
REMARK    3  A    between atoms: C_2  and  C_14
REMARK    4  A    between atoms: C_3  and  N_4
REMARK    5  A    between atoms: C_8  and  C_9
REMARK    6  A    between atoms: C_18  and  O_19
REMARK    7  A    between atoms: O_19  and  C_20
REMARK                            x       y       z     vdW  Elec       q    Type
REMARK                         _______ _______ _______ _____ _____    ______ ____
ROOT
ATOM      1  C   UNL     1      43.658   4.445  10.834  0.00  0.00    +0.000 C 
ENDROOT
BRANCH   1   2
ATOM      2  N   UNL     1      43.979   3.051  10.531  0.00  0.00    +0.000 N 
ATOM      3  C   UNL     1      44.836   2.930   9.419  0.00  0.00    +0.000 A 
ATOM      4  C   UNL     1      45.194   1.656   8.978  0.00  0.00    +0.000 A 
ATOM      5  C   UNL     1      46.053   1.522   7.880  0.00  0.00    +0.000 A 
ATOM      6  C   UNL     1      46.542   2.661   7.243  0.00  0.00    +0.000 A 
ATOM      7  C   UNL     1      46.147   3.884   7.754  0.00  0.00    +0.000 A 
ATOM      8  N   UNL     1      45.319   4.035   8.816  0.00  0.00    +0.000 NA
ATOM      9  H   UNL     1      43.149   2.498  10.344  0.00  0.00    +0.000 HD
BRANCH   6  10
ATOM     10  C   UNL     1      47.443   2.525   6.072  0.00  0.00    +0.000 C 
ATOM     11  N   UNL     1      48.797   2.516   6.266  0.00  0.00    +0.000 N 
ATOM     12  O   UNL     1      46.990   2.411   4.938  0.00  0.00    +0.000 OA
ATOM     13  H   UNL     1      49.275   2.612   7.147  0.00  0.00    +0.000 HD
ATOM     14  H   UNL     1      49.370   2.428   5.436  0.00  0.00    +0.000 HD
ENDBRANCH   6  10
ENDBRANCH   1   2
BRANCH   1  16
ATOM     15  C   UNL     1      42.947   5.080  13.243  0.00  0.00    +0.000 C 
ATOM     16  C   UNL     1      44.034   4.780  12.253  0.00  0.00    +0.000 C 
BRANCH  16  17
ATOM     17  C   UNL     1      45.374   5.364  12.496  0.00  0.00    +0.000 A 
ATOM     18  C   UNL     1      45.943   6.281  11.607  0.00  0.00    +0.000 A 
ATOM     19  C   UNL     1      47.222   6.801  11.840  0.00  0.00    +0.000 A 
ATOM     20  C   UNL     1      47.953   6.415  12.969  0.00  0.00    +0.000 A 
ATOM     21  C   UNL     1      47.392   5.514  13.865  0.00  0.00    +0.000 A 
ATOM     22  C   UNL     1      46.113   5.003  13.632  0.00  0.00    +0.000 A 
BRANCH  21  23
ATOM     23  O   UNL     1      47.976   5.092  15.031  0.00  0.00    +0.000 OA
BRANCH  23  24
ATOM     24  C   UNL     1      47.236   4.217  15.910  0.00  0.00    +0.000 C 
ATOM     25  C   UNL     1      47.209   4.539  17.410  0.00  0.00    +0.000 C 
ATOM     26  O   UNL     1      47.779   3.253  17.752  0.00  0.00    +0.000 OA
ATOM     27  C   UNL     1      48.001   2.961  16.353  0.00  0.00    +0.000 C 
ENDBRANCH  23  24
ENDBRANCH  21  23
ENDBRANCH  16  17
ENDBRANCH   1  16
TORSDOF 6
ENDMDL
MODEL 2
REMARK VINA RESULT:    -7.277      2.197      3.587
REMARK INTER + INTRA:         -10.636
REMARK INTER:                  -9.881
REMARK INTRA:                  -0.755
REMARK UNBOUND:                -0.806
REMARK  Name = 
REMARK  7 active torsions:
REMARK  status: ('A' for Active; 'I' for Inactive)
REMARK    1  A    between atoms: C_1  and  C_2
REMARK    2  A    between atoms: C_2  and  C_3
REMARK    3  A    between atoms: C_2  and  C_14
REMARK    4  A    between atoms: C_3  and  N_4
REMARK    5  A    between atoms: C_8  and  C_9
REMARK    6  A    between atoms: C_18  and  O_19
REMARK    7  A    between atoms: O_19  and  C_20
REMARK                            x       y       z     vdW  Elec       q    Type
REMARK                         _______ _______ _______ _____ _____    ______ ____
ROOT
ATOM      1  C   UNL     1      43.654   4.463  10.073  0.00  0.00    +0.000 C 
ENDROOT
BRANCH   1   2
ATOM      2  N   UNL     1      44.105   3.073  10.070  0.00  0.00    +0.000 N 
ATOM      3  C   UNL     1      44.991   2.801   9.009  0.00  0.00    +0.000 A 
ATOM      4  C   UNL     1      45.472   1.502   8.845  0.00  0.00    +0.000 A 
ATOM      5  C   UNL     1      46.362   1.221   7.800  0.00  0.00    +0.000 A 
ATOM      6  C   UNL     1      46.757   2.242   6.938  0.00  0.00    +0.000 A 
ATOM      7  C   UNL     1      46.243   3.503   7.181  0.00  0.00    +0.000 A 
ATOM      8  N   UNL     1      45.384   3.795   8.187  0.00  0.00    +0.000 NA
ATOM      9  H   UNL     1      43.333   2.418  10.004  0.00  0.00    +0.000 HD
BRANCH   6  10
ATOM     10  C   UNL     1      47.689   1.948   5.822  0.00  0.00    +0.000 C 
ATOM     11  N   UNL     1      48.109   2.967   5.013  0.00  0.00    +0.000 N 
ATOM     12  O   UNL     1      48.094   0.807   5.622  0.00  0.00    +0.000 OA
ATOM     13  H   UNL     1      47.834   3.934   5.079  0.00  0.00    +0.000 HD
ATOM     14  H   UNL     1      48.739   2.716   4.260  0.00  0.00    +0.000 HD
ENDBRANCH   6  10
ENDBRANCH   1   2
BRANCH   1  16
ATOM     15  C   UNL     1      42.434   5.805  11.924  0.00  0.00    +0.000 C 
ATOM     16  C   UNL     1      43.626   5.009  11.476  0.00  0.00    +0.000 C 
BRANCH  16  17
ATOM     17  C   UNL     1      44.921   5.263  12.148  0.00  0.00    +0.000 A 
ATOM     18  C   UNL     1      45.289   4.575  13.309  0.00  0.00    +0.000 A 
ATOM     19  C   UNL     1      46.506   4.849  13.946  0.00  0.00    +0.000 A 
ATOM     20  C   UNL     1      47.377   5.813  13.430  0.00  0.00    +0.000 A 
ATOM     21  C   UNL     1      47.028   6.495  12.270  0.00  0.00    +0.000 A 
ATOM     22  C   UNL     1      45.816   6.213  11.635  0.00  0.00    +0.000 A 
BRANCH  21  23
ATOM     23  O   UNL     1      47.808   7.424  11.635  0.00  0.00    +0.000 OA
BRANCH  23  24
ATOM     24  C   UNL     1      48.051   8.694  12.279  0.00  0.00    +0.000 C 
ATOM     25  C   UNL     1      47.029   9.822  12.081  0.00  0.00    +0.000 C 
ATOM     26  O   UNL     1      48.031  10.705  11.521  0.00  0.00    +0.000 OA
ATOM     27  C   UNL     1      48.997   9.629  11.510  0.00  0.00    +0.000 C 
ENDBRANCH  23  24
ENDBRANCH  21  23
ENDBRANCH  16  17
ENDBRANCH   1  16
TORSDOF 6
ENDMDL
MODEL 3
REMARK VINA RESULT:    -7.069      2.932      4.435
REMARK INTER + INTRA:         -10.354
REMARK INTER:                  -9.653
REMARK INTRA:                  -0.701
REMARK UNBOUND:                -0.806
REMARK  Name = 
REMARK  7 active torsions:
REMARK  status: ('A' for Active; 'I' for Inactive)
REMARK    1  A    between atoms: C_1  and  C_2
REMARK    2  A    between atoms: C_2  and  C_3
REMARK    3  A    between atoms: C_2  and  C_14
REMARK    4  A    between atoms: C_3  and  N_4
REMARK    5  A    between atoms: C_8  and  C_9
REMARK    6  A    between atoms: C_18  and  O_19
REMARK    7  A    between atoms: O_19  and  C_20
REMARK                            x       y       z     vdW  Elec       q    Type
REMARK                         _______ _______ _______ _____ _____    ______ ____
ROOT
ATOM      1  C   UNL     1      43.592   4.694  10.509  0.00  0.00    +0.000 C 
ENDROOT
BRANCH   1   2
ATOM      2  N   UNL     1      43.909   3.275  10.358  0.00  0.00    +0.000 N 
ATOM      3  C   UNL     1      44.789   3.036   9.283  0.00  0.00    +0.000 A 
ATOM      4  C   UNL     1      45.148   1.722   8.983  0.00  0.00    +0.000 A 
ATOM      5  C   UNL     1      46.029   1.473   7.923  0.00  0.00    +0.000 A 
ATOM      6  C   UNL     1      46.538   2.538   7.183  0.00  0.00    +0.000 A 
ATOM      7  C   UNL     1      46.141   3.809   7.558  0.00  0.00    +0.000 A 
ATOM      8  N   UNL     1      45.292   4.071   8.581  0.00  0.00    +0.000 NA
ATOM      9  H   UNL     1      43.080   2.708  10.211  0.00  0.00    +0.000 HD
BRANCH   6  10
ATOM     10  C   UNL     1      47.463   2.279   6.052  0.00  0.00    +0.000 C 
ATOM     11  N   UNL     1      48.807   2.452   6.232  0.00  0.00    +0.000 N 
ATOM     12  O   UNL     1      47.039   1.903   4.964  0.00  0.00    +0.000 OA
ATOM     13  H   UNL     1      49.262   2.765   7.075  0.00  0.00    +0.000 HD
ATOM     14  H   UNL     1      49.397   2.270   5.429  0.00  0.00    +0.000 HD
ENDBRANCH   6  10
ENDBRANCH   1   2
BRANCH   1  16
ATOM     15  C   UNL     1      42.956   5.152  12.979  0.00  0.00    +0.000 C 
ATOM     16  C   UNL     1      43.979   5.181  11.881  0.00  0.00    +0.000 C 
BRANCH  16  17
ATOM     17  C   UNL     1      45.076   6.170  11.981  0.00  0.00    +0.000 A 
ATOM     18  C   UNL     1      46.418   5.786  11.880  0.00  0.00    +0.000 A 
ATOM     19  C   UNL     1      47.442   6.733  12.005  0.00  0.00    +0.000 A 
ATOM     20  C   UNL     1      47.142   8.080  12.231  0.00  0.00    +0.000 A 
ATOM     21  C   UNL     1      45.813   8.475  12.322  0.00  0.00    +0.000 A 
ATOM     22  C   UNL     1      44.795   7.529  12.189  0.00  0.00    +0.000 A 
BRANCH  21  23
ATOM     23  O   UNL     1      45.382   9.765  12.491  0.00  0.00    +0.000 OA
BRANCH  23  24
ATOM     24  C   UNL     1      45.650  10.735  11.456  0.00  0.00    +0.000 C 
ATOM     25  C   UNL     1      46.443  11.997  11.823  0.00  0.00    +0.000 C 
ATOM     26  O   UNL     1      45.368  12.864  11.388  0.00  0.00    +0.000 OA
ATOM     27  C   UNL     1      44.503  11.722  11.193  0.00  0.00    +0.000 C 
ENDBRANCH  23  24
ENDBRANCH  21  23
ENDBRANCH  16  17
ENDBRANCH   1  16
TORSDOF 6
ENDMDL
MODEL 4
REMARK VINA RESULT:    -6.888      3.979      5.530
REMARK INTER + INTRA:         -10.110
REMARK INTER:                  -9.580
REMARK INTRA:                  -0.530
REMARK UNBOUND:                -0.806
REMARK  Name = 
REMARK  7 active torsions:
REMARK  status: ('A' for Active; 'I' for Inactive)
REMARK    1  A    between atoms: C_1  and  C_2
REMARK    2  A    between atoms: C_2  and  C_3
REMARK    3  A    between atoms: C_2  and  C_14
REMARK    4  A    between atoms: C_3  and  N_4
REMARK    5  A    between atoms: C_8  and  C_9
REMARK    6  A    between atoms: C_18  and  O_19
REMARK    7  A    between atoms: O_19  and  C_20
REMARK                            x       y       z     vdW  Elec       q    Type
REMARK                         _______ _______ _______ _____ _____    ______ ____
ROOT
ATOM      1  C   UNL     1      43.592   5.041  10.753  0.00  0.00    +0.000 C 
ENDROOT
BRANCH   1   2
ATOM      2  N   UNL     1      43.822   3.608  10.573  0.00  0.00    +0.000 N 
ATOM      3  C   UNL     1      44.747   3.341   9.544  0.00  0.00    +0.000 A 
ATOM      4  C   UNL     1      45.035   2.015   9.221  0.00  0.00    +0.000 A 
ATOM      5  C   UNL     1      45.961   1.737   8.207  0.00  0.00    +0.000 A 
ATOM      6  C   UNL     1      46.584   2.786   7.535  0.00  0.00    +0.000 A 
ATOM      7  C   UNL     1      46.251   4.069   7.928  0.00  0.00    +0.000 A 
ATOM      8  N   UNL     1      45.361   4.359   8.907  0.00  0.00    +0.000 NA
ATOM      9  H   UNL     1      42.968   3.105  10.358  0.00  0.00    +0.000 HD
BRANCH   6  10
ATOM     10  C   UNL     1      47.556   2.497   6.452  0.00  0.00    +0.000 C 
ATOM     11  N   UNL     1      47.382   3.074   5.225  0.00  0.00    +0.000 N 
ATOM     12  O   UNL     1      48.515   1.757   6.645  0.00  0.00    +0.000 OA
ATOM     13  H   UNL     1      46.630   3.686   4.953  0.00  0.00    +0.000 HD
ATOM     14  H   UNL     1      48.067   2.841   4.515  0.00  0.00    +0.000 HD
ENDBRANCH   6  10
ENDBRANCH   1   2
BRANCH   1  16
ATOM     15  C   UNL     1      44.691   4.809  13.088  0.00  0.00    +0.000 C 
ATOM     16  C   UNL     1      44.497   5.593  11.822  0.00  0.00    +0.000 C 
BRANCH  16  17
ATOM     17  C   UNL     1      44.686   7.061  11.881  0.00  0.00    +0.000 A 
ATOM     18  C   UNL     1      45.609   7.643  12.756  0.00  0.00    +0.000 A 
ATOM     19  C   UNL     1      45.754   9.035  12.817  0.00  0.00    +0.000 A 
ATOM     20  C   UNL     1      44.980   9.867  12.002  0.00  0.00    +0.000 A 
ATOM     21  C   UNL     1      44.068   9.299  11.121  0.00  0.00    +0.000 A 
ATOM     22  C   UNL     1      43.932   7.911  11.059  0.00  0.00    +0.000 A 
BRANCH  21  23
ATOM     23  O   UNL     1      43.286   9.994  10.236  0.00  0.00    +0.000 OA
BRANCH  23  24
ATOM     24  C   UNL     1      42.224  10.830  10.745  0.00  0.00    +0.000 C 
ATOM     25  C   UNL     1      40.790  10.285  10.723  0.00  0.00    +0.000 C 
ATOM     26  O   UNL     1      40.325  11.389   9.911  0.00  0.00    +0.000 OA
ATOM     27  C   UNL     1      41.682  11.857   9.740  0.00  0.00    +0.000 C 
ENDBRANCH  23  24
ENDBRANCH  21  23
ENDBRANCH  16  17
ENDBRANCH   1  16
TORSDOF 6
ENDMDL
MODEL 5
REMARK VINA RESULT:    -6.750      3.238      8.363
REMARK INTER + INTRA:          -9.924
REMARK INTER:                  -9.500
REMARK INTRA:                  -0.424
REMARK UNBOUND:                -0.806
REMARK  Name = 
REMARK  7 active torsions:
REMARK  status: ('A' for Active; 'I' for Inactive)
REMARK    1  A    between atoms: C_1  and  C_2
REMARK    2  A    between atoms: C_2  and  C_3
REMARK    3  A    between atoms: C_2  and  C_14
REMARK    4  A    between atoms: C_3  and  N_4
REMARK    5  A    between atoms: C_8  and  C_9
REMARK    6  A    between atoms: C_18  and  O_19
REMARK    7  A    between atoms: O_19  and  C_20
REMARK                            x       y       z     vdW  Elec       q    Type
REMARK                         _______ _______ _______ _____ _____    ______ ____
ROOT
ATOM      1  C   UNL     1      47.347   5.755  13.191  0.00  0.00    +0.000 C 
ENDROOT
BRANCH   1   2
ATOM      2  N   UNL     1      46.746   4.736  14.050  0.00  0.00    +0.000 N 
ATOM      3  C   UNL     1      47.362   4.673  15.316  0.00  0.00    +0.000 A 
ATOM      4  C   UNL     1      46.928   3.714  16.231  0.00  0.00    +0.000 A 
ATOM      5  C   UNL     1      47.525   3.649  17.497  0.00  0.00    +0.000 A 
ATOM      6  C   UNL     1      48.543   4.542  17.827  0.00  0.00    +0.000 A 
ATOM      7  C   UNL     1      48.901   5.469  16.865  0.00  0.00    +0.000 A 
ATOM      8  N   UNL     1      48.334   5.550  15.637  0.00  0.00    +0.000 NA
ATOM      9  H   UNL     1      46.792   3.810  13.638  0.00  0.00    +0.000 HD
BRANCH   6  10
ATOM     10  C   UNL     1      49.187   4.469  19.161  0.00  0.00    +0.000 C 
ATOM     11  N   UNL     1      48.613   3.706  20.141  0.00  0.00    +0.000 N 
ATOM     12  O   UNL     1      50.229   5.073  19.394  0.00  0.00    +0.000 OA
ATOM     13  H   UNL     1      47.758   3.179  20.064  0.00  0.00    +0.000 HD
ATOM     14  H   UNL     1      49.085   3.693  21.037  0.00  0.00    +0.000 HD
ENDBRANCH   6  10
ENDBRANCH   1   2
BRANCH   1  16
ATOM     15  C   UNL     1      45.686   7.731  12.961  0.00  0.00    +0.000 C 
ATOM     16  C   UNL     1      46.287   6.475  12.400  0.00  0.00    +0.000 C 
BRANCH  16  17
ATOM     17  C   UNL     1      45.473   5.682  11.450  0.00  0.00    +0.000 A 
ATOM     18  C   UNL     1      44.247   5.125  11.828  0.00  0.00    +0.000 A 
ATOM     19  C   UNL     1      43.504   4.355  10.924  0.00  0.00    +0.000 A 
ATOM     20  C   UNL     1      43.974   4.133   9.625  0.00  0.00    +0.000 A 
ATOM     21  C   UNL     1      45.185   4.691   9.235  0.00  0.00    +0.000 A 
ATOM     22  C   UNL     1      45.919   5.464  10.139  0.00  0.00    +0.000 A 
BRANCH  21  23
ATOM     23  O   UNL     1      45.735   4.592   7.984  0.00  0.00    +0.000 OA
BRANCH  23  24
ATOM     24  C   UNL     1      45.748   3.308   7.323  0.00  0.00    +0.000 C 
ATOM     25  C   UNL     1      46.310   2.100   8.084  0.00  0.00    +0.000 C 
ATOM     26  O   UNL     1      47.307   1.853   7.065  0.00  0.00    +0.000 OA
ATOM     27  C   UNL     1      46.948   3.081   6.393  0.00  0.00    +0.000 C 
ENDBRANCH  23  24
ENDBRANCH  21  23
ENDBRANCH  16  17
ENDBRANCH   1  16
TORSDOF 6
ENDMDL
MODEL 6
REMARK VINA RESULT:    -6.724      2.945      7.730
REMARK INTER + INTRA:          -9.889
REMARK INTER:                  -9.211
REMARK INTRA:                  -0.678
REMARK UNBOUND:                -0.806
REMARK  Name = 
REMARK  7 active torsions:
REMARK  status: ('A' for Active; 'I' for Inactive)
REMARK    1  A    between atoms: C_1  and  C_2
REMARK    2  A    between atoms: C_2  and  C_3
REMARK    3  A    between atoms: C_2  and  C_14
REMARK    4  A    between atoms: C_3  and  N_4
REMARK    5  A    between atoms: C_8  and  C_9
REMARK    6  A    between atoms: C_18  and  O_19
REMARK    7  A    between atoms: O_19  and  C_20
REMARK                            x       y       z     vdW  Elec       q    Type
REMARK                         _______ _______ _______ _____ _____    ______ ____
ROOT
ATOM      1  C   UNL     1      47.645   6.800  12.172  0.00  0.00    +0.000 C 
ENDROOT
BRANCH   1   2
ATOM      2  N   UNL     1      48.275   7.292  13.396  0.00  0.00    +0.000 N 
ATOM      3  C   UNL     1      48.162   6.376  14.461  0.00  0.00    +0.000 A 
ATOM      4  C   UNL     1      48.674   6.725  15.710  0.00  0.00    +0.000 A 
ATOM      5  C   UNL     1      48.577   5.819  16.774  0.00  0.00    +0.000 A 
ATOM      6  C   UNL     1      47.973   4.579  16.572  0.00  0.00    +0.000 A 
ATOM      7  C   UNL     1      47.505   4.310  15.298  0.00  0.00    +0.000 A 
ATOM      8  N   UNL     1      47.591   5.172  14.257  0.00  0.00    +0.000 NA
ATOM      9  H   UNL     1      47.879   8.175  13.705  0.00  0.00    +0.000 HD
BRANCH   6  10
ATOM     10  C   UNL     1      47.856   3.621  17.698  0.00  0.00    +0.000 C 
ATOM     11  N   UNL     1      46.831   2.715  17.703  0.00  0.00    +0.000 N 
ATOM     12  O   UNL     1      48.670   3.623  18.616  0.00  0.00    +0.000 OA
ATOM     13  H   UNL     1      46.105   2.631  17.010  0.00  0.00    +0.000 HD
ATOM     14  H   UNL     1      46.789   2.087  18.497  0.00  0.00    +0.000 HD
ENDBRANCH   6  10
ENDBRANCH   1   2
BRANCH   1  16
ATOM     15  C   UNL     1      45.818   8.498  12.875  0.00  0.00    +0.000 C 
ATOM     16  C   UNL     1      46.230   7.303  12.065  0.00  0.00    +0.000 C 
BRANCH  16  17
ATOM     17  C   UNL     1      45.178   6.337  11.671  0.00  0.00    +0.000 A 
ATOM     18  C   UNL     1      43.821   6.674  11.723  0.00  0.00    +0.000 A 
ATOM     19  C   UNL     1      42.840   5.739  11.373  0.00  0.00    +0.000 A 
ATOM     20  C   UNL     1      43.199   4.451  10.963  0.00  0.00    +0.000 A 
ATOM     21  C   UNL     1      44.544   4.108  10.896  0.00  0.00    +0.000 A 
ATOM     22  C   UNL     1      45.519   5.047  11.239  0.00  0.00    +0.000 A 
BRANCH  21  23
ATOM     23  O   UNL     1      45.033   2.903  10.465  0.00  0.00    +0.000 OA
BRANCH  23  24
ATOM     24  C   UNL     1      44.847   2.524   9.084  0.00  0.00    +0.000 C 
ATOM     25  C   UNL     1      45.899   1.623   8.424  0.00  0.00    +0.000 C 
ATOM     26  O   UNL     1      46.170   2.602   7.393  0.00  0.00    +0.000 OA
ATOM     27  C   UNL     1      45.330   3.567   8.066  0.00  0.00    +0.000 C 
ENDBRANCH  23  24
ENDBRANCH  21  23
ENDBRANCH  16  17
ENDBRANCH   1  16
TORSDOF 6
ENDMDL
MODEL 7
REMARK VINA RESULT:    -6.228      3.331      5.251
REMARK INTER + INTRA:          -9.219
REMARK INTER:                  -8.284
REMARK INTRA:                  -0.934
REMARK UNBOUND:                -0.806
REMARK  Name = 
REMARK  7 active torsions:
REMARK  status: ('A' for Active; 'I' for Inactive)
REMARK    1  A    between atoms: C_1  and  C_2
REMARK    2  A    between atoms: C_2  and  C_3
REMARK    3  A    between atoms: C_2  and  C_14
REMARK    4  A    between atoms: C_3  and  N_4
REMARK    5  A    between atoms: C_8  and  C_9
REMARK    6  A    between atoms: C_18  and  O_19
REMARK    7  A    between atoms: O_19  and  C_20
REMARK                            x       y       z     vdW  Elec       q    Type
REMARK                         _______ _______ _______ _____ _____    ______ ____
ROOT
ATOM      1  C   UNL     1      47.505   8.355  13.527  0.00  0.00    +0.000 C 
ENDROOT
BRANCH   1   2
ATOM      2  N   UNL     1      46.948   8.100  12.199  0.00  0.00    +0.000 N 
ATOM      3  C   UNL     1      46.270   6.867  12.133  0.00  0.00    +0.000 A 
ATOM      4  C   UNL     1      45.724   6.461  10.915  0.00  0.00    +0.000 A 
ATOM      5  C   UNL     1      45.037   5.242  10.839  0.00  0.00    +0.000 A 
ATOM      6  C   UNL     1      44.906   4.451  11.978  0.00  0.00    +0.000 A 
ATOM      7  C   UNL     1      45.466   4.936  13.146  0.00  0.00    +0.000 A 
ATOM      8  N   UNL     1      46.131   6.113  13.242  0.00  0.00    +0.000 NA
ATOM      9  H   UNL     1      47.661   8.100  11.477  0.00  0.00    +0.000 HD
BRANCH   6  10
ATOM     10  C   UNL     1      44.191   3.154  11.900  0.00  0.00    +0.000 C 
ATOM     11  N   UNL     1      44.179   2.466  10.718  0.00  0.00    +0.000 N 
ATOM     12  O   UNL     1      43.621   2.687  12.880  0.00  0.00    +0.000 OA
ATOM     13  H   UNL     1      44.604   2.759   9.852  0.00  0.00    +0.000 HD
ATOM     14  H   UNL     1      43.672   1.589  10.711  0.00  0.00    +0.000 HD
ENDBRANCH   6  10
ENDBRANCH   1   2
BRANCH   1  16
ATOM     15  C   UNL     1      49.704   8.400  12.156  0.00  0.00    +0.000 C 
ATOM     16  C   UNL     1      49.010   8.324  13.485  0.00  0.00    +0.000 C 
BRANCH  16  17
ATOM     17  C   UNL     1      49.722   7.659  14.601  0.00  0.00    +0.000 A 
ATOM     18  C   UNL     1      51.101   7.809  14.781  0.00  0.00    +0.000 A 
ATOM     19  C   UNL     1      51.760   7.150  15.826  0.00  0.00    +0.000 A 
ATOM     20  C   UNL     1      51.051   6.331  16.710  0.00  0.00    +0.000 A 
ATOM     21  C   UNL     1      49.679   6.183  16.548  0.00  0.00    +0.000 A 
ATOM     22  C   UNL     1      49.025   6.848  15.509  0.00  0.00    +0.000 A 
BRANCH  21  23
ATOM     23  O   UNL     1      48.861   5.453  17.370  0.00  0.00    +0.000 OA
BRANCH  23  24
ATOM     24  C   UNL     1      48.453   4.130  16.957  0.00  0.00    +0.000 C 
ATOM     25  C   UNL     1      47.027   3.936  16.426  0.00  0.00    +0.000 C 
ATOM     26  O   UNL     1      46.722   2.954  17.445  0.00  0.00    +0.000 OA
ATOM     27  C   UNL     1      47.981   3.221  18.103  0.00  0.00    +0.000 C 
ENDBRANCH  23  24
ENDBRANCH  21  23
ENDBRANCH  16  17
ENDBRANCH   1  16
TORSDOF 6
ENDMDL
MODEL 8
REMARK VINA RESULT:    -6.186      4.122      7.596
REMARK INTER + INTRA:          -9.162
REMARK INTER:                  -8.186
REMARK INTRA:                  -0.975
REMARK UNBOUND:                -0.806
REMARK  Name = 
REMARK  7 active torsions:
REMARK  status: ('A' for Active; 'I' for Inactive)
REMARK    1  A    between atoms: C_1  and  C_2
REMARK    2  A    between atoms: C_2  and  C_3
REMARK    3  A    between atoms: C_2  and  C_14
REMARK    4  A    between atoms: C_3  and  N_4
REMARK    5  A    between atoms: C_8  and  C_9
REMARK    6  A    between atoms: C_18  and  O_19
REMARK    7  A    between atoms: O_19  and  C_20
REMARK                            x       y       z     vdW  Elec       q    Type
REMARK                         _______ _______ _______ _____ _____    ______ ____
ROOT
ATOM      1  C   UNL     1      49.339   7.682  13.181  0.00  0.00    +0.000 C 
ENDROOT
BRANCH   1   2
ATOM      2  N   UNL     1      49.811   7.694  14.564  0.00  0.00    +0.000 N 
ATOM      3  C   UNL     1      49.212   6.683  15.342  0.00  0.00    +0.000 A 
ATOM      4  C   UNL     1      49.527   6.598  16.698  0.00  0.00    +0.000 A 
ATOM      5  C   UNL     1      48.946   5.590  17.479  0.00  0.00    +0.000 A 
ATOM      6  C   UNL     1      48.063   4.685  16.893  0.00  0.00    +0.000 A 
ATOM      7  C   UNL     1      47.818   4.834  15.540  0.00  0.00    +0.000 A 
ATOM      8  N   UNL     1      48.371   5.800  14.767  0.00  0.00    +0.000 NA
ATOM      9  H   UNL     1      49.635   8.582  15.023  0.00  0.00    +0.000 HD
BRANCH   6  10
ATOM     10  C   UNL     1      47.436   3.624  17.719  0.00  0.00    +0.000 C 
ATOM     11  N   UNL     1      47.966   3.328  18.945  0.00  0.00    +0.000 N 
ATOM     12  O   UNL     1      46.446   3.018  17.322  0.00  0.00    +0.000 OA
ATOM     13  H   UNL     1      48.777   3.753  19.363  0.00  0.00    +0.000 HD
ATOM     14  H   UNL     1      47.508   2.592  19.468  0.00  0.00    +0.000 HD
ENDBRANCH   6  10
ENDBRANCH   1   2
BRANCH   1  16
ATOM     15  C   UNL     1      48.641  10.123  13.699  0.00  0.00    +0.000 C 
ATOM     16  C   UNL     1      48.435   8.857  12.918  0.00  0.00    +0.000 C 
BRANCH  16  17
ATOM     17  C   UNL     1      47.080   8.584  12.385  0.00  0.00    +0.000 A 
ATOM     18  C   UNL     1      46.173   9.619  12.132  0.00  0.00    +0.000 A 
ATOM     19  C   UNL     1      44.887   9.340  11.654  0.00  0.00    +0.000 A 
ATOM     20  C   UNL     1      44.487   8.021  11.418  0.00  0.00    +0.000 A 
ATOM     21  C   UNL     1      45.383   6.985  11.655  0.00  0.00    +0.000 A 
ATOM     22  C   UNL     1      46.667   7.270  12.125  0.00  0.00    +0.000 A 
BRANCH  21  23
ATOM     23  O   UNL     1      45.137   5.658  11.420  0.00  0.00    +0.000 OA
BRANCH  23  24
ATOM     24  C   UNL     1      44.986   4.764  12.544  0.00  0.00    +0.000 C 
ATOM     25  C   UNL     1      45.078   3.252  12.294  0.00  0.00    +0.000 C 
ATOM     26  O   UNL     1      43.753   3.028  12.830  0.00  0.00    +0.000 OA
ATOM     27  C   UNL     1      43.530   4.453  12.922  0.00  0.00    +0.000 C 
ENDBRANCH  23  24
ENDBRANCH  21  23
ENDBRANCH  16  17
ENDBRANCH   1  16
TORSDOF 6
ENDMDL
MODEL 9
REMARK VINA RESULT:    -6.151      3.792      5.951
REMARK INTER + INTRA:          -9.114
REMARK INTER:                  -8.698
REMARK INTRA:                  -0.416
REMARK UNBOUND:                -0.806
REMARK  Name = 
REMARK  7 active torsions:
REMARK  status: ('A' for Active; 'I' for Inactive)
REMARK    1  A    between atoms: C_1  and  C_2
REMARK    2  A    between atoms: C_2  and  C_3
REMARK    3  A    between atoms: C_2  and  C_14
REMARK    4  A    between atoms: C_3  and  N_4
REMARK    5  A    between atoms: C_8  and  C_9
REMARK    6  A    between atoms: C_18  and  O_19
REMARK    7  A    between atoms: O_19  and  C_20
REMARK                            x       y       z     vdW  Elec       q    Type
REMARK                         _______ _______ _______ _____ _____    ______ ____
ROOT
ATOM      1  C   UNL     1      47.380   4.229  15.894  0.00  0.00    +0.000 C 
ENDROOT
BRANCH   1   2
ATOM      2  N   UNL     1      47.147   5.389  15.035  0.00  0.00    +0.000 N 
ATOM      3  C   UNL     1      46.489   5.043  13.837  0.00  0.00    +0.000 A 
ATOM      4  C   UNL     1      46.240   6.038  12.892  0.00  0.00    +0.000 A 
ATOM      5  C   UNL     1      45.577   5.709  11.702  0.00  0.00    +0.000 A 
ATOM      6  C   UNL     1      45.174   4.394  11.478  0.00  0.00    +0.000 A 
ATOM      7  C   UNL     1      45.449   3.475  12.474  0.00  0.00    +0.000 A 
ATOM      8  N   UNL     1      46.086   3.773  13.632  0.00  0.00    +0.000 NA
ATOM      9  H   UNL     1      48.009   5.864  14.788  0.00  0.00    +0.000 HD
BRANCH   6  10
ATOM     10  C   UNL     1      44.483   4.038  10.214  0.00  0.00    +0.000 C 
ATOM     11  N   UNL     1      44.739   4.763   9.083  0.00  0.00    +0.000 N 
ATOM     12  O   UNL     1      43.695   3.099  10.168  0.00  0.00    +0.000 OA
ATOM     13  H   UNL     1      45.357   5.556   9.009  0.00  0.00    +0.000 HD
ATOM     14  H   UNL     1      44.238   4.487   8.247  0.00  0.00    +0.000 HD
ENDBRANCH   6  10
ENDBRANCH   1   2
BRANCH   1  16
ATOM     15  C   UNL     1      47.107   5.348  18.215  0.00  0.00    +0.000 C 
ATOM     16  C   UNL     1      47.979   4.655  17.208  0.00  0.00    +0.000 C 
BRANCH  16  17
ATOM     17  C   UNL     1      49.435   4.919  17.253  0.00  0.00    +0.000 A 
ATOM     18  C   UNL     1      49.985   6.076  16.689  0.00  0.00    +0.000 A 
ATOM     19  C   UNL     1      51.368   6.295  16.717  0.00  0.00    +0.000 A 
ATOM     20  C   UNL     1      52.224   5.363  17.313  0.00  0.00    +0.000 A 
ATOM     21  C   UNL     1      51.688   4.217  17.887  0.00  0.00    +0.000 A 
ATOM     22  C   UNL     1      50.308   4.006  17.862  0.00  0.00    +0.000 A 
BRANCH  21  23
ATOM     23  O   UNL     1      52.406   3.252  18.543  0.00  0.00    +0.000 OA
BRANCH  23  24
ATOM     24  C   UNL     1      52.947   2.145  17.788  0.00  0.00    +0.000 C 
ATOM     25  C   UNL     1      52.160   0.828  17.756  0.00  0.00    +0.000 C 
ATOM     26  O   UNL     1      53.272   0.087  18.310  0.00  0.00    +0.000 OA
ATOM     27  C   UNL     1      53.999   1.315  18.538  0.00  0.00    +0.000 C 
ENDBRANCH  23  24
ENDBRANCH  21  23
ENDBRANCH  16  17
ENDBRANCH   1  16
TORSDOF 6
ENDMDL
