MODEL 1
REMARK VINA RESULT:    -8.038      0.000      0.000
REMARK INTER + INTRA:         -12.856
REMARK INTER:                 -11.563
REMARK INTRA:                  -1.294
REMARK UNBOUND:                -1.294
REMARK  Name = 
REMARK  8 active torsions:
REMARK  status: ('A' for Active; 'I' for Inactive)
REMARK    1  A    between atoms: C_2  and  C_20
REMARK    2  A    between atoms: N_3  and  C_4
REMARK    3  A    between atoms: C_4  and  C_5
REMARK    4  A    between atoms: C_8  and  C_9
REMARK    5  A    between atoms: C_9  and  O_10
REMARK    6  A    between atoms: O_10  and  C_11
REMARK    7  A    between atoms: C_11  and  C_12
REMARK    8  A    between atoms: C_27  and  O_28
REMARK                            x       y       z     vdW  Elec       q    Type
REMARK                         _______ _______ _______ _____ _____    ______ ____
ROOT
ATOM      1  C   UNL     1      47.003   7.491  13.033  0.00  0.00    +0.000 C 
ENDROOT
BRANCH   1   2
ATOM      2  C   UNL     1      46.143   6.380  12.484  0.00  0.00    +0.000 A 
ATOM      3  C   UNL     1      45.879   6.274  11.110  0.00  0.00    +0.000 A 
ATOM      4  C   UNL     1      45.104   5.218  10.614  0.00  0.00    +0.000 A 
ATOM      5  C   UNL     1      44.562   4.257  11.478  0.00  0.00    +0.000 A 
ATOM      6  C   UNL     1      44.801   4.384  12.852  0.00  0.00    +0.000 A 
ATOM      7  C   UNL     1      45.577   5.435  13.350  0.00  0.00    +0.000 A 
BRANCH   5   8
ATOM      8  C   UNL     1      43.727   3.117  10.945  0.00  0.00    +0.000 C 
BRANCH   8   9
ATOM      9  O   UNL     1      43.947   2.995   9.545  0.00  0.00    +0.000 OA
BRANCH   9  10
ATOM     10  C   UNL     1      44.622   1.783   9.210  0.00  0.00    +0.000 C 
BRANCH  10  11
ATOM     11  C   UNL     1      45.712   2.060   8.202  0.00  0.00    +0.000 A 
ATOM     12  C   UNL     1      46.636   1.068   7.845  0.00  0.00    +0.000 A 
ATOM     13  C   UNL     1      47.618   1.316   6.884  0.00  0.00    +0.000 A 
ATOM     14  C   UNL     1      47.678   2.558   6.257  0.00  0.00    +0.000 A 
ATOM     15  C   UNL     1      46.763   3.552   6.593  0.00  0.00    +0.000 A 
ATOM     16  C   UNL     1      45.781   3.305   7.557  0.00  0.00    +0.000 A 
ENDBRANCH  10  11
ENDBRANCH   9  10
ENDBRANCH   8   9
ENDBRANCH   5   8
ENDBRANCH   1   2
BRANCH   1  19
ATOM     17  O   UNL     1      49.657   6.924  13.759  0.00  0.00    +0.000 OA
ATOM     18  C   UNL     1      48.798   6.978  14.634  0.00  0.00    +0.000 C 
ATOM     19  N   UNL     1      47.471   7.184  14.356  0.00  0.00    +0.000 N 
ATOM     20  H   UNL     1      46.868   7.436  15.130  0.00  0.00    +0.000 HD
BRANCH  18  21
ATOM     21  C   UNL     1      49.119   6.779  16.052  0.00  0.00    +0.000 A 
ATOM     22  C   UNL     1      49.771   7.775  16.767  0.00  0.00    +0.000 A 
ATOM     23  S   UNL     1      50.043   7.367  18.399  0.00  0.00    +0.000 S 
ATOM     24  C   UNL     1      49.269   5.862  18.205  0.00  0.00    +0.000 A 
ATOM     25  N   UNL     1      49.136   5.033  19.263  0.00  0.00    +0.000 NA
ATOM     26  C   UNL     1      48.512   3.876  18.985  0.00  0.00    +0.000 A 
ATOM     27  C   UNL     1      48.032   3.497  17.744  0.00  0.00    +0.000 A 
ATOM     28  C   UNL     1      48.199   4.389  16.693  0.00  0.00    +0.000 A 
ATOM     29  C   UNL     1      48.835   5.637  16.902  0.00  0.00    +0.000 A 
BRANCH  28  30
ATOM     30  O   UNL     1      47.748   4.032  15.446  0.00  0.00    +0.000 OA
ATOM     31  H   UNL     1      46.857   4.392  15.294  0.00  0.00    +0.000 HD
ENDBRANCH  28  30
ENDBRANCH  18  21
ENDBRANCH   1  19
TORSDOF 8
ENDMDL
MODEL 2
REMARK VINA RESULT:    -7.843      1.798      2.664
REMARK INTER + INTRA:         -12.576
REMARK INTER:                 -11.345
REMARK INTRA:                  -1.231
REMARK UNBOUND:                -1.294
REMARK  Name = 
REMARK  8 active torsions:
REMARK  status: ('A' for Active; 'I' for Inactive)
REMARK    1  A    between atoms: C_2  and  C_20
REMARK    2  A    between atoms: N_3  and  C_4
REMARK    3  A    between atoms: C_4  and  C_5
REMARK    4  A    between atoms: C_8  and  C_9
REMARK    5  A    between atoms: C_9  and  O_10
REMARK    6  A    between atoms: O_10  and  C_11
REMARK    7  A    between atoms: C_11  and  C_12
REMARK    8  A    between atoms: C_27  and  O_28
REMARK                            x       y       z     vdW  Elec       q    Type
REMARK                         _______ _______ _______ _____ _____    ______ ____
ROOT
ATOM      1  C   UNL     1      48.034   6.776  13.737  0.00  0.00    +0.000 C 
ENDROOT
BRANCH   1   2
ATOM      2  C   UNL     1      46.887   6.110  13.018  0.00  0.00    +0.000 A 
ATOM      3  C   UNL     1      46.145   5.085  13.622  0.00  0.00    +0.000 A 
ATOM      4  C   UNL     1      45.063   4.499  12.952  0.00  0.00    +0.000 A 
ATOM      5  C   UNL     1      44.712   4.909  11.659  0.00  0.00    +0.000 A 
ATOM      6  C   UNL     1      45.476   5.910  11.045  0.00  0.00    +0.000 A 
ATOM      7  C   UNL     1      46.554   6.499  11.713  0.00  0.00    +0.000 A 
BRANCH   5   8
ATOM      8  C   UNL     1      43.547   4.279  10.934  0.00  0.00    +0.000 C 
BRANCH   8   9
ATOM      9  O   UNL     1      43.961   3.902   9.627  0.00  0.00    +0.000 OA
BRANCH   9  10
ATOM     10  C   UNL     1      44.550   2.603   9.602  0.00  0.00    +0.000 C 
BRANCH  10  11
ATOM     11  C   UNL     1      45.558   2.514   8.480  0.00  0.00    +0.000 A 
ATOM     12  C   UNL     1      45.903   3.645   7.726  0.00  0.00    +0.000 A 
ATOM     13  C   UNL     1      46.863   3.565   6.716  0.00  0.00    +0.000 A 
ATOM     14  C   UNL     1      47.501   2.355   6.456  0.00  0.00    +0.000 A 
ATOM     15  C   UNL     1      47.175   1.223   7.201  0.00  0.00    +0.000 A 
ATOM     16  C   UNL     1      46.212   1.302   8.211  0.00  0.00    +0.000 A 
ENDBRANCH  10  11
ENDBRANCH   9  10
ENDBRANCH   8   9
ENDBRANCH   5   8
ENDBRANCH   1   2
BRANCH   1  19
ATOM     17  O   UNL     1      50.258   6.535  15.438  0.00  0.00    +0.000 OA
ATOM     18  C   UNL     1      49.129   6.460  15.916  0.00  0.00    +0.000 C 
ATOM     19  N   UNL     1      47.995   6.502  15.147  0.00  0.00    +0.000 N 
ATOM     20  H   UNL     1      47.115   6.659  15.624  0.00  0.00    +0.000 HD
BRANCH  18  21
ATOM     21  C   UNL     1      48.906   6.274  17.354  0.00  0.00    +0.000 A 
ATOM     22  C   UNL     1      49.278   5.087  17.972  0.00  0.00    +0.000 A 
ATOM     23  S   UNL     1      48.953   5.065  19.644  0.00  0.00    +0.000 S 
ATOM     24  C   UNL     1      48.334   6.652  19.597  0.00  0.00    +0.000 A 
ATOM     25  N   UNL     1      47.912   7.243  20.736  0.00  0.00    +0.000 NA
ATOM     26  C   UNL     1      47.443   8.491  20.571  0.00  0.00    +0.000 A 
ATOM     27  C   UNL     1      47.362   9.169  19.368  0.00  0.00    +0.000 A 
ATOM     28  C   UNL     1      47.810   8.511  18.230  0.00  0.00    +0.000 A 
ATOM     29  C   UNL     1      48.331   7.197  18.317  0.00  0.00    +0.000 A 
BRANCH  28  30
ATOM     30  O   UNL     1      47.725   9.153  17.019  0.00  0.00    +0.000 OA
ATOM     31  H   UNL     1      47.846  10.111  17.137  0.00  0.00    +0.000 HD
ENDBRANCH  28  30
ENDBRANCH  18  21
ENDBRANCH   1  19
TORSDOF 8
ENDMDL
MODEL 3
REMARK VINA RESULT:    -7.775      1.094      1.477
REMARK INTER + INTRA:         -12.478
REMARK INTER:                 -11.336
REMARK INTRA:                  -1.142
REMARK UNBOUND:                -1.294
REMARK  Name = 
REMARK  8 active torsions:
REMARK  status: ('A' for Active; 'I' for Inactive)
REMARK    1  A    between atoms: C_2  and  C_20
REMARK    2  A    between atoms: N_3  and  C_4
REMARK    3  A    between atoms: C_4  and  C_5
REMARK    4  A    between atoms: C_8  and  C_9
REMARK    5  A    between atoms: C_9  and  O_10
REMARK    6  A    between atoms: O_10  and  C_11
REMARK    7  A    between atoms: C_11  and  C_12
REMARK    8  A    between atoms: C_27  and  O_28
REMARK                            x       y       z     vdW  Elec       q    Type
REMARK                         _______ _______ _______ _____ _____    ______ ____
ROOT
ATOM      1  C   UNL     1      48.195   6.777  13.271  0.00  0.00    +0.000 C 
ENDROOT
BRANCH   1   2
ATOM      2  C   UNL     1      47.030   6.035  12.666  0.00  0.00    +0.000 A 
ATOM      3  C   UNL     1      46.446   4.939  13.318  0.00  0.00    +0.000 A 
ATOM      4  C   UNL     1      45.344   4.280  12.757  0.00  0.00    +0.000 A 
ATOM      5  C   UNL     1      44.815   4.689  11.525  0.00  0.00    +0.000 A 
ATOM      6  C   UNL     1      45.421   5.763  10.861  0.00  0.00    +0.000 A 
ATOM      7  C   UNL     1      46.518   6.424  11.421  0.00  0.00    +0.000 A 
BRANCH   5   8
ATOM      8  C   UNL     1      43.628   3.981  10.918  0.00  0.00    +0.000 C 
BRANCH   8   9
ATOM      9  O   UNL     1      43.934   3.629   9.574  0.00  0.00    +0.000 OA
BRANCH   9  10
ATOM     10  C   UNL     1      44.593   2.366   9.484  0.00  0.00    +0.000 C 
BRANCH  10  11
ATOM     11  C   UNL     1      45.647   2.409   8.403  0.00  0.00    +0.000 A 
ATOM     12  C   UNL     1      46.409   1.273   8.091  0.00  0.00    +0.000 A 
ATOM     13  C   UNL     1      47.354   1.306   7.065  0.00  0.00    +0.000 A 
ATOM     14  C   UNL     1      47.540   2.473   6.328  0.00  0.00    +0.000 A 
ATOM     15  C   UNL     1      46.786   3.608   6.619  0.00  0.00    +0.000 A 
ATOM     16  C   UNL     1      45.841   3.576   7.648  0.00  0.00    +0.000 A 
ENDBRANCH  10  11
ENDBRANCH   9  10
ENDBRANCH   8   9
ENDBRANCH   5   8
ENDBRANCH   1   2
BRANCH   1  19
ATOM     17  O   UNL     1      50.320   6.893  15.106  0.00  0.00    +0.000 OA
ATOM     18  C   UNL     1      49.168   6.973  15.522  0.00  0.00    +0.000 C 
ATOM     19  N   UNL     1      48.075   6.859  14.701  0.00  0.00    +0.000 N 
ATOM     20  H   UNL     1      47.181   7.156  15.073  0.00  0.00    +0.000 HD
BRANCH  18  21
ATOM     21  C   UNL     1      48.867   7.153  16.946  0.00  0.00    +0.000 A 
ATOM     22  C   UNL     1      48.524   8.407  17.435  0.00  0.00    +0.000 A 
ATOM     23  S   UNL     1      48.196   8.412  19.108  0.00  0.00    +0.000 S 
ATOM     24  C   UNL     1      48.471   6.735  19.220  0.00  0.00    +0.000 A 
ATOM     25  N   UNL     1      48.314   6.105  20.404  0.00  0.00    +0.000 NA
ATOM     26  C   UNL     1      48.563   4.786  20.368  0.00  0.00    +0.000 A 
ATOM     27  C   UNL     1      48.959   4.071  19.251  0.00  0.00    +0.000 A 
ATOM     28  C   UNL     1      49.105   4.771  18.061  0.00  0.00    +0.000 A 
ATOM     29  C   UNL     1      48.851   6.164  18.009  0.00  0.00    +0.000 A 
BRANCH  28  30
ATOM     30  O   UNL     1      49.514   4.090  16.940  0.00  0.00    +0.000 OA
ATOM     31  H   UNL     1      49.033   4.411  16.157  0.00  0.00    +0.000 HD
ENDBRANCH  28  30
ENDBRANCH  18  21
ENDBRANCH   1  19
TORSDOF 8
ENDMDL
MODEL 4
REMARK VINA RESULT:    -7.449      1.759      3.441
REMARK INTER + INTRA:         -12.008
REMARK INTER:                 -10.845
REMARK INTRA:                  -1.163
REMARK UNBOUND:                -1.294
REMARK  Name = 
REMARK  8 active torsions:
REMARK  status: ('A' for Active; 'I' for Inactive)
REMARK    1  A    between atoms: C_2  and  C_20
REMARK    2  A    between atoms: N_3  and  C_4
REMARK    3  A    between atoms: C_4  and  C_5
REMARK    4  A    between atoms: C_8  and  C_9
REMARK    5  A    between atoms: C_9  and  O_10
REMARK    6  A    between atoms: O_10  and  C_11
REMARK    7  A    between atoms: C_11  and  C_12
REMARK    8  A    between atoms: C_27  and  O_28
REMARK                            x       y       z     vdW  Elec       q    Type
REMARK                         _______ _______ _______ _____ _____    ______ ____
ROOT
ATOM      1  C   UNL     1      47.013   4.412  14.771  0.00  0.00    +0.000 C 
ENDROOT
BRANCH   1   2
ATOM      2  C   UNL     1      46.198   4.474  13.504  0.00  0.00    +0.000 A 
ATOM      3  C   UNL     1      45.847   5.702  12.922  0.00  0.00    +0.000 A 
ATOM      4  C   UNL     1      45.116   5.741  11.728  0.00  0.00    +0.000 A 
ATOM      5  C   UNL     1      44.702   4.558  11.100  0.00  0.00    +0.000 A 
ATOM      6  C   UNL     1      45.025   3.335  11.701  0.00  0.00    +0.000 A 
ATOM      7  C   UNL     1      45.758   3.293  12.891  0.00  0.00    +0.000 A 
BRANCH   5   8
ATOM      8  C   UNL     1      43.914   4.597   9.813  0.00  0.00    +0.000 C 
BRANCH   8   9
ATOM      9  O   UNL     1      44.446   3.633   8.913  0.00  0.00    +0.000 OA
BRANCH   9  10
ATOM     10  C   UNL     1      45.617   4.104   8.248  0.00  0.00    +0.000 C 
BRANCH  10  11
ATOM     11  C   UNL     1      46.219   2.998   7.415  0.00  0.00    +0.000 A 
ATOM     12  C   UNL     1      46.616   3.225   6.089  0.00  0.00    +0.000 A 
ATOM     13  C   UNL     1      47.208   2.211   5.335  0.00  0.00    +0.000 A 
ATOM     14  C   UNL     1      47.424   0.958   5.903  0.00  0.00    +0.000 A 
ATOM     15  C   UNL     1      47.042   0.717   7.222  0.00  0.00    +0.000 A 
ATOM     16  C   UNL     1      46.447   1.732   7.976  0.00  0.00    +0.000 A 
ENDBRANCH  10  11
ENDBRANCH   9  10
ENDBRANCH   8   9
ENDBRANCH   5   8
ENDBRANCH   1   2
BRANCH   1  19
ATOM     17  O   UNL     1      49.046   4.893  16.651  0.00  0.00    +0.000 OA
ATOM     18  C   UNL     1      48.630   5.826  15.970  0.00  0.00    +0.000 C 
ATOM     19  N   UNL     1      47.597   5.689  15.079  0.00  0.00    +0.000 N 
ATOM     20  H   UNL     1      47.463   6.433  14.404  0.00  0.00    +0.000 HD
BRANCH  18  21
ATOM     21  C   UNL     1      49.180   7.181  16.090  0.00  0.00    +0.000 A 
ATOM     22  C   UNL     1      49.188   7.825  17.321  0.00  0.00    +0.000 A 
ATOM     23  S   UNL     1      49.879   9.382  17.263  0.00  0.00    +0.000 S 
ATOM     24  C   UNL     1      50.214   9.228  15.599  0.00  0.00    +0.000 A 
ATOM     25  N   UNL     1      50.846  10.226  14.945  0.00  0.00    +0.000 NA
ATOM     26  C   UNL     1      51.050   9.991  13.639  0.00  0.00    +0.000 A 
ATOM     27  C   UNL     1      50.666   8.851  12.956  0.00  0.00    +0.000 A 
ATOM     28  C   UNL     1      50.018   7.858  13.680  0.00  0.00    +0.000 A 
ATOM     29  C   UNL     1      49.774   8.021  15.065  0.00  0.00    +0.000 A 
BRANCH  28  30
ATOM     30  O   UNL     1      49.610   6.722  13.024  0.00  0.00    +0.000 OA
ATOM     31  H   UNL     1      48.668   6.789  12.790  0.00  0.00    +0.000 HD
ENDBRANCH  28  30
ENDBRANCH  18  21
ENDBRANCH   1  19
TORSDOF 8
ENDMDL
MODEL 5
REMARK VINA RESULT:    -7.353      2.009      2.722
REMARK INTER + INTRA:         -11.870
REMARK INTER:                 -10.904
REMARK INTRA:                  -0.966
REMARK UNBOUND:                -1.294
REMARK  Name = 
REMARK  8 active torsions:
REMARK  status: ('A' for Active; 'I' for Inactive)
REMARK    1  A    between atoms: C_2  and  C_20
REMARK    2  A    between atoms: N_3  and  C_4
REMARK    3  A    between atoms: C_4  and  C_5
REMARK    4  A    between atoms: C_8  and  C_9
REMARK    5  A    between atoms: C_9  and  O_10
REMARK    6  A    between atoms: O_10  and  C_11
REMARK    7  A    between atoms: C_11  and  C_12
REMARK    8  A    between atoms: C_27  and  O_28
REMARK                            x       y       z     vdW  Elec       q    Type
REMARK                         _______ _______ _______ _____ _____    ______ ____
ROOT
ATOM      1  C   UNL     1      47.383   3.956  14.924  0.00  0.00    +0.000 C 
ENDROOT
BRANCH   1   2
ATOM      2  C   UNL     1      46.525   4.207  13.709  0.00  0.00    +0.000 A 
ATOM      3  C   UNL     1      46.320   5.504  13.217  0.00  0.00    +0.000 A 
ATOM      4  C   UNL     1      45.546   5.716  12.069  0.00  0.00    +0.000 A 
ATOM      5  C   UNL     1      44.944   4.641  11.400  0.00  0.00    +0.000 A 
ATOM      6  C   UNL     1      45.124   3.351  11.913  0.00  0.00    +0.000 A 
ATOM      7  C   UNL     1      45.899   3.136  13.057  0.00  0.00    +0.000 A 
BRANCH   5   8
ATOM      8  C   UNL     1      44.109   4.867  10.163  0.00  0.00    +0.000 C 
BRANCH   8   9
ATOM      9  O   UNL     1      44.469   3.907   9.177  0.00  0.00    +0.000 OA
BRANCH   9  10
ATOM     10  C   UNL     1      45.579   4.334   8.389  0.00  0.00    +0.000 C 
BRANCH  10  11
ATOM     11  C   UNL     1      46.154   3.164   7.627  0.00  0.00    +0.000 A 
ATOM     12  C   UNL     1      46.677   3.328   6.336  0.00  0.00    +0.000 A 
ATOM     13  C   UNL     1      47.243   2.251   5.652  0.00  0.00    +0.000 A 
ATOM     14  C   UNL     1      47.305   0.998   6.256  0.00  0.00    +0.000 A 
ATOM     15  C   UNL     1      46.797   0.819   7.541  0.00  0.00    +0.000 A 
ATOM     16  C   UNL     1      46.228   1.897   8.226  0.00  0.00    +0.000 A 
ENDBRANCH  10  11
ENDBRANCH   9  10
ENDBRANCH   8   9
ENDBRANCH   5   8
ENDBRANCH   1   2
BRANCH   1  19
ATOM     17  O   UNL     1      49.501   4.680  16.624  0.00  0.00    +0.000 OA
ATOM     18  C   UNL     1      48.527   5.421  16.535  0.00  0.00    +0.000 C 
ATOM     19  N   UNL     1      47.425   5.110  15.780  0.00  0.00    +0.000 N 
ATOM     20  H   UNL     1      46.772   5.857  15.580  0.00  0.00    +0.000 HD
BRANCH  18  21
ATOM     21  C   UNL     1      48.445   6.688  17.271  0.00  0.00    +0.000 A 
ATOM     22  C   UNL     1      48.694   7.891  16.623  0.00  0.00    +0.000 A 
ATOM     23  S   UNL     1      48.536   9.250  17.638  0.00  0.00    +0.000 S 
ATOM     24  C   UNL     1      48.099   8.274  18.964  0.00  0.00    +0.000 A 
ATOM     25  N   UNL     1      47.793   8.846  20.148  0.00  0.00    +0.000 NA
ATOM     26  C   UNL     1      47.469   7.974  21.117  0.00  0.00    +0.000 A 
ATOM     27  C   UNL     1      47.440   6.597  20.986  0.00  0.00    +0.000 A 
ATOM     28  C   UNL     1      47.765   6.065  19.745  0.00  0.00    +0.000 A 
ATOM     29  C   UNL     1      48.108   6.915  18.665  0.00  0.00    +0.000 A 
BRANCH  28  30
ATOM     30  O   UNL     1      47.761   4.700  19.590  0.00  0.00    +0.000 OA
ATOM     31  H   UNL     1      47.449   4.463  18.700  0.00  0.00    +0.000 HD
ENDBRANCH  28  30
ENDBRANCH  18  21
ENDBRANCH   1  19
TORSDOF 8
ENDMDL
MODEL 6
REMARK VINA RESULT:    -7.156      2.195      3.386
REMARK INTER + INTRA:         -11.587
REMARK INTER:                 -10.576
REMARK INTRA:                  -1.011
REMARK UNBOUND:                -1.294
REMARK  Name = 
REMARK  8 active torsions:
REMARK  status: ('A' for Active; 'I' for Inactive)
REMARK    1  A    between atoms: C_2  and  C_20
REMARK    2  A    between atoms: N_3  and  C_4
REMARK    3  A    between atoms: C_4  and  C_5
REMARK    4  A    between atoms: C_8  and  C_9
REMARK    5  A    between atoms: C_9  and  O_10
REMARK    6  A    between atoms: O_10  and  C_11
REMARK    7  A    between atoms: C_11  and  C_12
REMARK    8  A    between atoms: C_27  and  O_28
REMARK                            x       y       z     vdW  Elec       q    Type
REMARK                         _______ _______ _______ _____ _____    ______ ____
ROOT
ATOM      1  C   UNL     1      47.372   4.816  14.928  0.00  0.00    +0.000 C 
ENDROOT
BRANCH   1   2
ATOM      2  C   UNL     1      46.422   4.739  13.759  0.00  0.00    +0.000 A 
ATOM      3  C   UNL     1      46.123   3.516  13.141  0.00  0.00    +0.000 A 
ATOM      4  C   UNL     1      45.215   3.458  12.077  0.00  0.00    +0.000 A 
ATOM      5  C   UNL     1      44.599   4.622  11.594  0.00  0.00    +0.000 A 
ATOM      6  C   UNL     1      44.924   5.846  12.192  0.00  0.00    +0.000 A 
ATOM      7  C   UNL     1      45.828   5.905  13.257  0.00  0.00    +0.000 A 
BRANCH   5   8
ATOM      8  C   UNL     1      43.619   4.563  10.447  0.00  0.00    +0.000 C 
BRANCH   8   9
ATOM      9  O   UNL     1      44.043   3.566   9.525  0.00  0.00    +0.000 OA
BRANCH   9  10
ATOM     10  C   UNL     1      44.721   4.125   8.401  0.00  0.00    +0.000 C 
BRANCH  10  11
ATOM     11  C   UNL     1      45.701   3.123   7.837  0.00  0.00    +0.000 A 
ATOM     12  C   UNL     1      46.614   3.489   6.838  0.00  0.00    +0.000 A 
ATOM     13  C   UNL     1      47.544   2.570   6.347  0.00  0.00    +0.000 A 
ATOM     14  C   UNL     1      47.580   1.276   6.861  0.00  0.00    +0.000 A 
ATOM     15  C   UNL     1      46.684   0.899   7.859  0.00  0.00    +0.000 A 
ATOM     16  C   UNL     1      45.752   1.818   8.349  0.00  0.00    +0.000 A 
ENDBRANCH  10  11
ENDBRANCH   9  10
ENDBRANCH   8   9
ENDBRANCH   5   8
ENDBRANCH   1   2
BRANCH   1  19
ATOM     17  O   UNL     1      49.571   5.552  16.515  0.00  0.00    +0.000 OA
ATOM     18  C   UNL     1      49.006   6.410  15.843  0.00  0.00    +0.000 C 
ATOM     19  N   UNL     1      47.888   6.147  15.094  0.00  0.00    +0.000 N 
ATOM     20  H   UNL     1      47.618   6.837  14.403  0.00  0.00    +0.000 HD
BRANCH  18  21
ATOM     21  C   UNL     1      49.461   7.805  15.823  0.00  0.00    +0.000 A 
ATOM     22  C   UNL     1      50.416   8.216  14.903  0.00  0.00    +0.000 A 
ATOM     23  S   UNL     1      50.804   9.871  15.026  0.00  0.00    +0.000 S 
ATOM     24  C   UNL     1      49.683  10.093  16.290  0.00  0.00    +0.000 A 
ATOM     25  N   UNL     1      49.504  11.320  16.822  0.00  0.00    +0.000 NA
ATOM     26  C   UNL     1      48.598  11.368  17.813  0.00  0.00    +0.000 A 
ATOM     27  C   UNL     1      47.881  10.291  18.302  0.00  0.00    +0.000 A 
ATOM     28  C   UNL     1      48.107   9.052  17.716  0.00  0.00    +0.000 A 
ATOM     29  C   UNL     1      49.037   8.916  16.657  0.00  0.00    +0.000 A 
BRANCH  28  30
ATOM     30  O   UNL     1      47.421   7.962  18.192  0.00  0.00    +0.000 OA
ATOM     31  H   UNL     1      46.723   8.245  18.808  0.00  0.00    +0.000 HD
ENDBRANCH  28  30
ENDBRANCH  18  21
ENDBRANCH   1  19
TORSDOF 8
ENDMDL
MODEL 7
REMARK VINA RESULT:    -7.102      3.663      5.474
REMARK INTER + INTRA:         -11.510
REMARK INTER:                 -10.194
REMARK INTRA:                  -1.316
REMARK UNBOUND:                -1.294
REMARK  Name = 
REMARK  8 active torsions:
REMARK  status: ('A' for Active; 'I' for Inactive)
REMARK    1  A    between atoms: C_2  and  C_20
REMARK    2  A    between atoms: N_3  and  C_4
REMARK    3  A    between atoms: C_4  and  C_5
REMARK    4  A    between atoms: C_8  and  C_9
REMARK    5  A    between atoms: C_9  and  O_10
REMARK    6  A    between atoms: O_10  and  C_11
REMARK    7  A    between atoms: C_11  and  C_12
REMARK    8  A    between atoms: C_27  and  O_28
REMARK                            x       y       z     vdW  Elec       q    Type
REMARK                         _______ _______ _______ _____ _____    ______ ____
ROOT
ATOM      1  C   UNL     1      48.130   6.756  13.276  0.00  0.00    +0.000 C 
ENDROOT
BRANCH   1   2
ATOM      2  C   UNL     1      46.990   5.999  12.641  0.00  0.00    +0.000 A 
ATOM      3  C   UNL     1      46.410   4.890  13.273  0.00  0.00    +0.000 A 
ATOM      4  C   UNL     1      45.332   4.217  12.683  0.00  0.00    +0.000 A 
ATOM      5  C   UNL     1      44.823   4.625  11.443  0.00  0.00    +0.000 A 
ATOM      6  C   UNL     1      45.426   5.713  10.799  0.00  0.00    +0.000 A 
ATOM      7  C   UNL     1      46.500   6.388  11.387  0.00  0.00    +0.000 A 
BRANCH   5   8
ATOM      8  C   UNL     1      43.661   3.902  10.805  0.00  0.00    +0.000 C 
BRANCH   8   9
ATOM      9  O   UNL     1      44.021   3.520   9.483  0.00  0.00    +0.000 OA
BRANCH   9  10
ATOM     10  C   UNL     1      44.797   2.323   9.461  0.00  0.00    +0.000 C 
BRANCH  10  11
ATOM     11  C   UNL     1      45.748   2.345   8.287  0.00  0.00    +0.000 A 
ATOM     12  C   UNL     1      45.935   3.510   7.529  0.00  0.00    +0.000 A 
ATOM     13  C   UNL     1      46.843   3.537   6.470  0.00  0.00    +0.000 A 
ATOM     14  C   UNL     1      47.588   2.401   6.164  0.00  0.00    +0.000 A 
ATOM     15  C   UNL     1      47.420   1.237   6.911  0.00  0.00    +0.000 A 
ATOM     16  C   UNL     1      46.509   1.209   7.971  0.00  0.00    +0.000 A 
ENDBRANCH  10  11
ENDBRANCH   9  10
ENDBRANCH   8   9
ENDBRANCH   5   8
ENDBRANCH   1   2
BRANCH   1  19
ATOM     17  O   UNL     1      48.340   9.524  13.716  0.00  0.00    +0.000 OA
ATOM     18  C   UNL     1      48.808   9.046  12.687  0.00  0.00    +0.000 C 
ATOM     19  N   UNL     1      48.689   7.718  12.366  0.00  0.00    +0.000 N 
ATOM     20  H   UNL     1      49.283   7.363  11.627  0.00  0.00    +0.000 HD
BRANCH  18  21
ATOM     21  C   UNL     1      49.496   9.873  11.689  0.00  0.00    +0.000 A 
ATOM     22  C   UNL     1      48.872  10.996  11.161  0.00  0.00    +0.000 A 
ATOM     23  S   UNL     1      49.833  11.834  10.031  0.00  0.00    +0.000 S 
ATOM     24  C   UNL     1      51.122  10.739  10.238  0.00  0.00    +0.000 A 
ATOM     25  N   UNL     1      52.278  10.927   9.566  0.00  0.00    +0.000 NA
ATOM     26  C   UNL     1      53.217   9.997   9.808  0.00  0.00    +0.000 A 
ATOM     27  C   UNL     1      53.077   8.912  10.654  0.00  0.00    +0.000 A 
ATOM     28  C   UNL     1      51.866   8.770  11.319  0.00  0.00    +0.000 A 
ATOM     29  C   UNL     1      50.826   9.712  11.129  0.00  0.00    +0.000 A 
BRANCH  28  30
ATOM     30  O   UNL     1      51.692   7.691  12.152  0.00  0.00    +0.000 OA
ATOM     31  H   UNL     1      51.678   7.982  13.080  0.00  0.00    +0.000 HD
ENDBRANCH  28  30
ENDBRANCH  18  21
ENDBRANCH   1  19
TORSDOF 8
ENDMDL
MODEL 8
REMARK VINA RESULT:    -7.004      3.323      5.399
REMARK INTER + INTRA:         -11.369
REMARK INTER:                 -10.058
REMARK INTRA:                  -1.312
REMARK UNBOUND:                -1.294
REMARK  Name = 
REMARK  8 active torsions:
REMARK  status: ('A' for Active; 'I' for Inactive)
REMARK    1  A    between atoms: C_2  and  C_20
REMARK    2  A    between atoms: N_3  and  C_4
REMARK    3  A    between atoms: C_4  and  C_5
REMARK    4  A    between atoms: C_8  and  C_9
REMARK    5  A    between atoms: C_9  and  O_10
REMARK    6  A    between atoms: O_10  and  C_11
REMARK    7  A    between atoms: C_11  and  C_12
REMARK    8  A    between atoms: C_27  and  O_28
REMARK                            x       y       z     vdW  Elec       q    Type
REMARK                         _______ _______ _______ _____ _____    ______ ____
ROOT
ATOM      1  C   UNL     1      48.117   6.521  13.619  0.00  0.00    +0.000 C 
ENDROOT
BRANCH   1   2
ATOM      2  C   UNL     1      46.960   5.832  12.940  0.00  0.00    +0.000 A 
ATOM      3  C   UNL     1      46.537   6.210  11.657  0.00  0.00    +0.000 A 
ATOM      4  C   UNL     1      45.481   5.538  11.029  0.00  0.00    +0.000 A 
ATOM      5  C   UNL     1      44.812   4.489  11.675  0.00  0.00    +0.000 A 
ATOM      6  C   UNL     1      45.215   4.136  12.969  0.00  0.00    +0.000 A 
ATOM      7  C   UNL     1      46.271   4.803  13.597  0.00  0.00    +0.000 A 
BRANCH   5   8
ATOM      8  C   UNL     1      43.673   3.763  11.000  0.00  0.00    +0.000 C 
BRANCH   8   9
ATOM      9  O   UNL     1      43.986   3.583   9.624  0.00  0.00    +0.000 OA
BRANCH   9  10
ATOM     10  C   UNL     1      44.483   2.274   9.351  0.00  0.00    +0.000 C 
BRANCH  10  11
ATOM     11  C   UNL     1      45.599   2.346   8.336  0.00  0.00    +0.000 A 
ATOM     12  C   UNL     1      45.922   3.553   7.700  0.00  0.00    +0.000 A 
ATOM     13  C   UNL     1      46.980   3.623   6.792  0.00  0.00    +0.000 A 
ATOM     14  C   UNL     1      47.737   2.487   6.518  0.00  0.00    +0.000 A 
ATOM     15  C   UNL     1      47.435   1.281   7.147  0.00  0.00    +0.000 A 
ATOM     16  C   UNL     1      46.375   1.210   8.055  0.00  0.00    +0.000 A 
ENDBRANCH  10  11
ENDBRANCH   9  10
ENDBRANCH   8   9
ENDBRANCH   5   8
ENDBRANCH   1   2
BRANCH   1  19
ATOM     17  O   UNL     1      49.948   8.498  14.418  0.00  0.00    +0.000 OA
ATOM     18  C   UNL     1      49.618   8.432  13.237  0.00  0.00    +0.000 C 
ATOM     19  N   UNL     1      48.682   7.541  12.778  0.00  0.00    +0.000 N 
ATOM     20  H   UNL     1      48.631   7.395  11.777  0.00  0.00    +0.000 HD
BRANCH  18  21
ATOM     21  C   UNL     1      50.171   9.339  12.224  0.00  0.00    +0.000 A 
ATOM     22  C   UNL     1      51.525   9.304  11.920  0.00  0.00    +0.000 A 
ATOM     23  S   UNL     1      51.974  10.419  10.711  0.00  0.00    +0.000 S 
ATOM     24  C   UNL     1      50.367  10.957  10.538  0.00  0.00    +0.000 A 
ATOM     25  N   UNL     1      50.069  11.899   9.618  0.00  0.00    +0.000 NA
ATOM     26  C   UNL     1      48.771  12.244   9.578  0.00  0.00    +0.000 A 
ATOM     27  C   UNL     1      47.774  11.726  10.386  0.00  0.00    +0.000 A 
ATOM     28  C   UNL     1      48.140  10.761  11.316  0.00  0.00    +0.000 A 
ATOM     29  C   UNL     1      49.486  10.332  11.415  0.00  0.00    +0.000 A 
BRANCH  28  30
ATOM     30  O   UNL     1      47.175  10.242  12.143  0.00  0.00    +0.000 OA
ATOM     31  H   UNL     1      47.548   9.531  12.693  0.00  0.00    +0.000 HD
ENDBRANCH  28  30
ENDBRANCH  18  21
ENDBRANCH   1  19
TORSDOF 8
ENDMDL
MODEL 9
REMARK VINA RESULT:    -6.994      3.150      8.588
REMARK INTER + INTRA:         -11.355
REMARK INTER:                  -9.613
REMARK INTRA:                  -1.742
REMARK UNBOUND:                -1.294
REMARK  Name = 
REMARK  8 active torsions:
REMARK  status: ('A' for Active; 'I' for Inactive)
REMARK    1  A    between atoms: C_2  and  C_20
REMARK    2  A    between atoms: N_3  and  C_4
REMARK    3  A    between atoms: C_4  and  C_5
REMARK    4  A    between atoms: C_8  and  C_9
REMARK    5  A    between atoms: C_9  and  O_10
REMARK    6  A    between atoms: O_10  and  C_11
REMARK    7  A    between atoms: C_11  and  C_12
REMARK    8  A    between atoms: C_27  and  O_28
REMARK                            x       y       z     vdW  Elec       q    Type
REMARK                         _______ _______ _______ _____ _____    ______ ____
ROOT
ATOM      1  C   UNL     1      47.370   7.779  12.169  0.00  0.00    +0.000 C 
ENDROOT
BRANCH   1   2
ATOM      2  C   UNL     1      47.948   7.860  13.560  0.00  0.00    +0.000 A 
ATOM      3  C   UNL     1      47.834   9.026  14.330  0.00  0.00    +0.000 A 
ATOM      4  C   UNL     1      48.349   9.073  15.632  0.00  0.00    +0.000 A 
ATOM      5  C   UNL     1      49.005   7.965  16.185  0.00  0.00    +0.000 A 
ATOM      6  C   UNL     1      49.146   6.813  15.401  0.00  0.00    +0.000 A 
ATOM      7  C   UNL     1      48.629   6.762  14.103  0.00  0.00    +0.000 A 
BRANCH   5   8
ATOM      8  C   UNL     1      49.561   8.013  17.588  0.00  0.00    +0.000 C 
BRANCH   8   9
ATOM      9  O   UNL     1      48.570   7.547  18.497  0.00  0.00    +0.000 OA
BRANCH   9  10
ATOM     10  C   UNL     1      49.000   6.393  19.217  0.00  0.00    +0.000 C 
BRANCH  10  11
ATOM     11  C   UNL     1      48.728   5.147  18.407  0.00  0.00    +0.000 A 
ATOM     12  C   UNL     1      49.756   4.242  18.106  0.00  0.00    +0.000 A 
ATOM     13  C   UNL     1      49.493   3.073  17.390  0.00  0.00    +0.000 A 
ATOM     14  C   UNL     1      48.194   2.787  16.978  0.00  0.00    +0.000 A 
ATOM     15  C   UNL     1      47.160   3.672  17.276  0.00  0.00    +0.000 A 
ATOM     16  C   UNL     1      47.423   4.844  17.991  0.00  0.00    +0.000 A 
ENDBRANCH  10  11
ENDBRANCH   9  10
ENDBRANCH   8   9
ENDBRANCH   5   8
ENDBRANCH   1   2
BRANCH   1  19
ATOM     17  O   UNL     1      44.598   7.346  12.321  0.00  0.00    +0.000 OA
ATOM     18  C   UNL     1      45.330   6.417  11.990  0.00  0.00    +0.000 C 
ATOM     19  N   UNL     1      46.696   6.528  11.955  0.00  0.00    +0.000 N 
ATOM     20  H   UNL     1      47.209   5.805  11.465  0.00  0.00    +0.000 HD
BRANCH  18  21
ATOM     21  C   UNL     1      44.799   5.093  11.647  0.00  0.00    +0.000 A 
ATOM     22  C   UNL     1      44.098   4.355  12.591  0.00  0.00    +0.000 A 
ATOM     23  S   UNL     1      43.549   2.853  12.002  0.00  0.00    +0.000 S 
ATOM     24  C   UNL     1      44.204   3.160  10.460  0.00  0.00    +0.000 A 
ATOM     25  N   UNL     1      44.040   2.258   9.468  0.00  0.00    +0.000 NA
ATOM     26  C   UNL     1      44.604   2.610   8.301  0.00  0.00    +0.000 A 
ATOM     27  C   UNL     1      45.312   3.775   8.066  0.00  0.00    +0.000 A 
ATOM     28  C   UNL     1      45.449   4.665   9.124  0.00  0.00    +0.000 A 
ATOM     29  C   UNL     1      44.875   4.376  10.386  0.00  0.00    +0.000 A 
BRANCH  28  30
ATOM     30  O   UNL     1      46.162   5.822   8.925  0.00  0.00    +0.000 OA
ATOM     31  H   UNL     1      46.754   5.725   8.159  0.00  0.00    +0.000 HD
ENDBRANCH  28  30
ENDBRANCH  18  21
ENDBRANCH   1  19
TORSDOF 8
ENDMDL
