MODEL 1
REMARK VINA RESULT:    -7.938      0.000      0.000
REMARK INTER + INTRA:         -12.267
REMARK INTER:                 -11.186
REMARK INTRA:                  -1.081
REMARK UNBOUND:                -1.081
REMARK  Name = 
REMARK  9 active torsions:
REMARK  status: ('A' for Active; 'I' for Inactive)
REMARK    1  A    between atoms: C_1  and  C_2
REMARK    2  A    between atoms: C_6  and  C_7
REMARK    3  A    between atoms: C_7  and  C_8
REMARK    4  A    between atoms: C_7  and  N_9
REMARK    5  A    between atoms: N_9  and  C_10
REMARK    6  A    between atoms: C_10  and  C_11
REMARK    7  A    between atoms: C_14  and  C_15
REMARK    8  A    between atoms: C_15  and  N_16
REMARK    9  A    between atoms: C_17  and  C_19
REMARK                            x       y       z     vdW  Elec       q    Type
REMARK                         _______ _______ _______ _____ _____    ______ ____
ROOT
ATOM      1  C   UNL     1      44.926   5.635  12.003  0.00  0.00    +0.000 A 
ATOM      2  C   UNL     1      45.763   6.611  11.440  0.00  0.00    +0.000 A 
ATOM      3  C   UNL     1      46.953   6.985  12.072  0.00  0.00    +0.000 A 
ATOM      4  C   UNL     1      47.335   6.394  13.282  0.00  0.00    +0.000 A 
ATOM      5  C   UNL     1      46.484   5.444  13.863  0.00  0.00    +0.000 A 
ATOM      6  C   UNL     1      45.298   5.062  13.227  0.00  0.00    +0.000 A 
ENDROOT
BRANCH   1   7
ATOM      7  C   UNL     1      43.649   5.200  11.306  0.00  0.00    +0.000 C 
BRANCH   7   8
ATOM      8  N   UNL     1      43.906   4.911   9.900  0.00  0.00    +0.000 NA
ATOM      9  H   UNL     1      43.146   5.309   9.348  0.00  0.00    +0.000 HD
BRANCH   8  10
ATOM     10  C   UNL     1      43.974   3.475   9.562  0.00  0.00    +0.000 C 
ATOM     11  C   UNL     1      44.068   2.562  10.790  0.00  0.00    +0.000 C 
BRANCH  10  17
ATOM     12  C   UNL     1      46.953   0.140   7.573  0.00  0.00    +0.000 C 
ATOM     13  C   UNL     1      46.575   1.587   7.689  0.00  0.00    +0.000 A 
ATOM     14  C   UNL     1      47.302   2.566   7.022  0.00  0.00    +0.000 A 
ATOM     15  C   UNL     1      46.942   3.896   7.192  0.00  0.00    +0.000 A 
ATOM     16  C   UNL     1      45.870   4.210   8.021  0.00  0.00    +0.000 A 
ATOM     17  C   UNL     1      45.165   3.178   8.644  0.00  0.00    +0.000 A 
ATOM     18  N   UNL     1      45.514   1.874   8.485  0.00  0.00    +0.000 NA
ENDBRANCH  10  17
ENDBRANCH   8  10
ENDBRANCH   7   8
ENDBRANCH   1   7
BRANCH   4  19
ATOM     19  C   UNL     1      48.615   6.788  13.972  0.00  0.00    +0.000 C 
BRANCH  19  20
ATOM     20  N   UNL     1      48.412   6.962  15.389  0.00  0.00    +0.000 N 
ATOM     21  C   UNL     1      49.366   6.588  16.299  0.00  0.00    +0.000 C 
ATOM     22  O   UNL     1      50.449   6.122  15.954  0.00  0.00    +0.000 OA
ATOM     23  H   UNL     1      47.455   7.106  15.698  0.00  0.00    +0.000 HD
BRANCH  21  24
ATOM     24  C   UNL     1      49.052   6.834  17.712  0.00  0.00    +0.000 A 
ATOM     25  C   UNL     1      48.911   8.135  18.170  0.00  0.00    +0.000 A 
ATOM     26  S   UNL     1      48.499   8.237  19.823  0.00  0.00    +0.000 S 
ATOM     27  C   UNL     1      48.546   6.545  19.996  0.00  0.00    +0.000 A 
ATOM     28  N   UNL     1      48.313   5.958  21.202  0.00  0.00    +0.000 NA
ATOM     29  C   UNL     1      48.412   4.668  21.193  0.00  0.00    +0.000 A 
ATOM     30  N   UNL     1      48.718   3.916  20.088  0.00  0.00    +0.000 N 
ATOM     31  C   UNL     1      48.929   4.461  18.848  0.00  0.00    +0.000 A 
ATOM     32  O   UNL     1      49.147   3.757  17.872  0.00  0.00    +0.000 OA
ATOM     33  C   UNL     1      48.847   5.911  18.802  0.00  0.00    +0.000 A 
ATOM     34  H   UNL     1      48.769   2.909  20.147  0.00  0.00    +0.000 HD
ENDBRANCH  21  24
ENDBRANCH  19  20
ENDBRANCH   4  19
TORSDOF 7
ENDMDL
MODEL 2
REMARK VINA RESULT:    -7.775      1.304      2.085
REMARK INTER + INTRA:         -12.037
REMARK INTER:                 -10.868
REMARK INTRA:                  -1.169
REMARK UNBOUND:                -1.081
REMARK  Name = 
REMARK  9 active torsions:
REMARK  status: ('A' for Active; 'I' for Inactive)
REMARK    1  A    between atoms: C_1  and  C_2
REMARK    2  A    between atoms: C_6  and  C_7
REMARK    3  A    between atoms: C_7  and  C_8
REMARK    4  A    between atoms: C_7  and  N_9
REMARK    5  A    between atoms: N_9  and  C_10
REMARK    6  A    between atoms: C_10  and  C_11
REMARK    7  A    between atoms: C_14  and  C_15
REMARK    8  A    between atoms: C_15  and  N_16
REMARK    9  A    between atoms: C_17  and  C_19
REMARK                            x       y       z     vdW  Elec       q    Type
REMARK                         _______ _______ _______ _____ _____    ______ ____
ROOT
ATOM      1  C   UNL     1      45.024   5.587  11.813  0.00  0.00    +0.000 A 
ATOM      2  C   UNL     1      45.372   4.864  12.965  0.00  0.00    +0.000 A 
ATOM      3  C   UNL     1      46.477   5.236  13.739  0.00  0.00    +0.000 A 
ATOM      4  C   UNL     1      47.261   6.338  13.378  0.00  0.00    +0.000 A 
ATOM      5  C   UNL     1      46.937   7.040  12.209  0.00  0.00    +0.000 A 
ATOM      6  C   UNL     1      45.826   6.675  11.441  0.00  0.00    +0.000 A 
ENDROOT
BRANCH   1   7
ATOM      7  C   UNL     1      43.808   5.209  10.988  0.00  0.00    +0.000 C 
BRANCH   7   8
ATOM      8  N   UNL     1      44.201   4.860   9.627  0.00  0.00    +0.000 NA
ATOM      9  H   UNL     1      43.579   5.346   8.981  0.00  0.00    +0.000 HD
BRANCH   8  10
ATOM     10  C   UNL     1      44.115   3.421   9.304  0.00  0.00    +0.000 C 
ATOM     11  C   UNL     1      44.065   2.518  10.542  0.00  0.00    +0.000 C 
BRANCH  10  17
ATOM     12  C   UNL     1      46.922  -0.234   7.655  0.00  0.00    +0.000 C 
ATOM     13  C   UNL     1      46.622   1.236   7.636  0.00  0.00    +0.000 A 
ATOM     14  C   UNL     1      47.404   2.110   6.891  0.00  0.00    +0.000 A 
ATOM     15  C   UNL     1      47.115   3.467   6.936  0.00  0.00    +0.000 A 
ATOM     16  C   UNL     1      46.057   3.911   7.722  0.00  0.00    +0.000 A 
ATOM     17  C   UNL     1      45.294   2.979   8.428  0.00  0.00    +0.000 A 
ATOM     18  N   UNL     1      45.574   1.649   8.392  0.00  0.00    +0.000 NA
ENDBRANCH  10  17
ENDBRANCH   8  10
ENDBRANCH   7   8
ENDBRANCH   1   7
BRANCH   4  19
ATOM     19  C   UNL     1      48.453   6.749  14.202  0.00  0.00    +0.000 C 
BRANCH  19  20
ATOM     20  N   UNL     1      48.234   6.491  15.603  0.00  0.00    +0.000 N 
ATOM     21  C   UNL     1      49.273   6.195  16.446  0.00  0.00    +0.000 C 
ATOM     22  O   UNL     1      50.439   6.171  16.061  0.00  0.00    +0.000 OA
ATOM     23  H   UNL     1      47.284   6.264  15.881  0.00  0.00    +0.000 HD
BRANCH  21  24
ATOM     24  C   UNL     1      48.926   5.970  17.855  0.00  0.00    +0.000 A 
ATOM     25  C   UNL     1      49.151   4.728  18.430  0.00  0.00    +0.000 A 
ATOM     26  S   UNL     1      48.738   4.655  20.083  0.00  0.00    +0.000 S 
ATOM     27  C   UNL     1      48.194   6.267  20.076  0.00  0.00    +0.000 A 
ATOM     28  N   UNL     1      47.671   6.835  21.197  0.00  0.00    +0.000 NA
ATOM     29  C   UNL     1      47.270   8.054  21.038  0.00  0.00    +0.000 A 
ATOM     30  N   UNL     1      47.350   8.756  19.862  0.00  0.00    +0.000 N 
ATOM     31  C   UNL     1      47.898   8.235  18.718  0.00  0.00    +0.000 A 
ATOM     32  O   UNL     1      48.003   8.907  17.701  0.00  0.00    +0.000 OA
ATOM     33  C   UNL     1      48.350   6.860  18.834  0.00  0.00    +0.000 A 
ATOM     34  H   UNL     1      47.029   9.711  19.808  0.00  0.00    +0.000 HD
ENDBRANCH  21  24
ENDBRANCH  19  20
ENDBRANCH   4  19
TORSDOF 7
ENDMDL
MODEL 3
REMARK VINA RESULT:    -7.615      2.658      4.292
REMARK INTER + INTRA:         -11.811
REMARK INTER:                 -11.151
REMARK INTRA:                  -0.661
REMARK UNBOUND:                -1.081
REMARK  Name = 
REMARK  9 active torsions:
REMARK  status: ('A' for Active; 'I' for Inactive)
REMARK    1  A    between atoms: C_1  and  C_2
REMARK    2  A    between atoms: C_6  and  C_7
REMARK    3  A    between atoms: C_7  and  C_8
REMARK    4  A    between atoms: C_7  and  N_9
REMARK    5  A    between atoms: N_9  and  C_10
REMARK    6  A    between atoms: C_10  and  C_11
REMARK    7  A    between atoms: C_14  and  C_15
REMARK    8  A    between atoms: C_15  and  N_16
REMARK    9  A    between atoms: C_17  and  C_19
REMARK                            x       y       z     vdW  Elec       q    Type
REMARK                         _______ _______ _______ _____ _____    ______ ____
ROOT
ATOM      1  C   UNL     1      45.171   3.352   8.840  0.00  0.00    +0.000 A 
ATOM      2  C   UNL     1      45.478   4.675   9.195  0.00  0.00    +0.000 A 
ATOM      3  C   UNL     1      45.105   5.188  10.442  0.00  0.00    +0.000 A 
ATOM      4  C   UNL     1      44.415   4.391  11.363  0.00  0.00    +0.000 A 
ATOM      5  C   UNL     1      44.077   3.081  10.998  0.00  0.00    +0.000 A 
ATOM      6  C   UNL     1      44.459   2.565   9.755  0.00  0.00    +0.000 A 
ENDROOT
BRANCH   1   7
ATOM      7  C   UNL     1      45.601   2.779   7.502  0.00  0.00    +0.000 C 
BRANCH   7   8
ATOM      8  N   UNL     1      46.331   1.531   7.691  0.00  0.00    +0.000 NA
ATOM      9  H   UNL     1      46.691   1.512   8.645  0.00  0.00    +0.000 HD
BRANCH   8  10
ATOM     10  C   UNL     1      47.489   1.345   6.793  0.00  0.00    +0.000 C 
ATOM     11  C   UNL     1      48.292   2.629   6.557  0.00  0.00    +0.000 C 
BRANCH  10  17
ATOM     12  C   UNL     1      46.653  -2.572   3.980  0.00  0.00    +0.000 C 
ATOM     13  C   UNL     1      46.642  -1.077   4.099  0.00  0.00    +0.000 A 
ATOM     14  C   UNL     1      46.285  -0.282   3.016  0.00  0.00    +0.000 A 
ATOM     15  C   UNL     1      46.330   1.098   3.159  0.00  0.00    +0.000 A 
ATOM     16  C   UNL     1      46.728   1.643   4.375  0.00  0.00    +0.000 A 
ATOM     17  C   UNL     1      47.050   0.790   5.432  0.00  0.00    +0.000 A 
ATOM     18  N   UNL     1      47.013  -0.562   5.298  0.00  0.00    +0.000 NA
ENDBRANCH  10  17
ENDBRANCH   8  10
ENDBRANCH   7   8
ENDBRANCH   1   7
BRANCH   4  19
ATOM     19  C   UNL     1      44.008   4.932  12.709  0.00  0.00    +0.000 C 
BRANCH  19  20
ATOM     20  N   UNL     1      45.136   5.495  13.409  0.00  0.00    +0.000 N 
ATOM     21  C   UNL     1      46.157   4.706  13.871  0.00  0.00    +0.000 C 
ATOM     22  O   UNL     1      46.180   3.492  13.682  0.00  0.00    +0.000 OA
ATOM     23  H   UNL     1      45.018   6.431  13.785  0.00  0.00    +0.000 HD
BRANCH  21  24
ATOM     24  C   UNL     1      47.259   5.397  14.551  0.00  0.00    +0.000 A 
ATOM     25  C   UNL     1      47.953   6.401  13.893  0.00  0.00    +0.000 A 
ATOM     26  S   UNL     1      49.167   7.130  14.844  0.00  0.00    +0.000 S 
ATOM     27  C   UNL     1      48.843   6.092  16.153  0.00  0.00    +0.000 A 
ATOM     28  N   UNL     1      49.568   6.166  17.302  0.00  0.00    +0.000 NA
ATOM     29  C   UNL     1      49.233   5.296  18.199  0.00  0.00    +0.000 A 
ATOM     30  N   UNL     1      48.237   4.366  18.051  0.00  0.00    +0.000 N 
ATOM     31  C   UNL     1      47.460   4.275  16.925  0.00  0.00    +0.000 A 
ATOM     32  O   UNL     1      46.544   3.469  16.847  0.00  0.00    +0.000 OA
ATOM     33  C   UNL     1      47.805   5.218  15.875  0.00  0.00    +0.000 A 
ATOM     34  H   UNL     1      48.017   3.721  18.797  0.00  0.00    +0.000 HD
ENDBRANCH  21  24
ENDBRANCH  19  20
ENDBRANCH   4  19
TORSDOF 7
ENDMDL
MODEL 4
REMARK VINA RESULT:    -7.489      3.164      8.979
REMARK INTER + INTRA:         -11.635
REMARK INTER:                  -9.811
REMARK INTRA:                  -1.824
REMARK UNBOUND:                -1.081
REMARK  Name = 
REMARK  9 active torsions:
REMARK  status: ('A' for Active; 'I' for Inactive)
REMARK    1  A    between atoms: C_1  and  C_2
REMARK    2  A    between atoms: C_6  and  C_7
REMARK    3  A    between atoms: C_7  and  C_8
REMARK    4  A    between atoms: C_7  and  N_9
REMARK    5  A    between atoms: N_9  and  C_10
REMARK    6  A    between atoms: C_10  and  C_11
REMARK    7  A    between atoms: C_14  and  C_15
REMARK    8  A    between atoms: C_15  and  N_16
REMARK    9  A    between atoms: C_17  and  C_19
REMARK                            x       y       z     vdW  Elec       q    Type
REMARK                         _______ _______ _______ _____ _____    ______ ____
ROOT
ATOM      1  C   UNL     1      49.099   8.106  16.493  0.00  0.00    +0.000 A 
ATOM      2  C   UNL     1      49.666   7.118  15.672  0.00  0.00    +0.000 A 
ATOM      3  C   UNL     1      49.301   7.009  14.326  0.00  0.00    +0.000 A 
ATOM      4  C   UNL     1      48.361   7.884  13.768  0.00  0.00    +0.000 A 
ATOM      5  C   UNL     1      47.769   8.848  14.594  0.00  0.00    +0.000 A 
ATOM      6  C   UNL     1      48.140   8.964  15.938  0.00  0.00    +0.000 A 
ENDROOT
BRANCH   1   7
ATOM      7  C   UNL     1      49.513   8.251  17.946  0.00  0.00    +0.000 C 
BRANCH   7   8
ATOM      8  N   UNL     1      48.671   7.424  18.803  0.00  0.00    +0.000 NA
ATOM      9  H   UNL     1      48.440   7.962  19.638  0.00  0.00    +0.000 HD
BRANCH   8  10
ATOM     10  C   UNL     1      49.296   6.167  19.263  0.00  0.00    +0.000 C 
ATOM     11  C   UNL     1      50.828   6.213  19.271  0.00  0.00    +0.000 C 
BRANCH  10  17
ATOM     12  C   UNL     1      50.469   1.942  17.088  0.00  0.00    +0.000 C 
ATOM     13  C   UNL     1      49.409   2.963  17.376  0.00  0.00    +0.000 A 
ATOM     14  C   UNL     1      48.130   2.825  16.850  0.00  0.00    +0.000 A 
ATOM     15  C   UNL     1      47.191   3.815  17.108  0.00  0.00    +0.000 A 
ATOM     16  C   UNL     1      47.556   4.912  17.881  0.00  0.00    +0.000 A 
ATOM     17  C   UNL     1      48.850   4.980  18.401  0.00  0.00    +0.000 A 
ATOM     18  N   UNL     1      49.775   4.016  18.149  0.00  0.00    +0.000 NA
ENDBRANCH  10  17
ENDBRANCH   8  10
ENDBRANCH   7   8
ENDBRANCH   1   7
BRANCH   4  19
ATOM     19  C   UNL     1      47.961   7.777  12.320  0.00  0.00    +0.000 C 
BRANCH  19  20
ATOM     20  N   UNL     1      47.185   6.586  12.079  0.00  0.00    +0.000 N 
ATOM     21  C   UNL     1      45.818   6.592  12.176  0.00  0.00    +0.000 C 
ATOM     22  O   UNL     1      45.187   7.614  12.436  0.00  0.00    +0.000 OA
ATOM     23  H   UNL     1      47.685   5.703  12.110  0.00  0.00    +0.000 HD
BRANCH  21  24
ATOM     24  C   UNL     1      45.138   5.324  11.889  0.00  0.00    +0.000 A 
ATOM     25  C   UNL     1      44.459   4.661  12.901  0.00  0.00    +0.000 A 
ATOM     26  S   UNL     1      43.686   3.231  12.384  0.00  0.00    +0.000 S 
ATOM     27  C   UNL     1      44.276   3.419  10.799  0.00  0.00    +0.000 A 
ATOM     28  N   UNL     1      44.002   2.497   9.836  0.00  0.00    +0.000 NA
ATOM     29  C   UNL     1      44.541   2.751   8.688  0.00  0.00    +0.000 A 
ATOM     30  N   UNL     1      45.322   3.845   8.417  0.00  0.00    +0.000 N 
ATOM     31  C   UNL     1      45.598   4.815   9.346  0.00  0.00    +0.000 A 
ATOM     32  O   UNL     1      46.254   5.806   9.056  0.00  0.00    +0.000 OA
ATOM     33  C   UNL     1      45.032   4.571  10.662  0.00  0.00    +0.000 A 
ATOM     34  H   UNL     1      45.704   3.992   7.494  0.00  0.00    +0.000 HD
ENDBRANCH  21  24
ENDBRANCH  19  20
ENDBRANCH   4  19
TORSDOF 7
ENDMDL
MODEL 5
REMARK VINA RESULT:    -7.326      1.572      2.168
REMARK INTER + INTRA:         -11.405
REMARK INTER:                 -10.263
REMARK INTRA:                  -1.142
REMARK UNBOUND:                -1.081
REMARK  Name = 
REMARK  9 active torsions:
REMARK  status: ('A' for Active; 'I' for Inactive)
REMARK    1  A    between atoms: C_1  and  C_2
REMARK    2  A    between atoms: C_6  and  C_7
REMARK    3  A    between atoms: C_7  and  C_8
REMARK    4  A    between atoms: C_7  and  N_9
REMARK    5  A    between atoms: N_9  and  C_10
REMARK    6  A    between atoms: C_10  and  C_11
REMARK    7  A    between atoms: C_14  and  C_15
REMARK    8  A    between atoms: C_15  and  N_16
REMARK    9  A    between atoms: C_17  and  C_19
REMARK                            x       y       z     vdW  Elec       q    Type
REMARK                         _______ _______ _______ _____ _____    ______ ____
ROOT
ATOM      1  C   UNL     1      45.010   6.483  11.503  0.00  0.00    +0.000 A 
ATOM      2  C   UNL     1      46.147   5.846  12.026  0.00  0.00    +0.000 A 
ATOM      3  C   UNL     1      47.057   6.546  12.825  0.00  0.00    +0.000 A 
ATOM      4  C   UNL     1      46.853   7.900  13.120  0.00  0.00    +0.000 A 
ATOM      5  C   UNL     1      45.737   8.546  12.571  0.00  0.00    +0.000 A 
ATOM      6  C   UNL     1      44.822   7.844  11.781  0.00  0.00    +0.000 A 
ENDROOT
BRANCH   1   7
ATOM      7  C   UNL     1      44.002   5.721  10.663  0.00  0.00    +0.000 C 
BRANCH   7   8
ATOM      8  N   UNL     1      44.665   5.049   9.551  0.00  0.00    +0.000 NA
ATOM      9  H   UNL     1      44.479   5.580   8.700  0.00  0.00    +0.000 HD
BRANCH   8  10
ATOM     10  C   UNL     1      44.212   3.666   9.301  0.00  0.00    +0.000 C 
ATOM     11  C   UNL     1      43.959   2.864  10.583  0.00  0.00    +0.000 C 
BRANCH  10  17
ATOM     12  C   UNL     1      47.144   3.628   5.382  0.00  0.00    +0.000 C 
ATOM     13  C   UNL     1      46.628   2.889   6.581  0.00  0.00    +0.000 A 
ATOM     14  C   UNL     1      47.037   1.586   6.841  0.00  0.00    +0.000 A 
ATOM     15  C   UNL     1      46.502   0.926   7.939  0.00  0.00    +0.000 A 
ATOM     16  C   UNL     1      45.576   1.583   8.742  0.00  0.00    +0.000 A 
ATOM     17  C   UNL     1      45.225   2.899   8.441  0.00  0.00    +0.000 A 
ATOM     18  N   UNL     1      45.742   3.551   7.366  0.00  0.00    +0.000 NA
ENDBRANCH  10  17
ENDBRANCH   8  10
ENDBRANCH   7   8
ENDBRANCH   1   7
BRANCH   4  19
ATOM     19  C   UNL     1      47.826   8.664  13.979  0.00  0.00    +0.000 C 
BRANCH  19  20
ATOM     20  N   UNL     1      48.140   7.939  15.185  0.00  0.00    +0.000 N 
ATOM     21  C   UNL     1      49.365   7.352  15.366  0.00  0.00    +0.000 C 
ATOM     22  O   UNL     1      50.263   7.444  14.533  0.00  0.00    +0.000 OA
ATOM     23  H   UNL     1      47.355   7.645  15.757  0.00  0.00    +0.000 HD
BRANCH  21  24
ATOM     24  C   UNL     1      49.574   6.657  16.643  0.00  0.00    +0.000 A 
ATOM     25  C   UNL     1      50.426   7.201  17.592  0.00  0.00    +0.000 A 
ATOM     26  S   UNL     1      50.514   6.292  19.033  0.00  0.00    +0.000 S 
ATOM     27  C   UNL     1      49.455   5.110  18.418  0.00  0.00    +0.000 A 
ATOM     28  N   UNL     1      49.127   4.013  19.153  0.00  0.00    +0.000 NA
ATOM     29  C   UNL     1      48.339   3.184  18.549  0.00  0.00    +0.000 A 
ATOM     30  N   UNL     1      47.846   3.358  17.281  0.00  0.00    +0.000 N 
ATOM     31  C   UNL     1      48.124   4.462  16.516  0.00  0.00    +0.000 A 
ATOM     32  O   UNL     1      47.625   4.612  15.410  0.00  0.00    +0.000 OA
ATOM     33  C   UNL     1      49.021   5.420  17.139  0.00  0.00    +0.000 A 
ATOM     34  H   UNL     1      47.224   2.677  16.870  0.00  0.00    +0.000 HD
ENDBRANCH  21  24
ENDBRANCH  19  20
ENDBRANCH   4  19
TORSDOF 7
ENDMDL
MODEL 6
REMARK VINA RESULT:    -7.221      3.542      8.704
REMARK INTER + INTRA:         -11.257
REMARK INTER:                  -9.380
REMARK INTRA:                  -1.876
REMARK UNBOUND:                -1.081
REMARK  Name = 
REMARK  9 active torsions:
REMARK  status: ('A' for Active; 'I' for Inactive)
REMARK    1  A    between atoms: C_1  and  C_2
REMARK    2  A    between atoms: C_6  and  C_7
REMARK    3  A    between atoms: C_7  and  C_8
REMARK    4  A    between atoms: C_7  and  N_9
REMARK    5  A    between atoms: N_9  and  C_10
REMARK    6  A    between atoms: C_10  and  C_11
REMARK    7  A    between atoms: C_14  and  C_15
REMARK    8  A    between atoms: C_15  and  N_16
REMARK    9  A    between atoms: C_17  and  C_19
REMARK                            x       y       z     vdW  Elec       q    Type
REMARK                         _______ _______ _______ _____ _____    ______ ____
ROOT
ATOM      1  C   UNL     1      50.010   7.684  18.260  0.00  0.00    +0.000 A 
ATOM      2  C   UNL     1      50.575   7.081  17.125  0.00  0.00    +0.000 A 
ATOM      3  C   UNL     1      50.080   7.357  15.846  0.00  0.00    +0.000 A 
ATOM      4  C   UNL     1      49.010   8.241  15.670  0.00  0.00    +0.000 A 
ATOM      5  C   UNL     1      48.422   8.818  16.804  0.00  0.00    +0.000 A 
ATOM      6  C   UNL     1      48.922   8.550  18.083  0.00  0.00    +0.000 A 
ENDROOT
BRANCH   1   7
ATOM      7  C   UNL     1      50.562   7.415  19.648  0.00  0.00    +0.000 C 
BRANCH   7   8
ATOM      8  N   UNL     1      50.327   6.027  20.031  0.00  0.00    +0.000 NA
ATOM      9  H   UNL     1      50.799   5.425  19.356  0.00  0.00    +0.000 HD
BRANCH   8  10
ATOM     10  C   UNL     1      48.908   5.618  20.052  0.00  0.00    +0.000 C 
ATOM     11  C   UNL     1      48.509   4.856  21.320  0.00  0.00    +0.000 C 
BRANCH  10  17
ATOM     12  C   UNL     1      50.247   2.032  17.002  0.00  0.00    +0.000 C 
ATOM     13  C   UNL     1      49.201   3.034  17.391  0.00  0.00    +0.000 A 
ATOM     14  C   UNL     1      48.029   3.160  16.654  0.00  0.00    +0.000 A 
ATOM     15  C   UNL     1      47.108   4.130  17.027  0.00  0.00    +0.000 A 
ATOM     16  C   UNL     1      47.382   4.943  18.121  0.00  0.00    +0.000 A 
ATOM     17  C   UNL     1      48.566   4.749  18.835  0.00  0.00    +0.000 A 
ATOM     18  N   UNL     1      49.475   3.805  18.474  0.00  0.00    +0.000 NA
ENDBRANCH  10  17
ENDBRANCH   8  10
ENDBRANCH   7   8
ENDBRANCH   1   7
BRANCH   4  19
ATOM     19  C   UNL     1      48.469   8.547  14.298  0.00  0.00    +0.000 C 
BRANCH  19  20
ATOM     20  N   UNL     1      47.434   7.615  13.925  0.00  0.00    +0.000 N 
ATOM     21  C   UNL     1      47.715   6.488  13.198  0.00  0.00    +0.000 C 
ATOM     22  O   UNL     1      48.861   6.198  12.860  0.00  0.00    +0.000 OA
ATOM     23  H   UNL     1      46.478   7.952  13.973  0.00  0.00    +0.000 HD
BRANCH  21  24
ATOM     24  C   UNL     1      46.582   5.606  12.895  0.00  0.00    +0.000 A 
ATOM     25  C   UNL     1      46.672   4.249  13.169  0.00  0.00    +0.000 A 
ATOM     26  S   UNL     1      45.249   3.382  12.802  0.00  0.00    +0.000 S 
ATOM     27  C   UNL     1      44.480   4.781  12.215  0.00  0.00    +0.000 A 
ATOM     28  N   UNL     1      43.219   4.727  11.707  0.00  0.00    +0.000 NA
ATOM     29  C   UNL     1      42.772   5.859  11.268  0.00  0.00    +0.000 A 
ATOM     30  N   UNL     1      43.471   7.039  11.299  0.00  0.00    +0.000 N 
ATOM     31  C   UNL     1      44.731   7.147  11.829  0.00  0.00    +0.000 A 
ATOM     32  O   UNL     1      45.305   8.226  11.890  0.00  0.00    +0.000 OA
ATOM     33  C   UNL     1      45.291   5.900  12.321  0.00  0.00    +0.000 A 
ATOM     34  H   UNL     1      43.060   7.892  10.950  0.00  0.00    +0.000 HD
ENDBRANCH  21  24
ENDBRANCH  19  20
ENDBRANCH   4  19
TORSDOF 7
ENDMDL
MODEL 7
REMARK VINA RESULT:    -7.154      3.532      8.691
REMARK INTER + INTRA:         -11.162
REMARK INTER:                  -9.786
REMARK INTRA:                  -1.376
REMARK UNBOUND:                -1.081
REMARK  Name = 
REMARK  9 active torsions:
REMARK  status: ('A' for Active; 'I' for Inactive)
REMARK    1  A    between atoms: C_1  and  C_2
REMARK    2  A    between atoms: C_6  and  C_7
REMARK    3  A    between atoms: C_7  and  C_8
REMARK    4  A    between atoms: C_7  and  N_9
REMARK    5  A    between atoms: N_9  and  C_10
REMARK    6  A    between atoms: C_10  and  C_11
REMARK    7  A    between atoms: C_14  and  C_15
REMARK    8  A    between atoms: C_15  and  N_16
REMARK    9  A    between atoms: C_17  and  C_19
REMARK                            x       y       z     vdW  Elec       q    Type
REMARK                         _______ _______ _______ _____ _____    ______ ____
ROOT
ATOM      1  C   UNL     1      50.132   7.158  15.738  0.00  0.00    +0.000 A 
ATOM      2  C   UNL     1      50.857   7.896  14.790  0.00  0.00    +0.000 A 
ATOM      3  C   UNL     1      50.306   8.194  13.539  0.00  0.00    +0.000 A 
ATOM      4  C   UNL     1      49.017   7.760  13.207  0.00  0.00    +0.000 A 
ATOM      5  C   UNL     1      48.305   6.994  14.139  0.00  0.00    +0.000 A 
ATOM      6  C   UNL     1      48.852   6.704  15.393  0.00  0.00    +0.000 A 
ENDROOT
BRANCH   1   7
ATOM      7  C   UNL     1      50.712   6.859  17.109  0.00  0.00    +0.000 C 
BRANCH   7   8
ATOM      8  N   UNL     1      49.650   6.770  18.105  0.00  0.00    +0.000 NA
ATOM      9  H   UNL     1      49.723   7.579  18.722  0.00  0.00    +0.000 HD
BRANCH   8  10
ATOM     10  C   UNL     1      49.702   5.570  18.965  0.00  0.00    +0.000 C 
ATOM     11  C   UNL     1      51.008   5.443  19.759  0.00  0.00    +0.000 C 
BRANCH  10  17
ATOM     12  C   UNL     1      51.599   1.376  17.301  0.00  0.00    +0.000 C 
ATOM     13  C   UNL     1      50.411   2.290  17.360  0.00  0.00    +0.000 A 
ATOM     14  C   UNL     1      49.243   1.980  16.673  0.00  0.00    +0.000 A 
ATOM     15  C   UNL     1      48.182   2.874  16.723  0.00  0.00    +0.000 A 
ATOM     16  C   UNL     1      48.318   4.050  17.454  0.00  0.00    +0.000 A 
ATOM     17  C   UNL     1      49.508   4.291  18.142  0.00  0.00    +0.000 A 
ATOM     18  N   UNL     1      50.553   3.421  18.095  0.00  0.00    +0.000 NA
ENDBRANCH  10  17
ENDBRANCH   8  10
ENDBRANCH   7   8
ENDBRANCH   1   7
BRANCH   4  19
ATOM     19  C   UNL     1      48.411   8.075  11.864  0.00  0.00    +0.000 C 
BRANCH  19  20
ATOM     20  N   UNL     1      47.673   6.950  11.347  0.00  0.00    +0.000 N 
ATOM     21  C   UNL     1      46.303   6.939  11.334  0.00  0.00    +0.000 C 
ATOM     22  O   UNL     1      45.639   7.895  11.727  0.00  0.00    +0.000 OA
ATOM     23  H   UNL     1      48.181   6.075  11.254  0.00  0.00    +0.000 HD
BRANCH  21  24
ATOM     24  C   UNL     1      45.665   5.745  10.766  0.00  0.00    +0.000 A 
ATOM     25  C   UNL     1      45.779   5.483   9.409  0.00  0.00    +0.000 A 
ATOM     26  S   UNL     1      45.021   4.033   8.925  0.00  0.00    +0.000 S 
ATOM     27  C   UNL     1      44.467   3.731  10.506  0.00  0.00    +0.000 A 
ATOM     28  N   UNL     1      43.706   2.638  10.784  0.00  0.00    +0.000 NA
ATOM     29  C   UNL     1      43.330   2.552  12.019  0.00  0.00    +0.000 A 
ATOM     30  N   UNL     1      43.652   3.457  12.998  0.00  0.00    +0.000 N 
ATOM     31  C   UNL     1      44.441   4.555  12.770  0.00  0.00    +0.000 A 
ATOM     32  O   UNL     1      44.753   5.314  13.678  0.00  0.00    +0.000 OA
ATOM     33  C   UNL     1      44.878   4.712  11.394  0.00  0.00    +0.000 A 
ATOM     34  H   UNL     1      43.335   3.325  13.948  0.00  0.00    +0.000 HD
ENDBRANCH  21  24
ENDBRANCH  19  20
ENDBRANCH   4  19
TORSDOF 7
ENDMDL
MODEL 8
REMARK VINA RESULT:    -6.801      1.532      2.224
REMARK INTER + INTRA:         -10.664
REMARK INTER:                  -9.445
REMARK INTRA:                  -1.219
REMARK UNBOUND:                -1.081
REMARK  Name = 
REMARK  9 active torsions:
REMARK  status: ('A' for Active; 'I' for Inactive)
REMARK    1  A    between atoms: C_1  and  C_2
REMARK    2  A    between atoms: C_6  and  C_7
REMARK    3  A    between atoms: C_7  and  C_8
REMARK    4  A    between atoms: C_7  and  N_9
REMARK    5  A    between atoms: N_9  and  C_10
REMARK    6  A    between atoms: C_10  and  C_11
REMARK    7  A    between atoms: C_14  and  C_15
REMARK    8  A    between atoms: C_15  and  N_16
REMARK    9  A    between atoms: C_17  and  C_19
REMARK                            x       y       z     vdW  Elec       q    Type
REMARK                         _______ _______ _______ _____ _____    ______ ____
ROOT
ATOM      1  C   UNL     1      46.026   7.300  12.517  0.00  0.00    +0.000 A 
ATOM      2  C   UNL     1      46.892   6.201  12.404  0.00  0.00    +0.000 A 
ATOM      3  C   UNL     1      48.136   6.199  13.044  0.00  0.00    +0.000 A 
ATOM      4  C   UNL     1      48.544   7.297  13.811  0.00  0.00    +0.000 A 
ATOM      5  C   UNL     1      47.696   8.409  13.897  0.00  0.00    +0.000 A 
ATOM      6  C   UNL     1      46.449   8.407  13.265  0.00  0.00    +0.000 A 
ENDROOT
BRANCH   1   7
ATOM      7  C   UNL     1      44.662   7.295  11.852  0.00  0.00    +0.000 C 
BRANCH   7   8
ATOM      8  N   UNL     1      44.702   6.538  10.605  0.00  0.00    +0.000 NA
ATOM      9  H   UNL     1      44.414   7.156   9.847  0.00  0.00    +0.000 HD
BRANCH   8  10
ATOM     10  C   UNL     1      43.810   5.362  10.563  0.00  0.00    +0.000 C 
ATOM     11  C   UNL     1      43.414   4.844  11.950  0.00  0.00    +0.000 C 
BRANCH  10  17
ATOM     12  C   UNL     1      46.733   3.954   6.898  0.00  0.00    +0.000 C 
ATOM     13  C   UNL     1      45.851   3.543   8.040  0.00  0.00    +0.000 A 
ATOM     14  C   UNL     1      45.627   2.200   8.315  0.00  0.00    +0.000 A 
ATOM     15  C   UNL     1      44.771   1.865   9.356  0.00  0.00    +0.000 A 
ATOM     16  C   UNL     1      44.165   2.880  10.089  0.00  0.00    +0.000 A 
ATOM     17  C   UNL     1      44.450   4.210   9.778  0.00  0.00    +0.000 A 
ATOM     18  N   UNL     1      45.284   4.545   8.758  0.00  0.00    +0.000 NA
ENDBRANCH  10  17
ENDBRANCH   8  10
ENDBRANCH   7   8
ENDBRANCH   1   7
BRANCH   4  19
ATOM     19  C   UNL     1      49.881   7.307  14.506  0.00  0.00    +0.000 C 
BRANCH  19  20
ATOM     20  N   UNL     1      49.725   7.349  15.939  0.00  0.00    +0.000 N 
ATOM     21  C   UNL     1      50.678   6.833  16.777  0.00  0.00    +0.000 C 
ATOM     22  O   UNL     1      51.723   6.344  16.354  0.00  0.00    +0.000 OA
ATOM     23  H   UNL     1      48.787   7.514  16.290  0.00  0.00    +0.000 HD
BRANCH  21  24
ATOM     24  C   UNL     1      50.416   6.952  18.216  0.00  0.00    +0.000 A 
ATOM     25  C   UNL     1      51.348   7.567  19.038  0.00  0.00    +0.000 A 
ATOM     26  S   UNL     1      50.862   7.663  20.671  0.00  0.00    +0.000 S 
ATOM     27  C   UNL     1      49.410   6.838  20.346  0.00  0.00    +0.000 A 
ATOM     28  N   UNL     1      48.527   6.554  21.342  0.00  0.00    +0.000 NA
ATOM     29  C   UNL     1      47.483   5.896  20.956  0.00  0.00    +0.000 A 
ATOM     30  N   UNL     1      47.242   5.501  19.664  0.00  0.00    +0.000 N 
ATOM     31  C   UNL     1      48.087   5.791  18.624  0.00  0.00    +0.000 A 
ATOM     32  O   UNL     1      47.815   5.471  17.476  0.00  0.00    +0.000 OA
ATOM     33  C   UNL     1      49.288   6.516  19.004  0.00  0.00    +0.000 A 
ATOM     34  H   UNL     1      46.399   4.998  19.427  0.00  0.00    +0.000 HD
ENDBRANCH  21  24
ENDBRANCH  19  20
ENDBRANCH   4  19
TORSDOF 7
ENDMDL
MODEL 9
REMARK VINA RESULT:    -6.797      2.415      3.061
REMARK INTER + INTRA:         -10.659
REMARK INTER:                  -9.311
REMARK INTRA:                  -1.348
REMARK UNBOUND:                -1.081
REMARK  Name = 
REMARK  9 active torsions:
REMARK  status: ('A' for Active; 'I' for Inactive)
REMARK    1  A    between atoms: C_1  and  C_2
REMARK    2  A    between atoms: C_6  and  C_7
REMARK    3  A    between atoms: C_7  and  C_8
REMARK    4  A    between atoms: C_7  and  N_9
REMARK    5  A    between atoms: N_9  and  C_10
REMARK    6  A    between atoms: C_10  and  C_11
REMARK    7  A    between atoms: C_14  and  C_15
REMARK    8  A    between atoms: C_15  and  N_16
REMARK    9  A    between atoms: C_17  and  C_19
REMARK                            x       y       z     vdW  Elec       q    Type
REMARK                         _______ _______ _______ _____ _____    ______ ____
ROOT
ATOM      1  C   UNL     1      46.049   7.646  12.185  0.00  0.00    +0.000 A 
ATOM      2  C   UNL     1      47.132   7.045  11.524  0.00  0.00    +0.000 A 
ATOM      3  C   UNL     1      48.449   7.329  11.902  0.00  0.00    +0.000 A 
ATOM      4  C   UNL     1      48.714   8.221  12.947  0.00  0.00    +0.000 A 
ATOM      5  C   UNL     1      47.636   8.848  13.585  0.00  0.00    +0.000 A 
ATOM      6  C   UNL     1      46.319   8.557  13.215  0.00  0.00    +0.000 A 
ENDROOT
BRANCH   1   7
ATOM      7  C   UNL     1      44.617   7.318  11.803  0.00  0.00    +0.000 C 
BRANCH   7   8
ATOM      8  N   UNL     1      44.585   6.477  10.611  0.00  0.00    +0.000 NA
ATOM      9  H   UNL     1      44.123   6.998   9.865  0.00  0.00    +0.000 HD
BRANCH   8  10
ATOM     10  C   UNL     1      43.848   5.207  10.765  0.00  0.00    +0.000 C 
ATOM     11  C   UNL     1      43.782   4.711  12.214  0.00  0.00    +0.000 C 
BRANCH  10  17
ATOM     12  C   UNL     1      46.785   4.002   7.040  0.00  0.00    +0.000 C 
ATOM     13  C   UNL     1      45.874   3.530   8.134  0.00  0.00    +0.000 A 
ATOM     14  C   UNL     1      45.606   2.176   8.300  0.00  0.00    +0.000 A 
ATOM     15  C   UNL     1      44.725   1.788   9.299  0.00  0.00    +0.000 A 
ATOM     16  C   UNL     1      44.137   2.759  10.102  0.00  0.00    +0.000 A 
ATOM     17  C   UNL     1      44.467   4.101   9.901  0.00  0.00    +0.000 A 
ATOM     18  N   UNL     1      45.326   4.489   8.922  0.00  0.00    +0.000 NA
ENDBRANCH  10  17
ENDBRANCH   8  10
ENDBRANCH   7   8
ENDBRANCH   1   7
BRANCH   4  19
ATOM     19  C   UNL     1      50.128   8.535  13.363  0.00  0.00    +0.000 C 
BRANCH  19  20
ATOM     20  N   UNL     1      50.639   7.538  14.271  0.00  0.00    +0.000 N 
ATOM     21  C   UNL     1      51.028   7.863  15.544  0.00  0.00    +0.000 C 
ATOM     22  O   UNL     1      50.928   9.005  15.985  0.00  0.00    +0.000 OA
ATOM     23  H   UNL     1      50.957   6.666  13.858  0.00  0.00    +0.000 HD
BRANCH  21  24
ATOM     24  C   UNL     1      51.513   6.758  16.380  0.00  0.00    +0.000 A 
ATOM     25  C   UNL     1      52.835   6.742  16.800  0.00  0.00    +0.000 A 
ATOM     26  S   UNL     1      53.217   5.416  17.803  0.00  0.00    +0.000 S 
ATOM     27  C   UNL     1      51.641   4.788  17.668  0.00  0.00    +0.000 A 
ATOM     28  N   UNL     1      51.298   3.620  18.276  0.00  0.00    +0.000 NA
ATOM     29  C   UNL     1      50.078   3.247  18.063  0.00  0.00    +0.000 A 
ATOM     30  N   UNL     1      49.172   3.940  17.301  0.00  0.00    +0.000 N 
ATOM     31  C   UNL     1      49.464   5.136  16.696  0.00  0.00    +0.000 A 
ATOM     32  O   UNL     1      48.616   5.754  16.069  0.00  0.00    +0.000 OA
ATOM     33  C   UNL     1      50.829   5.594  16.888  0.00  0.00    +0.000 A 
ATOM     34  H   UNL     1      48.229   3.600  17.184  0.00  0.00    +0.000 HD
ENDBRANCH  21  24
ENDBRANCH  19  20
ENDBRANCH   4  19
TORSDOF 7
ENDMDL
