MODEL 1
REMARK VINA RESULT:    -8.469      0.000      0.000
REMARK INTER + INTRA:         -13.445
REMARK INTER:                 -12.182
REMARK INTRA:                  -1.263
REMARK UNBOUND:                -1.263
REMARK  Name = 
REMARK  9 active torsions:
REMARK  status: ('A' for Active; 'I' for Inactive)
REMARK    1  A    between atoms: C_1  and  N_2
REMARK    2  A    between atoms: C_4  and  C_5
REMARK    3  A    between atoms: N_7  and  C_8
REMARK    4  A    between atoms: C_8  and  C_9
REMARK    5  A    between atoms: C_12  and  C_13
REMARK    6  A    between atoms: C_13  and  N_14
REMARK    7  A    between atoms: N_14  and  C_15
REMARK    8  A    between atoms: C_15  and  C_16
REMARK    9  A    between atoms: C_25  and  O_26
REMARK                            x       y       z     vdW  Elec       q    Type
REMARK                         _______ _______ _______ _____ _____    ______ ____
ROOT
ATOM      1  C   UNL     1      47.089   8.027  13.351  0.00  0.00    +0.000 C 
ENDROOT
BRANCH   1   2
ATOM      2  C   UNL     1      46.172   7.155  12.536  0.00  0.00    +0.000 A 
ATOM      3  C   UNL     1      46.643   6.621  11.330  0.00  0.00    +0.000 A 
ATOM      4  C   UNL     1      45.821   5.811  10.543  0.00  0.00    +0.000 A 
ATOM      5  C   UNL     1      44.516   5.504  10.952  0.00  0.00    +0.000 A 
ATOM      6  C   UNL     1      44.045   6.037  12.152  0.00  0.00    +0.000 A 
ATOM      7  C   UNL     1      44.861   6.857  12.931  0.00  0.00    +0.000 A 
BRANCH   5   8
ATOM      8  C   UNL     1      43.579   4.630  10.158  0.00  0.00    +0.000 C 
BRANCH   8   9
ATOM      9  N   UNL     1      44.221   4.149   8.947  0.00  0.00    +0.000 NA
ATOM     10  H   UNL     1      45.007   4.760   8.730  0.00  0.00    +0.000 HD
BRANCH   9  11
ATOM     11  C   UNL     1      44.727   2.788   9.098  0.00  0.00    +0.000 C 
BRANCH  11  12
ATOM     12  C   UNL     1      45.749   2.486   8.026  0.00  0.00    +0.000 A 
ATOM     13  C   UNL     1      46.448   1.269   7.983  0.00  0.00    +0.000 A 
ATOM     14  C   UNL     1      47.376   1.015   6.971  0.00  0.00    +0.000 A 
ATOM     15  C   UNL     1      47.622   1.981   5.999  0.00  0.00    +0.000 A 
ATOM     16  C   UNL     1      46.945   3.199   6.039  0.00  0.00    +0.000 A 
ATOM     17  C   UNL     1      46.010   3.449   7.041  0.00  0.00    +0.000 A 
ENDBRANCH  11  12
ENDBRANCH   9  11
ENDBRANCH   8   9
ENDBRANCH   5   8
ENDBRANCH   1   2
BRANCH   1  20
ATOM     18  C   UNL     1      48.774   6.827  14.671  0.00  0.00    +0.000 C 
ATOM     19  O   UNL     1      49.582   6.816  13.761  0.00  0.00    +0.000 OA
ATOM     20  N   UNL     1      47.531   7.388  14.569  0.00  0.00    +0.000 N 
ATOM     21  H   UNL     1      46.927   7.371  15.370  0.00  0.00    +0.000 HD
BRANCH  18  25
ATOM     22  C   UNL     1      50.789   5.773  19.139  0.00  0.00    +0.000 C 
ATOM     23  N   UNL     1      49.946   5.731  17.967  0.00  0.00    +0.000 N 
ATOM     24  C   UNL     1      50.046   6.572  16.886  0.00  0.00    +0.000 A 
ATOM     25  C   UNL     1      49.063   6.220  15.966  0.00  0.00    +0.000 A 
ATOM     26  C   UNL     1      48.350   5.117  16.532  0.00  0.00    +0.000 A 
ATOM     27  C   UNL     1      47.279   4.299  16.160  0.00  0.00    +0.000 A 
ATOM     28  N   UNL     1      46.858   3.321  16.978  0.00  0.00    +0.000 NA
ATOM     29  C   UNL     1      47.504   3.170  18.145  0.00  0.00    +0.000 A 
ATOM     30  N   UNL     1      48.543   3.880  18.625  0.00  0.00    +0.000 NA
ATOM     31  C   UNL     1      48.921   4.843  17.767  0.00  0.00    +0.000 A 
BRANCH  27  32
ATOM     32  O   UNL     1      46.586   4.414  14.979  0.00  0.00    +0.000 OA
ATOM     33  H   UNL     1      46.966   3.773  14.341  0.00  0.00    +0.000 HD
ENDBRANCH  27  32
ENDBRANCH  18  25
ENDBRANCH   1  20
TORSDOF 8
ENDMDL
MODEL 2
REMARK VINA RESULT:    -8.053      1.683      2.037
REMARK INTER + INTRA:         -12.848
REMARK INTER:                 -11.630
REMARK INTRA:                  -1.218
REMARK UNBOUND:                -1.263
REMARK  Name = 
REMARK  9 active torsions:
REMARK  status: ('A' for Active; 'I' for Inactive)
REMARK    1  A    between atoms: C_1  and  N_2
REMARK    2  A    between atoms: C_4  and  C_5
REMARK    3  A    between atoms: N_7  and  C_8
REMARK    4  A    between atoms: C_8  and  C_9
REMARK    5  A    between atoms: C_12  and  C_13
REMARK    6  A    between atoms: C_13  and  N_14
REMARK    7  A    between atoms: N_14  and  C_15
REMARK    8  A    between atoms: C_15  and  C_16
REMARK    9  A    between atoms: C_25  and  O_26
REMARK                            x       y       z     vdW  Elec       q    Type
REMARK                         _______ _______ _______ _____ _____    ______ ____
ROOT
ATOM      1  C   UNL     1      48.069   6.643  13.342  0.00  0.00    +0.000 C 
ENDROOT
BRANCH   1   2
ATOM      2  C   UNL     1      46.880   5.934  12.752  0.00  0.00    +0.000 A 
ATOM      3  C   UNL     1      46.351   6.395  11.540  0.00  0.00    +0.000 A 
ATOM      4  C   UNL     1      45.245   5.766  10.963  0.00  0.00    +0.000 A 
ATOM      5  C   UNL     1      44.654   4.653  11.577  0.00  0.00    +0.000 A 
ATOM      6  C   UNL     1      45.178   4.195  12.785  0.00  0.00    +0.000 A 
ATOM      7  C   UNL     1      46.274   4.831  13.369  0.00  0.00    +0.000 A 
BRANCH   5   8
ATOM      8  C   UNL     1      43.466   3.921  11.006  0.00  0.00    +0.000 C 
BRANCH   8   9
ATOM      9  N   UNL     1      43.707   3.540   9.625  0.00  0.00    +0.000 NA
ATOM     10  H   UNL     1      44.243   4.278   9.172  0.00  0.00    +0.000 HD
BRANCH   9  11
ATOM     11  C   UNL     1      44.465   2.296   9.524  0.00  0.00    +0.000 C 
BRANCH  11  12
ATOM     12  C   UNL     1      45.551   2.426   8.482  0.00  0.00    +0.000 A 
ATOM     13  C   UNL     1      45.824   3.642   7.836  0.00  0.00    +0.000 A 
ATOM     14  C   UNL     1      46.844   3.733   6.887  0.00  0.00    +0.000 A 
ATOM     15  C   UNL     1      47.594   2.604   6.566  0.00  0.00    +0.000 A 
ATOM     16  C   UNL     1      47.324   1.387   7.191  0.00  0.00    +0.000 A 
ATOM     17  C   UNL     1      46.314   1.298   8.146  0.00  0.00    +0.000 A 
ENDBRANCH  11  12
ENDBRANCH   9  11
ENDBRANCH   8   9
ENDBRANCH   5   8
ENDBRANCH   1   2
BRANCH   1  20
ATOM     18  C   UNL     1      49.116   6.864  15.552  0.00  0.00    +0.000 C 
ATOM     19  O   UNL     1      50.244   6.850  15.097  0.00  0.00    +0.000 OA
ATOM     20  N   UNL     1      47.990   6.764  14.780  0.00  0.00    +0.000 N 
ATOM     21  H   UNL     1      47.094   6.800  15.228  0.00  0.00    +0.000 HD
BRANCH  18  25
ATOM     22  C   UNL     1      48.145   8.658  20.131  0.00  0.00    +0.000 C 
ATOM     23  N   UNL     1      48.429   7.755  19.040  0.00  0.00    +0.000 N 
ATOM     24  C   UNL     1      48.616   8.124  17.730  0.00  0.00    +0.000 A 
ATOM     25  C   UNL     1      48.862   6.976  16.984  0.00  0.00    +0.000 A 
ATOM     26  C   UNL     1      48.821   5.877  17.898  0.00  0.00    +0.000 A 
ATOM     27  C   UNL     1      48.979   4.490  17.829  0.00  0.00    +0.000 A 
ATOM     28  N   UNL     1      48.865   3.739  18.936  0.00  0.00    +0.000 NA
ATOM     29  C   UNL     1      48.599   4.375  20.090  0.00  0.00    +0.000 A 
ATOM     30  N   UNL     1      48.425   5.694  20.297  0.00  0.00    +0.000 NA
ATOM     31  C   UNL     1      48.550   6.394  19.157  0.00  0.00    +0.000 A 
BRANCH  27  32
ATOM     32  O   UNL     1      49.251   3.794  16.676  0.00  0.00    +0.000 OA
ATOM     33  H   UNL     1      50.218   3.635  16.639  0.00  0.00    +0.000 HD
ENDBRANCH  27  32
ENDBRANCH  18  25
ENDBRANCH   1  20
TORSDOF 8
ENDMDL
MODEL 3
REMARK VINA RESULT:    -7.575      2.033      3.271
REMARK INTER + INTRA:         -12.160
REMARK INTER:                 -11.090
REMARK INTRA:                  -1.069
REMARK UNBOUND:                -1.263
REMARK  Name = 
REMARK  9 active torsions:
REMARK  status: ('A' for Active; 'I' for Inactive)
REMARK    1  A    between atoms: C_1  and  N_2
REMARK    2  A    between atoms: C_4  and  C_5
REMARK    3  A    between atoms: N_7  and  C_8
REMARK    4  A    between atoms: C_8  and  C_9
REMARK    5  A    between atoms: C_12  and  C_13
REMARK    6  A    between atoms: C_13  and  N_14
REMARK    7  A    between atoms: N_14  and  C_15
REMARK    8  A    between atoms: C_15  and  C_16
REMARK    9  A    between atoms: C_25  and  O_26
REMARK                            x       y       z     vdW  Elec       q    Type
REMARK                         _______ _______ _______ _____ _____    ______ ____
ROOT
ATOM      1  C   UNL     1      47.415   3.483  15.033  0.00  0.00    +0.000 C 
ENDROOT
BRANCH   1   2
ATOM      2  C   UNL     1      46.771   4.095  13.818  0.00  0.00    +0.000 A 
ATOM      3  C   UNL     1      45.918   3.307  13.036  0.00  0.00    +0.000 A 
ATOM      4  C   UNL     1      45.305   3.837  11.898  0.00  0.00    +0.000 A 
ATOM      5  C   UNL     1      45.519   5.172  11.526  0.00  0.00    +0.000 A 
ATOM      6  C   UNL     1      46.371   5.957  12.303  0.00  0.00    +0.000 A 
ATOM      7  C   UNL     1      46.994   5.424  13.431  0.00  0.00    +0.000 A 
BRANCH   5   8
ATOM      8  C   UNL     1      44.884   5.810  10.317  0.00  0.00    +0.000 C 
BRANCH   8   9
ATOM      9  N   UNL     1      45.501   5.331   9.093  0.00  0.00    +0.000 NA
ATOM     10  H   UNL     1      46.449   5.025   9.305  0.00  0.00    +0.000 HD
BRANCH   9  11
ATOM     11  C   UNL     1      44.773   4.205   8.516  0.00  0.00    +0.000 C 
BRANCH  11  12
ATOM     12  C   UNL     1      45.739   3.185   7.960  0.00  0.00    +0.000 A 
ATOM     13  C   UNL     1      45.783   1.863   8.431  0.00  0.00    +0.000 A 
ATOM     14  C   UNL     1      46.677   0.940   7.887  0.00  0.00    +0.000 A 
ATOM     15  C   UNL     1      47.548   1.335   6.874  0.00  0.00    +0.000 A 
ATOM     16  C   UNL     1      47.525   2.648   6.407  0.00  0.00    +0.000 A 
ATOM     17  C   UNL     1      46.624   3.567   6.941  0.00  0.00    +0.000 A 
ENDBRANCH  11  12
ENDBRANCH   9  11
ENDBRANCH   8   9
ENDBRANCH   5   8
ENDBRANCH   1   2
BRANCH   1  20
ATOM     18  C   UNL     1      47.425   4.293  17.350  0.00  0.00    +0.000 C 
ATOM     19  O   UNL     1      46.815   3.325  17.765  0.00  0.00    +0.000 OA
ATOM     20  N   UNL     1      47.761   4.465  16.035  0.00  0.00    +0.000 N 
ATOM     21  H   UNL     1      48.280   5.282  15.774  0.00  0.00    +0.000 HD
BRANCH  18  25
ATOM     22  C   UNL     1      47.451   8.042  20.679  0.00  0.00    +0.000 C 
ATOM     23  N   UNL     1      47.883   7.053  19.718  0.00  0.00    +0.000 N 
ATOM     24  C   UNL     1      47.063   6.161  19.072  0.00  0.00    +0.000 A 
ATOM     25  C   UNL     1      47.846   5.376  18.232  0.00  0.00    +0.000 A 
ATOM     26  C   UNL     1      49.193   5.829  18.388  0.00  0.00    +0.000 A 
ATOM     27  C   UNL     1      50.446   5.497  17.862  0.00  0.00    +0.000 A 
ATOM     28  N   UNL     1      51.543   6.163  18.257  0.00  0.00    +0.000 NA
ATOM     29  C   UNL     1      51.381   7.143  19.162  0.00  0.00    +0.000 A 
ATOM     30  N   UNL     1      50.243   7.563  19.744  0.00  0.00    +0.000 NA
ATOM     31  C   UNL     1      49.179   6.864  19.313  0.00  0.00    +0.000 A 
BRANCH  27  32
ATOM     32  O   UNL     1      50.664   4.505  16.937  0.00  0.00    +0.000 OA
ATOM     33  H   UNL     1      50.272   4.793  16.086  0.00  0.00    +0.000 HD
ENDBRANCH  27  32
ENDBRANCH  18  25
ENDBRANCH   1  20
TORSDOF 8
ENDMDL
MODEL 4
REMARK VINA RESULT:    -7.572      2.474      3.256
REMARK INTER + INTRA:         -12.155
REMARK INTER:                 -11.017
REMARK INTRA:                  -1.139
REMARK UNBOUND:                -1.263
REMARK  Name = 
REMARK  9 active torsions:
REMARK  status: ('A' for Active; 'I' for Inactive)
REMARK    1  A    between atoms: C_1  and  N_2
REMARK    2  A    between atoms: C_4  and  C_5
REMARK    3  A    between atoms: N_7  and  C_8
REMARK    4  A    between atoms: C_8  and  C_9
REMARK    5  A    between atoms: C_12  and  C_13
REMARK    6  A    between atoms: C_13  and  N_14
REMARK    7  A    between atoms: N_14  and  C_15
REMARK    8  A    between atoms: C_15  and  C_16
REMARK    9  A    between atoms: C_25  and  O_26
REMARK                            x       y       z     vdW  Elec       q    Type
REMARK                         _______ _______ _______ _____ _____    ______ ____
ROOT
ATOM      1  C   UNL     1      48.111   5.501  14.363  0.00  0.00    +0.000 C 
ENDROOT
BRANCH   1   2
ATOM      2  C   UNL     1      46.879   5.474  13.497  0.00  0.00    +0.000 A 
ATOM      3  C   UNL     1      46.834   6.291  12.361  0.00  0.00    +0.000 A 
ATOM      4  C   UNL     1      45.707   6.297  11.535  0.00  0.00    +0.000 A 
ATOM      5  C   UNL     1      44.608   5.474  11.819  0.00  0.00    +0.000 A 
ATOM      6  C   UNL     1      44.651   4.663  12.952  0.00  0.00    +0.000 A 
ATOM      7  C   UNL     1      45.770   4.666  13.784  0.00  0.00    +0.000 A 
BRANCH   5   8
ATOM      8  C   UNL     1      43.365   5.425  10.967  0.00  0.00    +0.000 C 
BRANCH   8   9
ATOM      9  N   UNL     1      43.642   4.808   9.682  0.00  0.00    +0.000 NA
ATOM     10  H   UNL     1      44.396   5.321   9.230  0.00  0.00    +0.000 HD
BRANCH   9  11
ATOM     11  C   UNL     1      44.055   3.414   9.821  0.00  0.00    +0.000 C 
BRANCH  11  12
ATOM     12  C   UNL     1      45.159   3.094   8.839  0.00  0.00    +0.000 A 
ATOM     13  C   UNL     1      45.757   4.082   8.041  0.00  0.00    +0.000 A 
ATOM     14  C   UNL     1      46.785   3.756   7.153  0.00  0.00    +0.000 A 
ATOM     15  C   UNL     1      47.214   2.436   7.046  0.00  0.00    +0.000 A 
ATOM     16  C   UNL     1      46.618   1.443   7.823  0.00  0.00    +0.000 A 
ATOM     17  C   UNL     1      45.602   1.769   8.718  0.00  0.00    +0.000 A 
ENDBRANCH  11  12
ENDBRANCH   9  11
ENDBRANCH   8   9
ENDBRANCH   5   8
ENDBRANCH   1   2
BRANCH   1  20
ATOM     18  C   UNL     1      48.653   5.614  16.754  0.00  0.00    +0.000 C 
ATOM     19  O   UNL     1      49.643   4.918  16.635  0.00  0.00    +0.000 OA
ATOM     20  N   UNL     1      47.838   5.951  15.708  0.00  0.00    +0.000 N 
ATOM     21  H   UNL     1      47.049   6.544  15.884  0.00  0.00    +0.000 HD
BRANCH  18  25
ATOM     22  C   UNL     1      47.236   6.040  21.544  0.00  0.00    +0.000 C 
ATOM     23  N   UNL     1      47.602   6.364  20.185  0.00  0.00    +0.000 N 
ATOM     24  C   UNL     1      47.949   5.453  19.216  0.00  0.00    +0.000 A 
ATOM     25  C   UNL     1      48.236   6.148  18.046  0.00  0.00    +0.000 A 
ATOM     26  C   UNL     1      48.047   7.535  18.337  0.00  0.00    +0.000 A 
ATOM     27  C   UNL     1      48.155   8.745  17.644  0.00  0.00    +0.000 A 
ATOM     28  N   UNL     1      47.892   9.906  18.263  0.00  0.00    +0.000 NA
ATOM     29  C   UNL     1      47.526   9.850  19.555  0.00  0.00    +0.000 A 
ATOM     30  N   UNL     1      47.382   8.763  20.336  0.00  0.00    +0.000 NA
ATOM     31  C   UNL     1      47.657   7.632  19.666  0.00  0.00    +0.000 A 
BRANCH  27  32
ATOM     32  O   UNL     1      48.526   8.855  16.325  0.00  0.00    +0.000 OA
ATOM     33  H   UNL     1      49.012   8.041  16.078  0.00  0.00    +0.000 HD
ENDBRANCH  27  32
ENDBRANCH  18  25
ENDBRANCH   1  20
TORSDOF 8
ENDMDL
MODEL 5
REMARK VINA RESULT:    -7.437      2.195      8.072
REMARK INTER + INTRA:         -11.961
REMARK INTER:                 -10.194
REMARK INTRA:                  -1.768
REMARK UNBOUND:                -1.263
REMARK  Name = 
REMARK  9 active torsions:
REMARK  status: ('A' for Active; 'I' for Inactive)
REMARK    1  A    between atoms: C_1  and  N_2
REMARK    2  A    between atoms: C_4  and  C_5
REMARK    3  A    between atoms: N_7  and  C_8
REMARK    4  A    between atoms: C_8  and  C_9
REMARK    5  A    between atoms: C_12  and  C_13
REMARK    6  A    between atoms: C_13  and  N_14
REMARK    7  A    between atoms: N_14  and  C_15
REMARK    8  A    between atoms: C_15  and  C_16
REMARK    9  A    between atoms: C_25  and  O_26
REMARK                            x       y       z     vdW  Elec       q    Type
REMARK                         _______ _______ _______ _____ _____    ______ ____
ROOT
ATOM      1  C   UNL     1      48.452   8.024  12.048  0.00  0.00    +0.000 C 
ENDROOT
BRANCH   1   2
ATOM      2  C   UNL     1      48.535   7.902  13.546  0.00  0.00    +0.000 A 
ATOM      3  C   UNL     1      48.351   9.048  14.329  0.00  0.00    +0.000 A 
ATOM      4  C   UNL     1      48.424   8.976  15.722  0.00  0.00    +0.000 A 
ATOM      5  C   UNL     1      48.668   7.753  16.363  0.00  0.00    +0.000 A 
ATOM      6  C   UNL     1      48.855   6.612  15.584  0.00  0.00    +0.000 A 
ATOM      7  C   UNL     1      48.795   6.686  14.193  0.00  0.00    +0.000 A 
BRANCH   5   8
ATOM      8  C   UNL     1      48.752   7.602  17.861  0.00  0.00    +0.000 C 
BRANCH   8   9
ATOM      9  N   UNL     1      47.626   6.838  18.368  0.00  0.00    +0.000 NA
ATOM     10  H   UNL     1      47.110   6.454  17.578  0.00  0.00    +0.000 HD
BRANCH   9  11
ATOM     11  C   UNL     1      48.054   5.730  19.218  0.00  0.00    +0.000 C 
BRANCH  11  12
ATOM     12  C   UNL     1      48.445   4.541  18.371  0.00  0.00    +0.000 A 
ATOM     13  C   UNL     1      47.509   3.834  17.599  0.00  0.00    +0.000 A 
ATOM     14  C   UNL     1      47.905   2.748  16.816  0.00  0.00    +0.000 A 
ATOM     15  C   UNL     1      49.239   2.350  16.809  0.00  0.00    +0.000 A 
ATOM     16  C   UNL     1      50.176   3.035  17.583  0.00  0.00    +0.000 A 
ATOM     17  C   UNL     1      49.784   4.126  18.355  0.00  0.00    +0.000 A 
ENDBRANCH  11  12
ENDBRANCH   9  11
ENDBRANCH   8   9
ENDBRANCH   5   8
ENDBRANCH   1   2
BRANCH   1  20
ATOM     18  C   UNL     1      46.334   6.955  11.422  0.00  0.00    +0.000 C 
ATOM     19  O   UNL     1      45.660   7.841  11.912  0.00  0.00    +0.000 OA
ATOM     20  N   UNL     1      47.702   6.950  11.441  0.00  0.00    +0.000 N 
ATOM     21  H   UNL     1      48.187   6.191  11.000  0.00  0.00    +0.000 HD
BRANCH  18  25
ATOM     22  C   UNL     1      44.945   3.527   8.037  0.00  0.00    +0.000 C 
ATOM     23  N   UNL     1      45.097   4.251   9.278  0.00  0.00    +0.000 N 
ATOM     24  C   UNL     1      45.820   5.407   9.440  0.00  0.00    +0.000 A 
ATOM     25  C   UNL     1      45.730   5.796  10.773  0.00  0.00    +0.000 A 
ATOM     26  C   UNL     1      44.912   4.823  11.428  0.00  0.00    +0.000 A 
ATOM     27  C   UNL     1      44.428   4.606  12.722  0.00  0.00    +0.000 A 
ATOM     28  N   UNL     1      43.655   3.540  12.985  0.00  0.00    +0.000 NA
ATOM     29  C   UNL     1      43.375   2.711  11.965  0.00  0.00    +0.000 A 
ATOM     30  N   UNL     1      43.771   2.801  10.681  0.00  0.00    +0.000 NA
ATOM     31  C   UNL     1      44.540   3.884  10.476  0.00  0.00    +0.000 A 
BRANCH  27  32
ATOM     32  O   UNL     1      44.685   5.422  13.796  0.00  0.00    +0.000 OA
ATOM     33  H   UNL     1      45.606   5.748  13.715  0.00  0.00    +0.000 HD
ENDBRANCH  27  32
ENDBRANCH  18  25
ENDBRANCH   1  20
TORSDOF 8
ENDMDL
MODEL 6
REMARK VINA RESULT:    -7.083      3.418      9.766
REMARK INTER + INTRA:         -11.452
REMARK INTER:                  -9.614
REMARK INTRA:                  -1.839
REMARK UNBOUND:                -1.263
REMARK  Name = 
REMARK  9 active torsions:
REMARK  status: ('A' for Active; 'I' for Inactive)
REMARK    1  A    between atoms: C_1  and  N_2
REMARK    2  A    between atoms: C_4  and  C_5
REMARK    3  A    between atoms: N_7  and  C_8
REMARK    4  A    between atoms: C_8  and  C_9
REMARK    5  A    between atoms: C_12  and  C_13
REMARK    6  A    between atoms: C_13  and  N_14
REMARK    7  A    between atoms: N_14  and  C_15
REMARK    8  A    between atoms: C_15  and  C_16
REMARK    9  A    between atoms: C_25  and  O_26
REMARK                            x       y       z     vdW  Elec       q    Type
REMARK                         _______ _______ _______ _____ _____    ______ ____
ROOT
ATOM      1  C   UNL     1      47.598   3.525  16.464  0.00  0.00    +0.000 C 
ENDROOT
BRANCH   1   2
ATOM      2  C   UNL     1      48.856   4.115  17.043  0.00  0.00    +0.000 A 
ATOM      3  C   UNL     1      49.758   3.269  17.700  0.00  0.00    +0.000 A 
ATOM      4  C   UNL     1      50.935   3.780  18.254  0.00  0.00    +0.000 A 
ATOM      5  C   UNL     1      51.242   5.144  18.150  0.00  0.00    +0.000 A 
ATOM      6  C   UNL     1      50.342   5.987  17.499  0.00  0.00    +0.000 A 
ATOM      7  C   UNL     1      49.161   5.480  16.957  0.00  0.00    +0.000 A 
BRANCH   5   8
ATOM      8  C   UNL     1      52.496   5.759  18.716  0.00  0.00    +0.000 C 
BRANCH   8   9
ATOM      9  N   UNL     1      52.557   5.578  20.156  0.00  0.00    +0.000 NA
ATOM     10  H   UNL     1      53.535   5.558  20.441  0.00  0.00    +0.000 HD
BRANCH   9  11
ATOM     11  C   UNL     1      51.893   6.662  20.874  0.00  0.00    +0.000 C 
BRANCH  11  12
ATOM     12  C   UNL     1      50.418   6.369  21.019  0.00  0.00    +0.000 A 
ATOM     13  C   UNL     1      49.945   5.133  21.490  0.00  0.00    +0.000 A 
ATOM     14  C   UNL     1      48.576   4.898  21.626  0.00  0.00    +0.000 A 
ATOM     15  C   UNL     1      47.665   5.893  21.278  0.00  0.00    +0.000 A 
ATOM     16  C   UNL     1      48.121   7.119  20.796  0.00  0.00    +0.000 A 
ATOM     17  C   UNL     1      49.487   7.359  20.671  0.00  0.00    +0.000 A 
ENDBRANCH  11  12
ENDBRANCH   9  11
ENDBRANCH   8   9
ENDBRANCH   5   8
ENDBRANCH   1   2
BRANCH   1  20
ATOM     18  C   UNL     1      46.793   4.181  14.241  0.00  0.00    +0.000 C 
ATOM     19  O   UNL     1      47.256   3.192  13.703  0.00  0.00    +0.000 OA
ATOM     20  N   UNL     1      46.910   4.436  15.579  0.00  0.00    +0.000 N 
ATOM     21  H   UNL     1      46.485   5.265  15.951  0.00  0.00    +0.000 HD
BRANCH  18  25
ATOM     22  C   UNL     1      45.362   8.530  12.198  0.00  0.00    +0.000 C 
ATOM     23  N   UNL     1      45.412   7.133  12.563  0.00  0.00    +0.000 N 
ATOM     24  C   UNL     1      46.356   6.558  13.378  0.00  0.00    +0.000 A 
ATOM     25  C   UNL     1      46.071   5.201  13.488  0.00  0.00    +0.000 A 
ATOM     26  C   UNL     1      44.900   4.964  12.701  0.00  0.00    +0.000 A 
ATOM     27  C   UNL     1      44.095   3.868  12.379  0.00  0.00    +0.000 A 
ATOM     28  N   UNL     1      43.032   4.022  11.574  0.00  0.00    +0.000 NA
ATOM     29  C   UNL     1      42.784   5.256  11.105  0.00  0.00    +0.000 A 
ATOM     30  N   UNL     1      43.471   6.391  11.334  0.00  0.00    +0.000 NA
ATOM     31  C   UNL     1      44.522   6.178  12.144  0.00  0.00    +0.000 A 
BRANCH  27  32
ATOM     32  O   UNL     1      44.306   2.588  12.832  0.00  0.00    +0.000 OA
ATOM     33  H   UNL     1      43.582   2.364  13.454  0.00  0.00    +0.000 HD
ENDBRANCH  27  32
ENDBRANCH  18  25
ENDBRANCH   1  20
TORSDOF 8
ENDMDL
MODEL 7
REMARK VINA RESULT:    -6.988      3.479      9.365
REMARK INTER + INTRA:         -11.315
REMARK INTER:                  -9.476
REMARK INTRA:                  -1.838
REMARK UNBOUND:                -1.263
REMARK  Name = 
REMARK  9 active torsions:
REMARK  status: ('A' for Active; 'I' for Inactive)
REMARK    1  A    between atoms: C_1  and  N_2
REMARK    2  A    between atoms: C_4  and  C_5
REMARK    3  A    between atoms: N_7  and  C_8
REMARK    4  A    between atoms: C_8  and  C_9
REMARK    5  A    between atoms: C_12  and  C_13
REMARK    6  A    between atoms: C_13  and  N_14
REMARK    7  A    between atoms: N_14  and  C_15
REMARK    8  A    between atoms: C_15  and  C_16
REMARK    9  A    between atoms: C_25  and  O_26
REMARK                            x       y       z     vdW  Elec       q    Type
REMARK                         _______ _______ _______ _____ _____    ______ ____
ROOT
ATOM      1  C   UNL     1      47.711   3.682  16.468  0.00  0.00    +0.000 C 
ENDROOT
BRANCH   1   2
ATOM      2  C   UNL     1      47.933   4.291  17.827  0.00  0.00    +0.000 A 
ATOM      3  C   UNL     1      47.000   5.215  18.314  0.00  0.00    +0.000 A 
ATOM      4  C   UNL     1      47.173   5.805  19.568  0.00  0.00    +0.000 A 
ATOM      5  C   UNL     1      48.275   5.472  20.369  0.00  0.00    +0.000 A 
ATOM      6  C   UNL     1      49.206   4.554  19.884  0.00  0.00    +0.000 A 
ATOM      7  C   UNL     1      49.041   3.976  18.626  0.00  0.00    +0.000 A 
BRANCH   5   8
ATOM      8  C   UNL     1      48.518   6.063  21.735  0.00  0.00    +0.000 C 
BRANCH   8   9
ATOM      9  N   UNL     1      48.280   7.496  21.729  0.00  0.00    +0.000 NA
ATOM     10  H   UNL     1      48.134   7.806  22.688  0.00  0.00    +0.000 HD
BRANCH   9  11
ATOM     11  C   UNL     1      49.409   8.237  21.175  0.00  0.00    +0.000 C 
BRANCH  11  12
ATOM     12  C   UNL     1      49.139   8.605  19.734  0.00  0.00    +0.000 A 
ATOM     13  C   UNL     1      49.954   8.155  18.683  0.00  0.00    +0.000 A 
ATOM     14  C   UNL     1      49.669   8.500  17.361  0.00  0.00    +0.000 A 
ATOM     15  C   UNL     1      48.573   9.311  17.078  0.00  0.00    +0.000 A 
ATOM     16  C   UNL     1      47.764   9.776  18.114  0.00  0.00    +0.000 A 
ATOM     17  C   UNL     1      48.040   9.422  19.432  0.00  0.00    +0.000 A 
ENDBRANCH  11  12
ENDBRANCH   9  11
ENDBRANCH   8   9
ENDBRANCH   5   8
ENDBRANCH   1   2
BRANCH   1  20
ATOM     18  C   UNL     1      46.832   4.249  14.247  0.00  0.00    +0.000 C 
ATOM     19  O   UNL     1      47.225   3.210  13.749  0.00  0.00    +0.000 OA
ATOM     20  N   UNL     1      47.024   4.574  15.562  0.00  0.00    +0.000 N 
ATOM     21  H   UNL     1      46.655   5.442  15.903  0.00  0.00    +0.000 HD
BRANCH  18  25
ATOM     22  C   UNL     1      45.440   8.565  12.111  0.00  0.00    +0.000 C 
ATOM     23  N   UNL     1      45.481   7.175  12.502  0.00  0.00    +0.000 N 
ATOM     24  C   UNL     1      46.415   6.612  13.337  0.00  0.00    +0.000 A 
ATOM     25  C   UNL     1      46.122   5.258  13.469  0.00  0.00    +0.000 A 
ATOM     26  C   UNL     1      44.958   5.012  12.676  0.00  0.00    +0.000 A 
ATOM     27  C   UNL     1      44.151   3.913  12.366  0.00  0.00    +0.000 A 
ATOM     28  N   UNL     1      43.096   4.057  11.549  0.00  0.00    +0.000 NA
ATOM     29  C   UNL     1      42.858   5.283  11.054  0.00  0.00    +0.000 A 
ATOM     30  N   UNL     1      43.548   6.419  11.269  0.00  0.00    +0.000 NA
ATOM     31  C   UNL     1      44.590   6.217  12.092  0.00  0.00    +0.000 A 
BRANCH  27  32
ATOM     32  O   UNL     1      44.352   2.641  12.845  0.00  0.00    +0.000 OA
ATOM     33  H   UNL     1      43.475   2.216  12.954  0.00  0.00    +0.000 HD
ENDBRANCH  27  32
ENDBRANCH  18  25
ENDBRANCH   1  20
TORSDOF 8
ENDMDL
MODEL 8
REMARK VINA RESULT:    -6.819      3.725      5.417
REMARK INTER + INTRA:         -11.072
REMARK INTER:                 -10.050
REMARK INTRA:                  -1.021
REMARK UNBOUND:                -1.263
REMARK  Name = 
REMARK  9 active torsions:
REMARK  status: ('A' for Active; 'I' for Inactive)
REMARK    1  A    between atoms: C_1  and  N_2
REMARK    2  A    between atoms: C_4  and  C_5
REMARK    3  A    between atoms: N_7  and  C_8
REMARK    4  A    between atoms: C_8  and  C_9
REMARK    5  A    between atoms: C_12  and  C_13
REMARK    6  A    between atoms: C_13  and  N_14
REMARK    7  A    between atoms: N_14  and  C_15
REMARK    8  A    between atoms: C_15  and  C_16
REMARK    9  A    between atoms: C_25  and  O_26
REMARK                            x       y       z     vdW  Elec       q    Type
REMARK                         _______ _______ _______ _____ _____    ______ ____
ROOT
ATOM      1  C   UNL     1      45.834   8.283  12.873  0.00  0.00    +0.000 C 
ENDROOT
BRANCH   1   2
ATOM      2  C   UNL     1      45.259   6.959  12.445  0.00  0.00    +0.000 A 
ATOM      3  C   UNL     1      45.956   5.786  12.758  0.00  0.00    +0.000 A 
ATOM      4  C   UNL     1      45.458   4.539  12.375  0.00  0.00    +0.000 A 
ATOM      5  C   UNL     1      44.243   4.437  11.683  0.00  0.00    +0.000 A 
ATOM      6  C   UNL     1      43.548   5.604  11.368  0.00  0.00    +0.000 A 
ATOM      7  C   UNL     1      44.053   6.850  11.738  0.00  0.00    +0.000 A 
BRANCH   5   8
ATOM      8  C   UNL     1      43.643   3.124  11.247  0.00  0.00    +0.000 C 
BRANCH   8   9
ATOM      9  N   UNL     1      44.486   2.470  10.262  0.00  0.00    +0.000 NA
ATOM     10  H   UNL     1      44.093   1.555  10.052  0.00  0.00    +0.000 HD
BRANCH   9  11
ATOM     11  C   UNL     1      44.567   3.231   9.018  0.00  0.00    +0.000 C 
BRANCH  11  12
ATOM     12  C   UNL     1      45.617   2.638   8.108  0.00  0.00    +0.000 A 
ATOM     13  C   UNL     1      46.105   1.333   8.281  0.00  0.00    +0.000 A 
ATOM     14  C   UNL     1      47.065   0.809   7.414  0.00  0.00    +0.000 A 
ATOM     15  C   UNL     1      47.558   1.591   6.373  0.00  0.00    +0.000 A 
ATOM     16  C   UNL     1      47.093   2.894   6.199  0.00  0.00    +0.000 A 
ATOM     17  C   UNL     1      46.125   3.414   7.055  0.00  0.00    +0.000 A 
ENDBRANCH  11  12
ENDBRANCH   9  11
ENDBRANCH   8   9
ENDBRANCH   5   8
ENDBRANCH   1   2
BRANCH   1  20
ATOM     18  C   UNL     1      48.225   8.756  13.157  0.00  0.00    +0.000 C 
ATOM     19  O   UNL     1      48.145   8.799  14.370  0.00  0.00    +0.000 OA
ATOM     20  N   UNL     1      47.155   8.516  12.339  0.00  0.00    +0.000 N 
ATOM     21  H   UNL     1      47.306   8.479  11.348  0.00  0.00    +0.000 HD
BRANCH  18  25
ATOM     22  C   UNL     1      52.967   8.373  11.576  0.00  0.00    +0.000 C 
ATOM     23  N   UNL     1      51.603   8.821  11.736  0.00  0.00    +0.000 N 
ATOM     24  C   UNL     1      50.682   8.273  12.595  0.00  0.00    +0.000 A 
ATOM     25  C   UNL     1      49.488   8.973  12.459  0.00  0.00    +0.000 A 
ATOM     26  C   UNL     1      49.716   9.985  11.475  0.00  0.00    +0.000 A 
ATOM     27  C   UNL     1      48.975  11.007  10.875  0.00  0.00    +0.000 A 
ATOM     28  N   UNL     1      49.538  11.797   9.946  0.00  0.00    +0.000 NA
ATOM     29  C   UNL     1      50.823  11.562   9.630  0.00  0.00    +0.000 A 
ATOM     30  N   UNL     1      51.647  10.620  10.127  0.00  0.00    +0.000 NA
ATOM     31  C   UNL     1      51.032   9.861  11.049  0.00  0.00    +0.000 A 
BRANCH  27  32
ATOM     32  O   UNL     1      47.661  11.288  11.162  0.00  0.00    +0.000 OA
ATOM     33  H   UNL     1      47.100  10.786  10.535  0.00  0.00    +0.000 HD
ENDBRANCH  27  32
ENDBRANCH  18  25
ENDBRANCH   1  20
TORSDOF 8
ENDMDL
MODEL 9
REMARK VINA RESULT:    -6.775      3.373      8.846
REMARK INTER + INTRA:         -11.009
REMARK INTER:                  -9.013
REMARK INTRA:                  -1.996
REMARK UNBOUND:                -1.263
REMARK  Name = 
REMARK  9 active torsions:
REMARK  status: ('A' for Active; 'I' for Inactive)
REMARK    1  A    between atoms: C_1  and  N_2
REMARK    2  A    between atoms: C_4  and  C_5
REMARK    3  A    between atoms: N_7  and  C_8
REMARK    4  A    between atoms: C_8  and  C_9
REMARK    5  A    between atoms: C_12  and  C_13
REMARK    6  A    between atoms: C_13  and  N_14
REMARK    7  A    between atoms: N_14  and  C_15
REMARK    8  A    between atoms: C_15  and  C_16
REMARK    9  A    between atoms: C_25  and  O_26
REMARK                            x       y       z     vdW  Elec       q    Type
REMARK                         _______ _______ _______ _____ _____    ______ ____
ROOT
ATOM      1  C   UNL     1      47.502   3.362  16.580  0.00  0.00    +0.000 C 
ENDROOT
BRANCH   1   2
ATOM      2  C   UNL     1      48.466   4.004  17.541  0.00  0.00    +0.000 A 
ATOM      3  C   UNL     1      49.822   3.663  17.466  0.00  0.00    +0.000 A 
ATOM      4  C   UNL     1      50.747   4.234  18.343  0.00  0.00    +0.000 A 
ATOM      5  C   UNL     1      50.339   5.171  19.303  0.00  0.00    +0.000 A 
ATOM      6  C   UNL     1      48.989   5.509  19.380  0.00  0.00    +0.000 A 
ATOM      7  C   UNL     1      48.063   4.929  18.514  0.00  0.00    +0.000 A 
BRANCH   5   8
ATOM      8  C   UNL     1      51.285   5.832  20.274  0.00  0.00    +0.000 C 
BRANCH   8   9
ATOM      9  N   UNL     1      51.146   7.277  20.230  0.00  0.00    +0.000 NA
ATOM     10  H   UNL     1      51.453   7.661  21.121  0.00  0.00    +0.000 HD
BRANCH   9  11
ATOM     11  C   UNL     1      51.954   7.873  19.170  0.00  0.00    +0.000 C 
BRANCH  11  12
ATOM     12  C   UNL     1      51.191   7.876  17.866  0.00  0.00    +0.000 A 
ATOM     13  C   UNL     1      51.699   7.276  16.703  0.00  0.00    +0.000 A 
ATOM     14  C   UNL     1      50.963   7.283  15.517  0.00  0.00    +0.000 A 
ATOM     15  C   UNL     1      49.716   7.902  15.479  0.00  0.00    +0.000 A 
ATOM     16  C   UNL     1      49.207   8.513  16.625  0.00  0.00    +0.000 A 
ATOM     17  C   UNL     1      49.935   8.496  17.812  0.00  0.00    +0.000 A 
ENDBRANCH  11  12
ENDBRANCH   9  11
ENDBRANCH   8   9
ENDBRANCH   5   8
ENDBRANCH   1   2
BRANCH   1  20
ATOM     18  C   UNL     1      46.823   4.104  14.341  0.00  0.00    +0.000 C 
ATOM     19  O   UNL     1      47.288   3.121  13.797  0.00  0.00    +0.000 OA
ATOM     20  N   UNL     1      46.880   4.316  15.691  0.00  0.00    +0.000 N 
ATOM     21  H   UNL     1      46.458   5.144  16.067  0.00  0.00    +0.000 HD
BRANCH  18  25
ATOM     22  C   UNL     1      45.611   8.544  12.353  0.00  0.00    +0.000 C 
ATOM     23  N   UNL     1      45.603   7.138  12.685  0.00  0.00    +0.000 N 
ATOM     24  C   UNL     1      46.496   6.514  13.522  0.00  0.00    +0.000 A 
ATOM     25  C   UNL     1      46.164   5.165  13.586  0.00  0.00    +0.000 A 
ATOM     26  C   UNL     1      45.019   4.984  12.749  0.00  0.00    +0.000 A 
ATOM     27  C   UNL     1      44.194   3.922  12.368  0.00  0.00    +0.000 A 
ATOM     28  N   UNL     1      43.169   4.129  11.526  0.00  0.00    +0.000 NA
ATOM     29  C   UNL     1      42.978   5.382  11.079  0.00  0.00    +0.000 A 
ATOM     30  N   UNL     1      43.691   6.489  11.363  0.00  0.00    +0.000 NA
ATOM     31  C   UNL     1      44.701   6.223  12.207  0.00  0.00    +0.000 A 
BRANCH  27  32
ATOM     32  O   UNL     1      44.346   2.626  12.796  0.00  0.00    +0.000 OA
ATOM     33  H   UNL     1      44.548   2.070  12.015  0.00  0.00    +0.000 HD
ENDBRANCH  27  32
ENDBRANCH  18  25
ENDBRANCH   1  20
TORSDOF 8
ENDMDL
