MODEL 1
REMARK VINA RESULT:    -7.192      0.000      0.000
REMARK INTER + INTRA:         -10.647
REMARK INTER:                  -9.715
REMARK INTRA:                  -0.933
REMARK UNBOUND:                -0.933
REMARK  Name = 
REMARK  7 active torsions:
REMARK  status: ('A' for Active; 'I' for Inactive)
REMARK    1  A    between atoms: C_1  and  O_2
REMARK    2  A    between atoms: O_2  and  C_3
REMARK    3  A    between atoms: C_5  and  N_6
REMARK    4  A    between atoms: N_6  and  C_7
REMARK    5  A    between atoms: C_7  and  C_8
REMARK    6  A    between atoms: C_13  and  N_14
REMARK    7  A    between atoms: C_22  and  C_23
REMARK                            x       y       z     vdW  Elec       q    Type
REMARK                         _______ _______ _______ _____ _____    ______ ____
ROOT
ATOM      1  N   UNL     1      49.167   7.366  14.043  0.00  0.00    +0.000 N 
ATOM      2  H   UNL     1      49.670   8.243  14.078  0.00  0.00    +0.000 HD
ENDROOT
BRANCH   1   5
ATOM      3  C   UNL     1      48.523   6.942  17.649  0.00  0.00    +0.000 A 
ATOM      4  C   UNL     1      48.858   7.545  16.441  0.00  0.00    +0.000 A 
ATOM      5  C   UNL     1      48.840   6.811  15.256  0.00  0.00    +0.000 A 
ATOM      6  N   UNL     1      48.496   5.509  15.246  0.00  0.00    +0.000 NA
ATOM      7  C   UNL     1      48.180   4.935  16.446  0.00  0.00    +0.000 A 
ATOM      8  C   UNL     1      48.191   5.600  17.659  0.00  0.00    +0.000 A 
BRANCH   7   9
ATOM      9  C   UNL     1      47.785   3.493  16.419  0.00  0.00    +0.000 C 
ATOM     10  N   UNL     1      47.017   3.068  17.470  0.00  0.00    +0.000 N 
ATOM     11  O   UNL     1      48.128   2.725  15.526  0.00  0.00    +0.000 OA
ATOM     12  H   UNL     1      46.768   3.720  18.204  0.00  0.00    +0.000 HD
ATOM     13  H   UNL     1      46.738   2.100  17.522  0.00  0.00    +0.000 HD
ENDBRANCH   7   9
BRANCH   3  15
ATOM     14  C   UNL     1      47.817   6.904  19.908  0.00  0.00    +0.000 C 
ATOM     15  O   UNL     1      48.533   7.562  18.868  0.00  0.00    +0.000 OA
ENDBRANCH   3  15
ENDBRANCH   1   5
BRANCH   1  16
ATOM     16  C   UNL     1      48.797   6.788  12.774  0.00  0.00    +0.000 C 
BRANCH  16  17
ATOM     17  C   UNL     1      47.351   7.045  12.446  0.00  0.00    +0.000 A 
ATOM     18  C   UNL     1      46.854   8.351  12.408  0.00  0.00    +0.000 A 
ATOM     19  C   UNL     1      45.535   8.570  12.030  0.00  0.00    +0.000 A 
ATOM     20 CL   UNL     1      44.927  10.179  11.956  0.00  0.00    +0.000 Cl
ATOM     21  C   UNL     1      44.705   7.500  11.690  0.00  0.00    +0.000 A 
ATOM     22  C   UNL     1      45.163   6.174  11.719  0.00  0.00    +0.000 A 
ATOM     23  C   UNL     1      46.492   5.976  12.123  0.00  0.00    +0.000 A 
BRANCH  22  24
ATOM     24  N   UNL     1      44.352   5.125  11.336  0.00  0.00    +0.000 N 
ATOM     25  C   UNL     1      43.367   4.495  12.228  0.00  0.00    +0.000 C 
ATOM     26  C   UNL     1      43.566   2.962  12.269  0.00  0.00    +0.000 C 
ATOM     27  N   UNL     1      43.596   2.328  10.933  0.00  0.00    +0.000 NA
ATOM     28  C   UNL     1      44.642   2.987  10.123  0.00  0.00    +0.000 C 
ATOM     29  C   UNL     1      44.461   4.518   9.999  0.00  0.00    +0.000 C 
ATOM     30  H   UNL     1      42.697   2.500  10.482  0.00  0.00    +0.000 HD
ENDBRANCH  22  24
ENDBRANCH  16  17
ENDBRANCH   1  16
TORSDOF 6
ENDMDL
MODEL 2
REMARK VINA RESULT:    -6.935      3.236      6.972
REMARK INTER + INTRA:         -10.301
REMARK INTER:                  -9.462
REMARK INTRA:                  -0.838
REMARK UNBOUND:                -0.933
REMARK  Name = 
REMARK  7 active torsions:
REMARK  status: ('A' for Active; 'I' for Inactive)
REMARK    1  A    between atoms: C_1  and  O_2
REMARK    2  A    between atoms: O_2  and  C_3
REMARK    3  A    between atoms: C_5  and  N_6
REMARK    4  A    between atoms: N_6  and  C_7
REMARK    5  A    between atoms: C_7  and  C_8
REMARK    6  A    between atoms: C_13  and  N_14
REMARK    7  A    between atoms: C_22  and  C_23
REMARK                            x       y       z     vdW  Elec       q    Type
REMARK                         _______ _______ _______ _____ _____    ______ ____
ROOT
ATOM      1  N   UNL     1      46.452   6.907  11.970  0.00  0.00    +0.000 N 
ATOM      2  H   UNL     1      45.849   7.433  12.588  0.00  0.00    +0.000 HD
ENDROOT
BRANCH   1   5
ATOM      3  C   UNL     1      45.418   4.731   9.178  0.00  0.00    +0.000 A 
ATOM      4  C   UNL     1      46.053   5.755   9.874  0.00  0.00    +0.000 A 
ATOM      5  C   UNL     1      45.849   5.908  11.245  0.00  0.00    +0.000 A 
ATOM      6  N   UNL     1      45.044   5.074  11.929  0.00  0.00    +0.000 NA
ATOM      7  C   UNL     1      44.424   4.080  11.222  0.00  0.00    +0.000 A 
ATOM      8  C   UNL     1      44.570   3.881   9.861  0.00  0.00    +0.000 A 
BRANCH   7   9
ATOM      9  C   UNL     1      43.545   3.151  11.997  0.00  0.00    +0.000 C 
ATOM     10  N   UNL     1      43.541   3.331  13.354  0.00  0.00    +0.000 N 
ATOM     11  O   UNL     1      42.874   2.273  11.467  0.00  0.00    +0.000 OA
ATOM     12  H   UNL     1      44.124   4.052  13.765  0.00  0.00    +0.000 HD
ATOM     13  H   UNL     1      42.987   2.721  13.935  0.00  0.00    +0.000 HD
ENDBRANCH   7   9
BRANCH   3  15
ATOM     14  C   UNL     1      46.531   3.578   7.436  0.00  0.00    +0.000 C 
ATOM     15  O   UNL     1      45.529   4.509   7.833  0.00  0.00    +0.000 OA
ENDBRANCH   3  15
ENDBRANCH   1   5
BRANCH   1  16
ATOM     16  C   UNL     1      47.850   7.246  11.854  0.00  0.00    +0.000 C 
BRANCH  16  17
ATOM     17  C   UNL     1      48.573   7.080  13.164  0.00  0.00    +0.000 A 
ATOM     18  C   UNL     1      49.762   7.771  13.409  0.00  0.00    +0.000 A 
ATOM     19  C   UNL     1      50.373   7.662  14.652  0.00  0.00    +0.000 A 
ATOM     20 CL   UNL     1      51.824   8.534  14.968  0.00  0.00    +0.000 Cl
ATOM     21  C   UNL     1      49.812   6.867  15.654  0.00  0.00    +0.000 A 
ATOM     22  C   UNL     1      48.623   6.152  15.447  0.00  0.00    +0.000 A 
ATOM     23  C   UNL     1      48.034   6.263  14.177  0.00  0.00    +0.000 A 
BRANCH  22  24
ATOM     24  N   UNL     1      48.047   5.407  16.456  0.00  0.00    +0.000 N 
ATOM     25  C   UNL     1      48.208   5.718  17.885  0.00  0.00    +0.000 C 
ATOM     26  C   UNL     1      48.698   4.476  18.665  0.00  0.00    +0.000 C 
ATOM     27  N   UNL     1      47.870   3.270  18.445  0.00  0.00    +0.000 NA
ATOM     28  C   UNL     1      47.803   3.003  16.993  0.00  0.00    +0.000 C 
ATOM     29  C   UNL     1      47.264   4.195  16.166  0.00  0.00    +0.000 C 
ATOM     30  H   UNL     1      46.925   3.472  18.770  0.00  0.00    +0.000 HD
ENDBRANCH  22  24
ENDBRANCH  16  17
ENDBRANCH   1  16
TORSDOF 6
ENDMDL
MODEL 3
REMARK VINA RESULT:    -6.648      1.753      1.989
REMARK INTER + INTRA:          -9.912
REMARK INTER:                  -9.320
REMARK INTRA:                  -0.592
REMARK UNBOUND:                -0.933
REMARK  Name = 
REMARK  7 active torsions:
REMARK  status: ('A' for Active; 'I' for Inactive)
REMARK    1  A    between atoms: C_1  and  O_2
REMARK    2  A    between atoms: O_2  and  C_3
REMARK    3  A    between atoms: C_5  and  N_6
REMARK    4  A    between atoms: N_6  and  C_7
REMARK    5  A    between atoms: C_7  and  C_8
REMARK    6  A    between atoms: C_13  and  N_14
REMARK    7  A    between atoms: C_22  and  C_23
REMARK                            x       y       z     vdW  Elec       q    Type
REMARK                         _______ _______ _______ _____ _____    ______ ____
ROOT
ATOM      1  N   UNL     1      47.615   5.590  15.731  0.00  0.00    +0.000 N 
ATOM      2  H   UNL     1      46.637   5.336  15.767  0.00  0.00    +0.000 HD
ENDROOT
BRANCH   1   5
ATOM      3  C   UNL     1      49.235   5.323  19.033  0.00  0.00    +0.000 A 
ATOM      4  C   UNL     1      48.431   5.804  18.004  0.00  0.00    +0.000 A 
ATOM      5  C   UNL     1      48.392   5.147  16.774  0.00  0.00    +0.000 A 
ATOM      6  N   UNL     1      49.120   4.037  16.551  0.00  0.00    +0.000 NA
ATOM      7  C   UNL     1      49.909   3.588  17.574  0.00  0.00    +0.000 A 
ATOM      8  C   UNL     1      50.007   4.198  18.812  0.00  0.00    +0.000 A 
BRANCH   7   9
ATOM      9  C   UNL     1      50.701   2.346  17.318  0.00  0.00    +0.000 C 
ATOM     10  N   UNL     1      51.780   2.151  18.137  0.00  0.00    +0.000 N 
ATOM     11  O   UNL     1      50.421   1.550  16.428  0.00  0.00    +0.000 OA
ATOM     12  H   UNL     1      51.999   2.838  18.849  0.00  0.00    +0.000 HD
ATOM     13  H   UNL     1      52.368   1.343  18.000  0.00  0.00    +0.000 HD
ENDBRANCH   7   9
BRANCH   3  15
ATOM     14  C   UNL     1      48.530   5.380  21.292  0.00  0.00    +0.000 C 
ATOM     15  O   UNL     1      49.366   5.903  20.265  0.00  0.00    +0.000 OA
ENDBRANCH   3  15
ENDBRANCH   1   5
BRANCH   1  16
ATOM     16  C   UNL     1      48.133   6.337  14.611  0.00  0.00    +0.000 C 
BRANCH  16  17
ATOM     17  C   UNL     1      47.042   6.727  13.650  0.00  0.00    +0.000 A 
ATOM     18  C   UNL     1      46.919   8.051  13.217  0.00  0.00    +0.000 A 
ATOM     19  C   UNL     1      45.953   8.374  12.273  0.00  0.00    +0.000 A 
ATOM     20 CL   UNL     1      45.817   9.998  11.716  0.00  0.00    +0.000 Cl
ATOM     21  C   UNL     1      45.105   7.393  11.756  0.00  0.00    +0.000 A 
ATOM     22  C   UNL     1      45.191   6.054  12.168  0.00  0.00    +0.000 A 
ATOM     23  C   UNL     1      46.162   5.755  13.137  0.00  0.00    +0.000 A 
BRANCH  22  24
ATOM     24  N   UNL     1      44.383   5.079  11.619  0.00  0.00    +0.000 N 
ATOM     25  C   UNL     1      43.349   4.361  12.380  0.00  0.00    +0.000 C 
ATOM     26  C   UNL     1      43.524   2.831  12.234  0.00  0.00    +0.000 C 
ATOM     27  N   UNL     1      43.604   2.373  10.830  0.00  0.00    +0.000 NA
ATOM     28  C   UNL     1      44.696   3.107  10.157  0.00  0.00    +0.000 C 
ATOM     29  C   UNL     1      44.543   4.645  10.222  0.00  0.00    +0.000 C 
ATOM     30  H   UNL     1      42.729   2.619  10.367  0.00  0.00    +0.000 HD
ENDBRANCH  22  24
ENDBRANCH  16  17
ENDBRANCH   1  16
TORSDOF 6
ENDMDL
MODEL 4
REMARK VINA RESULT:    -6.473      3.813      8.093
REMARK INTER + INTRA:          -9.676
REMARK INTER:                  -8.903
REMARK INTRA:                  -0.773
REMARK UNBOUND:                -0.933
REMARK  Name = 
REMARK  7 active torsions:
REMARK  status: ('A' for Active; 'I' for Inactive)
REMARK    1  A    between atoms: C_1  and  O_2
REMARK    2  A    between atoms: O_2  and  C_3
REMARK    3  A    between atoms: C_5  and  N_6
REMARK    4  A    between atoms: N_6  and  C_7
REMARK    5  A    between atoms: C_7  and  C_8
REMARK    6  A    between atoms: C_13  and  N_14
REMARK    7  A    between atoms: C_22  and  C_23
REMARK                            x       y       z     vdW  Elec       q    Type
REMARK                         _______ _______ _______ _____ _____    ______ ____
ROOT
ATOM      1  N   UNL     1      47.354   3.154  14.719  0.00  0.00    +0.000 N 
ATOM      2  H   UNL     1      47.922   2.394  14.368  0.00  0.00    +0.000 HD
ENDROOT
BRANCH   1   5
ATOM      3  C   UNL     1      46.057   5.944  12.685  0.00  0.00    +0.000 A 
ATOM      4  C   UNL     1      46.783   5.255  13.652  0.00  0.00    +0.000 A 
ATOM      5  C   UNL     1      46.659   3.872  13.776  0.00  0.00    +0.000 A 
ATOM      6  N   UNL     1      45.844   3.169  12.967  0.00  0.00    +0.000 NA
ATOM      7  C   UNL     1      45.134   3.867  12.031  0.00  0.00    +0.000 A 
ATOM      8  C   UNL     1      45.199   5.239  11.863  0.00  0.00    +0.000 A 
BRANCH   7   9
ATOM      9  C   UNL     1      44.245   3.072  11.129  0.00  0.00    +0.000 C 
ATOM     10  N   UNL     1      44.878   2.375  10.135  0.00  0.00    +0.000 N 
ATOM     11  O   UNL     1      43.025   3.044  11.252  0.00  0.00    +0.000 OA
ATOM     12  H   UNL     1      45.885   2.435  10.045  0.00  0.00    +0.000 HD
ATOM     13  H   UNL     1      44.331   1.838   9.479  0.00  0.00    +0.000 HD
ENDBRANCH   7   9
BRANCH   3  15
ATOM     14  C   UNL     1      45.009   7.845  11.743  0.00  0.00    +0.000 C 
ATOM     15  O   UNL     1      46.086   7.298  12.496  0.00  0.00    +0.000 OA
ENDBRANCH   3  15
ENDBRANCH   1   5
BRANCH   1  16
ATOM     16  C   UNL     1      47.274   3.409  16.136  0.00  0.00    +0.000 C 
BRANCH  16  17
ATOM     17  C   UNL     1      48.639   3.514  16.761  0.00  0.00    +0.000 A 
ATOM     18  C   UNL     1      49.447   2.382  16.892  0.00  0.00    +0.000 A 
ATOM     19  C   UNL     1      50.732   2.514  17.403  0.00  0.00    +0.000 A 
ATOM     20 CL   UNL     1      51.741   1.126  17.541  0.00  0.00    +0.000 Cl
ATOM     21  C   UNL     1      51.221   3.765  17.787  0.00  0.00    +0.000 A 
ATOM     22  C   UNL     1      50.440   4.926  17.677  0.00  0.00    +0.000 A 
ATOM     23  C   UNL     1      49.139   4.764  17.176  0.00  0.00    +0.000 A 
BRANCH  22  24
ATOM     24  N   UNL     1      50.945   6.166  18.012  0.00  0.00    +0.000 N 
ATOM     25  C   UNL     1      50.196   7.160  18.795  0.00  0.00    +0.000 C 
ATOM     26  C   UNL     1      50.165   8.523  18.066  0.00  0.00    +0.000 C 
ATOM     27  N   UNL     1      51.501   9.017  17.669  0.00  0.00    +0.000 NA
ATOM     28  C   UNL     1      52.161   7.980  16.847  0.00  0.00    +0.000 C 
ATOM     29  C   UNL     1      52.271   6.607  17.551  0.00  0.00    +0.000 C 
ATOM     30  H   UNL     1      52.055   9.144  18.516  0.00  0.00    +0.000 HD
ENDBRANCH  22  24
ENDBRANCH  16  17
ENDBRANCH   1  16
TORSDOF 6
ENDMDL
MODEL 5
REMARK VINA RESULT:    -6.257      3.491      4.358
REMARK INTER + INTRA:          -9.385
REMARK INTER:                  -8.628
REMARK INTRA:                  -0.757
REMARK UNBOUND:                -0.933
REMARK  Name = 
REMARK  7 active torsions:
REMARK  status: ('A' for Active; 'I' for Inactive)
REMARK    1  A    between atoms: C_1  and  O_2
REMARK    2  A    between atoms: O_2  and  C_3
REMARK    3  A    between atoms: C_5  and  N_6
REMARK    4  A    between atoms: N_6  and  C_7
REMARK    5  A    between atoms: C_7  and  C_8
REMARK    6  A    between atoms: C_13  and  N_14
REMARK    7  A    between atoms: C_22  and  C_23
REMARK                            x       y       z     vdW  Elec       q    Type
REMARK                         _______ _______ _______ _____ _____    ______ ____
ROOT
ATOM      1  N   UNL     1      48.715   2.712  16.564  0.00  0.00    +0.000 N 
ATOM      2  H   UNL     1      48.577   1.957  15.906  0.00  0.00    +0.000 HD
ENDROOT
BRANCH   1   5
ATOM      3  C   UNL     1      51.672   3.946  18.390  0.00  0.00    +0.000 A 
ATOM      4  C   UNL     1      50.408   3.922  17.809  0.00  0.00    +0.000 A 
ATOM      5  C   UNL     1      49.954   2.777  17.155  0.00  0.00    +0.000 A 
ATOM      6  N   UNL     1      50.717   1.672  17.070  0.00  0.00    +0.000 NA
ATOM      7  C   UNL     1      51.959   1.721  17.641  0.00  0.00    +0.000 A 
ATOM      8  C   UNL     1      52.477   2.827  18.292  0.00  0.00    +0.000 A 
BRANCH   7   9
ATOM      9  C   UNL     1      52.790   0.481  17.554  0.00  0.00    +0.000 C 
ATOM     10  N   UNL     1      52.505  -0.490  18.476  0.00  0.00    +0.000 N 
ATOM     11  O   UNL     1      53.680   0.333  16.724  0.00  0.00    +0.000 OA
ATOM     12  H   UNL     1      51.778  -0.330  19.163  0.00  0.00    +0.000 HD
ATOM     13  H   UNL     1      53.046  -1.341  18.485  0.00  0.00    +0.000 HD
ENDBRANCH   7   9
BRANCH   3  15
ATOM     14  C   UNL     1      53.638   5.144  18.943  0.00  0.00    +0.000 C 
ATOM     15  O   UNL     1      52.222   5.021  19.032  0.00  0.00    +0.000 OA
ENDBRANCH   3  15
ENDBRANCH   1   5
BRANCH   1  16
ATOM     16  C   UNL     1      47.663   3.667  16.809  0.00  0.00    +0.000 C 
BRANCH  16  17
ATOM     17  C   UNL     1      47.451   4.577  15.628  0.00  0.00    +0.000 A 
ATOM     18  C   UNL     1      48.257   5.705  15.448  0.00  0.00    +0.000 A 
ATOM     19  C   UNL     1      48.094   6.488  14.313  0.00  0.00    +0.000 A 
ATOM     20 CL   UNL     1      49.103   7.863  14.075  0.00  0.00    +0.000 Cl
ATOM     21  C   UNL     1      47.134   6.160  13.353  0.00  0.00    +0.000 A 
ATOM     22  C   UNL     1      46.301   5.040  13.498  0.00  0.00    +0.000 A 
ATOM     23  C   UNL     1      46.471   4.275  14.662  0.00  0.00    +0.000 A 
BRANCH  22  24
ATOM     24  N   UNL     1      45.387   4.693  12.523  0.00  0.00    +0.000 N 
ATOM     25  C   UNL     1      44.526   5.668  11.837  0.00  0.00    +0.000 C 
ATOM     26  C   UNL     1      43.043   5.239  11.913  0.00  0.00    +0.000 C 
ATOM     27  N   UNL     1      42.798   3.855  11.451  0.00  0.00    +0.000 NA
ATOM     28  C   UNL     1      43.665   2.941  12.224  0.00  0.00    +0.000 C 
ATOM     29  C   UNL     1      45.170   3.289  12.138  0.00  0.00    +0.000 C 
ATOM     30  H   UNL     1      43.076   3.796  10.471  0.00  0.00    +0.000 HD
ENDBRANCH  22  24
ENDBRANCH  16  17
ENDBRANCH   1  16
TORSDOF 6
ENDMDL
MODEL 6
REMARK VINA RESULT:    -6.109      2.832      6.120
REMARK INTER + INTRA:          -9.185
REMARK INTER:                  -8.427
REMARK INTRA:                  -0.758
REMARK UNBOUND:                -0.933
REMARK  Name = 
REMARK  7 active torsions:
REMARK  status: ('A' for Active; 'I' for Inactive)
REMARK    1  A    between atoms: C_1  and  O_2
REMARK    2  A    between atoms: O_2  and  C_3
REMARK    3  A    between atoms: C_5  and  N_6
REMARK    4  A    between atoms: N_6  and  C_7
REMARK    5  A    between atoms: C_7  and  C_8
REMARK    6  A    between atoms: C_13  and  N_14
REMARK    7  A    between atoms: C_22  and  C_23
REMARK                            x       y       z     vdW  Elec       q    Type
REMARK                         _______ _______ _______ _____ _____    ______ ____
ROOT
ATOM      1  N   UNL     1      44.833   7.270  12.973  0.00  0.00    +0.000 N 
ATOM      2  H   UNL     1      44.460   7.602  13.852  0.00  0.00    +0.000 HD
ENDROOT
BRANCH   1   5
ATOM      3  C   UNL     1      46.412   4.000  13.622  0.00  0.00    +0.000 A 
ATOM      4  C   UNL     1      46.130   5.360  13.715  0.00  0.00    +0.000 A 
ATOM      5  C   UNL     1      45.140   5.932  12.917  0.00  0.00    +0.000 A 
ATOM      6  N   UNL     1      44.431   5.191  12.045  0.00  0.00    +0.000 NA
ATOM      7  C   UNL     1      44.731   3.859  11.964  0.00  0.00    +0.000 A 
ATOM      8  C   UNL     1      45.708   3.230  12.715  0.00  0.00    +0.000 A 
BRANCH   7   9
ATOM      9  C   UNL     1      43.925   3.045  11.003  0.00  0.00    +0.000 C 
ATOM     10  N   UNL     1      43.307   1.943  11.531  0.00  0.00    +0.000 N 
ATOM     11  O   UNL     1      43.825   3.325   9.814  0.00  0.00    +0.000 OA
ATOM     12  H   UNL     1      43.426   1.725  12.514  0.00  0.00    +0.000 HD
ATOM     13  H   UNL     1      42.768   1.339  10.930  0.00  0.00    +0.000 HD
ENDBRANCH   7   9
BRANCH   3  15
ATOM     14  C   UNL     1      47.456   3.677  15.721  0.00  0.00    +0.000 C 
ATOM     15  O   UNL     1      47.376   3.346  14.339  0.00  0.00    +0.000 OA
ENDBRANCH   3  15
ENDBRANCH   1   5
BRANCH   1  16
ATOM     16  C   UNL     1      44.980   8.171  11.856  0.00  0.00    +0.000 C 
BRANCH  16  17
ATOM     17  C   UNL     1      46.261   8.955  11.939  0.00  0.00    +0.000 A 
ATOM     18  C   UNL     1      46.240  10.353  11.908  0.00  0.00    +0.000 A 
ATOM     19  C   UNL     1      47.427  11.058  12.060  0.00  0.00    +0.000 A 
ATOM     20 CL   UNL     1      47.401  12.780  12.050  0.00  0.00    +0.000 Cl
ATOM     21  C   UNL     1      48.637  10.386  12.242  0.00  0.00    +0.000 A 
ATOM     22  C   UNL     1      48.703   8.984  12.274  0.00  0.00    +0.000 A 
ATOM     23  C   UNL     1      47.494   8.293  12.098  0.00  0.00    +0.000 A 
BRANCH  22  24
ATOM     24  N   UNL     1      49.895   8.326  12.503  0.00  0.00    +0.000 N 
ATOM     25  C   UNL     1      50.418   8.043  13.848  0.00  0.00    +0.000 C 
ATOM     26  C   UNL     1      51.873   8.550  13.988  0.00  0.00    +0.000 C 
ATOM     27  N   UNL     1      52.777   8.066  12.922  0.00  0.00    +0.000 NA
ATOM     28  C   UNL     1      52.201   8.435  11.612  0.00  0.00    +0.000 C 
ATOM     29  C   UNL     1      50.765   7.904  11.393  0.00  0.00    +0.000 C 
ATOM     30  H   UNL     1      52.810   7.048  12.975  0.00  0.00    +0.000 HD
ENDBRANCH  22  24
ENDBRANCH  16  17
ENDBRANCH   1  16
TORSDOF 6
ENDMDL
MODEL 7
REMARK VINA RESULT:    -5.982      2.404      3.381
REMARK INTER + INTRA:          -9.013
REMARK INTER:                  -8.087
REMARK INTRA:                  -0.926
REMARK UNBOUND:                -0.933
REMARK  Name = 
REMARK  7 active torsions:
REMARK  status: ('A' for Active; 'I' for Inactive)
REMARK    1  A    between atoms: C_1  and  O_2
REMARK    2  A    between atoms: O_2  and  C_3
REMARK    3  A    between atoms: C_5  and  N_6
REMARK    4  A    between atoms: N_6  and  C_7
REMARK    5  A    between atoms: C_7  and  C_8
REMARK    6  A    between atoms: C_13  and  N_14
REMARK    7  A    between atoms: C_22  and  C_23
REMARK                            x       y       z     vdW  Elec       q    Type
REMARK                         _______ _______ _______ _____ _____    ______ ____
ROOT
ATOM      1  N   UNL     1      50.613   7.040  16.477  0.00  0.00    +0.000 N 
ATOM      2  H   UNL     1      51.614   6.902  16.493  0.00  0.00    +0.000 HD
ENDROOT
BRANCH   1   5
ATOM      3  C   UNL     1      48.084   5.328  18.544  0.00  0.00    +0.000 A 
ATOM      4  C   UNL     1      48.818   6.352  17.956  0.00  0.00    +0.000 A 
ATOM      5  C   UNL     1      49.860   6.059  17.077  0.00  0.00    +0.000 A 
ATOM      6  N   UNL     1      50.180   4.787  16.772  0.00  0.00    +0.000 NA
ATOM      7  C   UNL     1      49.450   3.797  17.369  0.00  0.00    +0.000 A 
ATOM      8  C   UNL     1      48.414   4.016  18.259  0.00  0.00    +0.000 A 
BRANCH   7   9
ATOM      9  C   UNL     1      49.805   2.389  17.009  0.00  0.00    +0.000 C 
ATOM     10  N   UNL     1      50.773   1.806  17.782  0.00  0.00    +0.000 N 
ATOM     11  O   UNL     1      49.281   1.787  16.079  0.00  0.00    +0.000 OA
ATOM     12  H   UNL     1      51.204   2.337  18.530  0.00  0.00    +0.000 HD
ATOM     13  H   UNL     1      51.075   0.866  17.575  0.00  0.00    +0.000 HD
ENDBRANCH   7   9
BRANCH   3  15
ATOM     14  C   UNL     1      47.367   6.285  20.587  0.00  0.00    +0.000 C 
ATOM     15  O   UNL     1      47.062   5.505  19.436  0.00  0.00    +0.000 OA
ENDBRANCH   3  15
ENDBRANCH   1   5
BRANCH   1  16
ATOM     16  C   UNL     1      50.050   8.229  15.886  0.00  0.00    +0.000 C 
BRANCH  16  17
ATOM     17  C   UNL     1      49.599   7.988  14.471  0.00  0.00    +0.000 A 
ATOM     18  C   UNL     1      50.513   8.056  13.415  0.00  0.00    +0.000 A 
ATOM     19  C   UNL     1      50.091   7.757  12.126  0.00  0.00    +0.000 A 
ATOM     20 CL   UNL     1      51.220   7.813  10.826  0.00  0.00    +0.000 Cl
ATOM     21  C   UNL     1      48.767   7.391  11.876  0.00  0.00    +0.000 A 
ATOM     22  C   UNL     1      47.817   7.316  12.907  0.00  0.00    +0.000 A 
ATOM     23  C   UNL     1      48.262   7.641  14.198  0.00  0.00    +0.000 A 
BRANCH  22  24
ATOM     24  N   UNL     1      46.522   6.907  12.662  0.00  0.00    +0.000 N 
ATOM     25  C   UNL     1      46.165   5.531  12.285  0.00  0.00    +0.000 C 
ATOM     26  C   UNL     1      45.307   5.520  10.998  0.00  0.00    +0.000 C 
ATOM     27  N   UNL     1      44.125   6.406  11.062  0.00  0.00    +0.000 NA
ATOM     28  C   UNL     1      44.579   7.773  11.397  0.00  0.00    +0.000 C 
ATOM     29  C   UNL     1      45.395   7.853  12.708  0.00  0.00    +0.000 C 
ATOM     30  H   UNL     1      43.527   6.080  11.822  0.00  0.00    +0.000 HD
ENDBRANCH  22  24
ENDBRANCH  16  17
ENDBRANCH   1  16
TORSDOF 6
ENDMDL
MODEL 8
REMARK VINA RESULT:    -5.968      3.925      7.708
REMARK INTER + INTRA:          -8.994
REMARK INTER:                  -8.291
REMARK INTRA:                  -0.703
REMARK UNBOUND:                -0.933
REMARK  Name = 
REMARK  7 active torsions:
REMARK  status: ('A' for Active; 'I' for Inactive)
REMARK    1  A    between atoms: C_1  and  O_2
REMARK    2  A    between atoms: O_2  and  C_3
REMARK    3  A    between atoms: C_5  and  N_6
REMARK    4  A    between atoms: N_6  and  C_7
REMARK    5  A    between atoms: C_7  and  C_8
REMARK    6  A    between atoms: C_13  and  N_14
REMARK    7  A    between atoms: C_22  and  C_23
REMARK                            x       y       z     vdW  Elec       q    Type
REMARK                         _______ _______ _______ _____ _____    ______ ____
ROOT
ATOM      1  N   UNL     1      46.462   6.949  11.800  0.00  0.00    +0.000 N 
ATOM      2  H   UNL     1      45.957   7.825  11.806  0.00  0.00    +0.000 HD
ENDROOT
BRANCH   1   5
ATOM      3  C   UNL     1      45.241   4.582   9.249  0.00  0.00    +0.000 A 
ATOM      4  C   UNL     1      45.904   5.663   9.821  0.00  0.00    +0.000 A 
ATOM      5  C   UNL     1      45.826   5.892  11.195  0.00  0.00    +0.000 A 
ATOM      6  N   UNL     1      45.118   5.077  12.000  0.00  0.00    +0.000 NA
ATOM      7  C   UNL     1      44.468   4.027  11.414  0.00  0.00    +0.000 A 
ATOM      8  C   UNL     1      44.491   3.750  10.059  0.00  0.00    +0.000 A 
BRANCH   7   9
ATOM      9  C   UNL     1      43.699   3.121  12.322  0.00  0.00    +0.000 C 
ATOM     10  N   UNL     1      43.334   1.915  11.787  0.00  0.00    +0.000 N 
ATOM     11  O   UNL     1      43.396   3.429  13.470  0.00  0.00    +0.000 OA
ATOM     12  H   UNL     1      43.579   1.698  10.828  0.00  0.00    +0.000 HD
ATOM     13  H   UNL     1      42.792   1.269  12.341  0.00  0.00    +0.000 HD
ENDBRANCH   7   9
BRANCH   3  15
ATOM     14  C   UNL     1      46.368   3.579   7.425  0.00  0.00    +0.000 C 
ATOM     15  O   UNL     1      45.231   4.282   7.915  0.00  0.00    +0.000 OA
ENDBRANCH   3  15
ENDBRANCH   1   5
BRANCH   1  16
ATOM     16  C   UNL     1      47.785   6.867  12.367  0.00  0.00    +0.000 C 
BRANCH  16  17
ATOM     17  C   UNL     1      48.686   7.950  11.837  0.00  0.00    +0.000 A 
ATOM     18  C   UNL     1      48.265   9.283  11.833  0.00  0.00    +0.000 A 
ATOM     19  C   UNL     1      49.140  10.275  11.409  0.00  0.00    +0.000 A 
ATOM     20 CL   UNL     1      48.634  11.921  11.429  0.00  0.00    +0.000 Cl
ATOM     21  C   UNL     1      50.431   9.953  10.987  0.00  0.00    +0.000 A 
ATOM     22  C   UNL     1      50.892   8.628  10.971  0.00  0.00    +0.000 A 
ATOM     23  C   UNL     1      49.984   7.641  11.385  0.00  0.00    +0.000 A 
BRANCH  22  24
ATOM     24  N   UNL     1      52.185   8.320  10.599  0.00  0.00    +0.000 N 
ATOM     25  C   UNL     1      53.275   9.307  10.571  0.00  0.00    +0.000 C 
ATOM     26  C   UNL     1      53.985   9.302   9.197  0.00  0.00    +0.000 C 
ATOM     27  N   UNL     1      54.434   7.961   8.764  0.00  0.00    +0.000 NA
ATOM     28  C   UNL     1      53.270   7.049   8.774  0.00  0.00    +0.000 C 
ATOM     29  C   UNL     1      52.553   6.971  10.142  0.00  0.00    +0.000 C 
ATOM     30  H   UNL     1      55.107   7.616   9.448  0.00  0.00    +0.000 HD
ENDBRANCH  22  24
ENDBRANCH  16  17
ENDBRANCH   1  16
TORSDOF 6
ENDMDL
MODEL 9
REMARK VINA RESULT:    -5.924      3.532      6.777
REMARK INTER + INTRA:          -8.935
REMARK INTER:                  -8.086
REMARK INTRA:                  -0.849
REMARK UNBOUND:                -0.933
REMARK  Name = 
REMARK  7 active torsions:
REMARK  status: ('A' for Active; 'I' for Inactive)
REMARK    1  A    between atoms: C_1  and  O_2
REMARK    2  A    between atoms: O_2  and  C_3
REMARK    3  A    between atoms: C_5  and  N_6
REMARK    4  A    between atoms: N_6  and  C_7
REMARK    5  A    between atoms: C_7  and  C_8
REMARK    6  A    between atoms: C_13  and  N_14
REMARK    7  A    between atoms: C_22  and  C_23
REMARK                            x       y       z     vdW  Elec       q    Type
REMARK                         _______ _______ _______ _____ _____    ______ ____
ROOT
ATOM      1  N   UNL     1      45.902   7.674  13.090  0.00  0.00    +0.000 N 
ATOM      2  H   UNL     1      45.376   8.065  13.859  0.00  0.00    +0.000 HD
ENDROOT
BRANCH   1   5
ATOM      3  C   UNL     1      46.505   4.058  13.498  0.00  0.00    +0.000 A 
ATOM      4  C   UNL     1      46.612   5.433  13.686  0.00  0.00    +0.000 A 
ATOM      5  C   UNL     1      45.826   6.310  12.939  0.00  0.00    +0.000 A 
ATOM      6  N   UNL     1      44.946   5.856  12.027  0.00  0.00    +0.000 NA
ATOM      7  C   UNL     1      44.865   4.502  11.853  0.00  0.00    +0.000 A 
ATOM      8  C   UNL     1      45.623   3.578  12.549  0.00  0.00    +0.000 A 
BRANCH   7   9
ATOM      9  C   UNL     1      43.873   4.011  10.848  0.00  0.00    +0.000 C 
ATOM     10  N   UNL     1      43.836   4.699   9.665  0.00  0.00    +0.000 N 
ATOM     11  O   UNL     1      43.125   3.062  11.059  0.00  0.00    +0.000 OA
ATOM     12  H   UNL     1      44.451   5.493   9.528  0.00  0.00    +0.000 HD
ATOM     13  H   UNL     1      43.172   4.432   8.955  0.00  0.00    +0.000 HD
ENDBRANCH   7   9
BRANCH   3  15
ATOM     14  C   UNL     1      47.602   3.431  15.500  0.00  0.00    +0.000 C 
ATOM     15  O   UNL     1      47.243   3.115  14.158  0.00  0.00    +0.000 OA
ENDBRANCH   3  15
ENDBRANCH   1   5
BRANCH   1  16
ATOM     16  C   UNL     1      46.644   8.535  12.201  0.00  0.00    +0.000 C 
BRANCH  16  17
ATOM     17  C   UNL     1      48.104   8.583  12.562  0.00  0.00    +0.000 A 
ATOM     18  C   UNL     1      48.502   8.592  13.902  0.00  0.00    +0.000 A 
ATOM     19  C   UNL     1      49.856   8.561  14.213  0.00  0.00    +0.000 A 
ATOM     20 CL   UNL     1      50.350   8.545  15.863  0.00  0.00    +0.000 Cl
ATOM     21  C   UNL     1      50.818   8.524  13.202  0.00  0.00    +0.000 A 
ATOM     22  C   UNL     1      50.461   8.519  11.845  0.00  0.00    +0.000 A 
ATOM     23  C   UNL     1      49.089   8.570  11.555  0.00  0.00    +0.000 A 
BRANCH  22  24
ATOM     24  N   UNL     1      51.415   8.432  10.851  0.00  0.00    +0.000 N 
ATOM     25  C   UNL     1      51.834   7.162  10.239  0.00  0.00    +0.000 C 
ATOM     26  C   UNL     1      53.372   7.010  10.289  0.00  0.00    +0.000 C 
ATOM     27  N   UNL     1      54.103   8.167   9.730  0.00  0.00    +0.000 NA
ATOM     28  C   UNL     1      53.658   9.389  10.432  0.00  0.00    +0.000 C 
ATOM     29  C   UNL     1      52.131   9.623  10.367  0.00  0.00    +0.000 C 
ATOM     30  H   UNL     1      53.844   8.259   8.747  0.00  0.00    +0.000 HD
ENDBRANCH  22  24
ENDBRANCH  16  17
ENDBRANCH   1  16
TORSDOF 6
ENDMDL
