MODEL 1
REMARK VINA RESULT:    -8.920      0.000      0.000
REMARK INTER + INTRA:         -12.891
REMARK INTER:                 -12.049
REMARK INTRA:                  -0.842
REMARK UNBOUND:                -0.842
REMARK  Name = 
REMARK  6 active torsions:
REMARK  status: ('A' for Active; 'I' for Inactive)
REMARK    1  A    between atoms: C_2  and  C_25
REMARK    2  A    between atoms: N_3  and  C_4
REMARK    3  A    between atoms: C_4  and  C_5
REMARK    4  A    between atoms: C_9  and  C_10
REMARK    5  A    between atoms: C_10  and  N_11
REMARK    6  A    between atoms: C_12  and  C_14
REMARK                            x       y       z     vdW  Elec       q    Type
REMARK                         _______ _______ _______ _____ _____    ______ ____
ROOT
ATOM      1  C   UNL     1      45.501   5.375  11.235  0.00  0.00    +0.000 A 
ATOM      2  C   UNL     1      46.278   6.536  11.143  0.00  0.00    +0.000 A 
ATOM      3  C   UNL     1      47.101   6.919  12.201  0.00  0.00    +0.000 A 
ATOM      4  C   UNL     1      47.127   6.165  13.375  0.00  0.00    +0.000 A 
ATOM      5  C   UNL     1      46.319   5.028  13.511  0.00  0.00    +0.000 A 
ATOM      6  C   UNL     1      45.534   4.623  12.420  0.00  0.00    +0.000 A 
ENDROOT
BRANCH   1   7
ATOM      7  C   UNL     1      44.601   4.976  10.097  0.00  0.00    +0.000 C 
BRANCH   7  10
ATOM      8  O   UNL     1      44.603   2.239   9.527  0.00  0.00    +0.000 OA
ATOM      9  C   UNL     1      45.274   2.991   8.825  0.00  0.00    +0.000 C 
ATOM     10  N   UNL     1      45.337   4.351   9.027  0.00  0.00    +0.000 N 
ATOM     11  H   UNL     1      45.922   4.897   8.401  0.00  0.00    +0.000 HD
BRANCH   9  12
ATOM     12  C   UNL     1      46.080   2.467   7.679  0.00  0.00    +0.000 A 
ATOM     13  C   UNL     1      46.265   3.271   6.558  0.00  0.00    +0.000 A 
ATOM     14  C   UNL     1      47.020   2.771   5.504  0.00  0.00    +0.000 A 
ATOM     15  C   UNL     1      47.559   1.493   5.602  0.00  0.00    +0.000 A 
ATOM     16  C   UNL     1      47.323   0.760   6.757  0.00  0.00    +0.000 A 
ATOM     17  N   UNL     1      46.597   1.212   7.806  0.00  0.00    +0.000 NA
ENDBRANCH   9  12
ENDBRANCH   7  10
ENDBRANCH   1   7
BRANCH   5  18
ATOM     18  C   UNL     1      46.276   4.274  14.815  0.00  0.00    +0.000 C 
BRANCH  18  19
ATOM     19  N   UNL     1      47.466   4.470  15.600  0.00  0.00    +0.000 N 
ATOM     20  C   UNL     1      47.575   3.933  16.858  0.00  0.00    +0.000 C 
ATOM     21  O   UNL     1      46.692   3.229  17.345  0.00  0.00    +0.000 OA
ATOM     22  H   UNL     1      48.071   5.243  15.335  0.00  0.00    +0.000 HD
BRANCH  20  23
ATOM     23  C   UNL     1      48.826   4.193  17.578  0.00  0.00    +0.000 A 
ATOM     24  C   UNL     1      48.954   5.337  18.353  0.00  0.00    +0.000 A 
ATOM     25  S   UNL     1      50.449   5.450  19.166  0.00  0.00    +0.000 S 
ATOM     26  C   UNL     1      51.002   4.002  18.463  0.00  0.00    +0.000 A 
ATOM     27  N   UNL     1      52.250   3.527  18.724  0.00  0.00    +0.000 NA
ATOM     28  C   UNL     1      52.547   2.438  18.102  0.00  0.00    +0.000 A 
ATOM     29  N   UNL     1      51.709   1.775  17.243  0.00  0.00    +0.000 N 
ATOM     30  C   UNL     1      50.431   2.200  16.970  0.00  0.00    +0.000 A 
ATOM     31  O   UNL     1      49.693   1.561  16.230  0.00  0.00    +0.000 OA
ATOM     32  C   UNL     1      50.051   3.430  17.638  0.00  0.00    +0.000 A 
ATOM     33  H   UNL     1      51.998   0.921  16.791  0.00  0.00    +0.000 HD
ENDBRANCH  20  23
ENDBRANCH  18  19
ENDBRANCH   5  18
TORSDOF 6
ENDMDL
MODEL 2
REMARK VINA RESULT:    -8.650      2.040      2.904
REMARK INTER + INTRA:         -12.526
REMARK INTER:                 -11.351
REMARK INTRA:                  -1.176
REMARK UNBOUND:                -0.842
REMARK  Name = 
REMARK  6 active torsions:
REMARK  status: ('A' for Active; 'I' for Inactive)
REMARK    1  A    between atoms: C_2  and  C_25
REMARK    2  A    between atoms: N_3  and  C_4
REMARK    3  A    between atoms: C_4  and  C_5
REMARK    4  A    between atoms: C_9  and  C_10
REMARK    5  A    between atoms: C_10  and  N_11
REMARK    6  A    between atoms: C_12  and  C_14
REMARK                            x       y       z     vdW  Elec       q    Type
REMARK                         _______ _______ _______ _____ _____    ______ ____
ROOT
ATOM      1  C   UNL     1      45.144   6.324  11.165  0.00  0.00    +0.000 A 
ATOM      2  C   UNL     1      44.423   7.501  11.400  0.00  0.00    +0.000 A 
ATOM      3  C   UNL     1      45.069   8.639  11.881  0.00  0.00    +0.000 A 
ATOM      4  C   UNL     1      46.435   8.600  12.166  0.00  0.00    +0.000 A 
ATOM      5  C   UNL     1      47.167   7.418  11.989  0.00  0.00    +0.000 A 
ATOM      6  C   UNL     1      46.517   6.294  11.455  0.00  0.00    +0.000 A 
ENDROOT
BRANCH   1   7
ATOM      7  C   UNL     1      44.439   5.093  10.664  0.00  0.00    +0.000 C 
BRANCH   7  10
ATOM      8  O   UNL     1      44.171   2.407   9.937  0.00  0.00    +0.000 OA
ATOM      9  C   UNL     1      44.981   3.106   9.335  0.00  0.00    +0.000 C 
ATOM     10  N   UNL     1      45.185   4.437   9.620  0.00  0.00    +0.000 N 
ATOM     11  H   UNL     1      45.881   4.938   9.075  0.00  0.00    +0.000 HD
BRANCH   9  12
ATOM     12  C   UNL     1      45.816   2.544   8.227  0.00  0.00    +0.000 A 
ATOM     13  C   UNL     1      46.134   3.355   7.142  0.00  0.00    +0.000 A 
ATOM     14  C   UNL     1      46.914   2.820   6.123  0.00  0.00    +0.000 A 
ATOM     15  C   UNL     1      47.344   1.501   6.220  0.00  0.00    +0.000 A 
ATOM     16  C   UNL     1      46.978   0.764   7.339  0.00  0.00    +0.000 A 
ATOM     17  N   UNL     1      46.224   1.250   8.353  0.00  0.00    +0.000 NA
ENDBRANCH   9  12
ENDBRANCH   7  10
ENDBRANCH   1   7
BRANCH   5  18
ATOM     18  C   UNL     1      48.618   7.352  12.391  0.00  0.00    +0.000 C 
BRANCH  18  19
ATOM     19  N   UNL     1      48.814   6.622  13.614  0.00  0.00    +0.000 N 
ATOM     20  C   UNL     1      48.851   7.271  14.823  0.00  0.00    +0.000 C 
ATOM     21  O   UNL     1      48.671   8.483  14.917  0.00  0.00    +0.000 OA
ATOM     22  H   UNL     1      49.219   5.692  13.537  0.00  0.00    +0.000 HD
BRANCH  20  23
ATOM     23  C   UNL     1      49.058   6.436  16.011  0.00  0.00    +0.000 A 
ATOM     24  C   UNL     1      50.038   6.778  16.934  0.00  0.00    +0.000 A 
ATOM     25  S   UNL     1      50.102   5.735  18.282  0.00  0.00    +0.000 S 
ATOM     26  C   UNL     1      48.862   4.756  17.651  0.00  0.00    +0.000 A 
ATOM     27  N   UNL     1      48.439   3.645  18.314  0.00  0.00    +0.000 NA
ATOM     28  C   UNL     1      47.516   2.981  17.707  0.00  0.00    +0.000 A 
ATOM     29  N   UNL     1      46.971   3.327  16.498  0.00  0.00    +0.000 N 
ATOM     30  C   UNL     1      47.345   4.452  15.805  0.00  0.00    +0.000 A 
ATOM     31  O   UNL     1      46.808   4.755  14.746  0.00  0.00    +0.000 OA
ATOM     32  C   UNL     1      48.391   5.229  16.440  0.00  0.00    +0.000 A 
ATOM     33  H   UNL     1      46.243   2.768  16.076  0.00  0.00    +0.000 HD
ENDBRANCH  20  23
ENDBRANCH  18  19
ENDBRANCH   5  18
TORSDOF 6
ENDMDL
MODEL 3
REMARK VINA RESULT:    -8.609      1.103      1.376
REMARK INTER + INTRA:         -12.471
REMARK INTER:                 -11.606
REMARK INTRA:                  -0.865
REMARK UNBOUND:                -0.842
REMARK  Name = 
REMARK  6 active torsions:
REMARK  status: ('A' for Active; 'I' for Inactive)
REMARK    1  A    between atoms: C_2  and  C_25
REMARK    2  A    between atoms: N_3  and  C_4
REMARK    3  A    between atoms: C_4  and  C_5
REMARK    4  A    between atoms: C_9  and  C_10
REMARK    5  A    between atoms: C_10  and  N_11
REMARK    6  A    between atoms: C_12  and  C_14
REMARK                            x       y       z     vdW  Elec       q    Type
REMARK                         _______ _______ _______ _____ _____    ______ ____
ROOT
ATOM      1  C   UNL     1      45.109   5.417  11.393  0.00  0.00    +0.000 A 
ATOM      2  C   UNL     1      45.457   6.768  11.517  0.00  0.00    +0.000 A 
ATOM      3  C   UNL     1      46.237   7.200  12.589  0.00  0.00    +0.000 A 
ATOM      4  C   UNL     1      46.645   6.292  13.567  0.00  0.00    +0.000 A 
ATOM      5  C   UNL     1      46.265   4.945  13.493  0.00  0.00    +0.000 A 
ATOM      6  C   UNL     1      45.524   4.511  12.382  0.00  0.00    +0.000 A 
ENDROOT
BRANCH   1   7
ATOM      7  C   UNL     1      44.253   4.960  10.244  0.00  0.00    +0.000 C 
BRANCH   7  10
ATOM      8  O   UNL     1      44.446   2.205   9.814  0.00  0.00    +0.000 OA
ATOM      9  C   UNL     1      45.068   2.964   9.077  0.00  0.00    +0.000 C 
ATOM     10  N   UNL     1      45.036   4.334   9.209  0.00  0.00    +0.000 N 
ATOM     11  H   UNL     1      45.586   4.887   8.558  0.00  0.00    +0.000 HD
BRANCH   9  12
ATOM     12  C   UNL     1      45.915   2.439   7.960  0.00  0.00    +0.000 A 
ATOM     13  C   UNL     1      46.176   3.259   6.866  0.00  0.00    +0.000 A 
ATOM     14  C   UNL     1      46.969   2.758   5.840  0.00  0.00    +0.000 A 
ATOM     15  C   UNL     1      47.468   1.464   5.938  0.00  0.00    +0.000 A 
ATOM     16  C   UNL     1      47.156   0.717   7.066  0.00  0.00    +0.000 A 
ATOM     17  N   UNL     1      46.392   1.169   8.087  0.00  0.00    +0.000 NA
ENDBRANCH   9  12
ENDBRANCH   7  10
ENDBRANCH   1   7
BRANCH   5  18
ATOM     18  C   UNL     1      46.625   3.989  14.601  0.00  0.00    +0.000 C 
BRANCH  18  19
ATOM     19  N   UNL     1      47.321   4.638  15.680  0.00  0.00    +0.000 N 
ATOM     20  C   UNL     1      47.227   4.163  16.964  0.00  0.00    +0.000 C 
ATOM     21  O   UNL     1      46.590   3.148  17.239  0.00  0.00    +0.000 OA
ATOM     22  H   UNL     1      47.621   5.597  15.525  0.00  0.00    +0.000 HD
BRANCH  20  23
ATOM     23  C   UNL     1      47.972   4.897  17.992  0.00  0.00    +0.000 A 
ATOM     24  C   UNL     1      47.326   5.850  18.768  0.00  0.00    +0.000 A 
ATOM     25  S   UNL     1      48.326   6.562  19.953  0.00  0.00    +0.000 S 
ATOM     26  C   UNL     1      49.674   5.663  19.431  0.00  0.00    +0.000 A 
ATOM     27  N   UNL     1      50.891   5.818  20.020  0.00  0.00    +0.000 NA
ATOM     28  C   UNL     1      51.828   5.097  19.505  0.00  0.00    +0.000 A 
ATOM     29  N   UNL     1      51.661   4.231  18.457  0.00  0.00    +0.000 N 
ATOM     30  C   UNL     1      50.448   4.020  17.848  0.00  0.00    +0.000 A 
ATOM     31  O   UNL     1      50.324   3.208  16.939  0.00  0.00    +0.000 OA
ATOM     32  C   UNL     1      49.360   4.818  18.383  0.00  0.00    +0.000 A 
ATOM     33  H   UNL     1      52.435   3.688  18.102  0.00  0.00    +0.000 HD
ENDBRANCH  20  23
ENDBRANCH  18  19
ENDBRANCH   5  18
TORSDOF 6
ENDMDL
MODEL 4
REMARK VINA RESULT:    -8.451      2.120      2.797
REMARK INTER + INTRA:         -12.258
REMARK INTER:                 -11.367
REMARK INTRA:                  -0.891
REMARK UNBOUND:                -0.842
REMARK  Name = 
REMARK  6 active torsions:
REMARK  status: ('A' for Active; 'I' for Inactive)
REMARK    1  A    between atoms: C_2  and  C_25
REMARK    2  A    between atoms: N_3  and  C_4
REMARK    3  A    between atoms: C_4  and  C_5
REMARK    4  A    between atoms: C_9  and  C_10
REMARK    5  A    between atoms: C_10  and  N_11
REMARK    6  A    between atoms: C_12  and  C_14
REMARK                            x       y       z     vdW  Elec       q    Type
REMARK                         _______ _______ _______ _____ _____    ______ ____
ROOT
ATOM      1  C   UNL     1      44.900   4.540  11.040  0.00  0.00    +0.000 A 
ATOM      2  C   UNL     1      45.028   3.413  11.860  0.00  0.00    +0.000 A 
ATOM      3  C   UNL     1      45.734   3.490  13.059  0.00  0.00    +0.000 A 
ATOM      4  C   UNL     1      46.350   4.686  13.432  0.00  0.00    +0.000 A 
ATOM      5  C   UNL     1      46.281   5.813  12.603  0.00  0.00    +0.000 A 
ATOM      6  C   UNL     1      45.523   5.738  11.423  0.00  0.00    +0.000 A 
ENDROOT
BRANCH   1   7
ATOM      7  C   UNL     1      44.152   4.447   9.738  0.00  0.00    +0.000 C 
BRANCH   7  10
ATOM      8  O   UNL     1      46.337   5.023   8.092  0.00  0.00    +0.000 OA
ATOM      9  C   UNL     1      45.850   3.896   8.058  0.00  0.00    +0.000 C 
ATOM     10  N   UNL     1      44.775   3.518   8.830  0.00  0.00    +0.000 N 
ATOM     11  H   UNL     1      44.433   2.566   8.733  0.00  0.00    +0.000 HD
BRANCH   9  12
ATOM     12  C   UNL     1      46.409   2.838   7.158  0.00  0.00    +0.000 A 
ATOM     13  C   UNL     1      46.633   3.139   5.818  0.00  0.00    +0.000 A 
ATOM     14  C   UNL     1      47.156   2.147   4.998  0.00  0.00    +0.000 A 
ATOM     15  C   UNL     1      47.434   0.895   5.538  0.00  0.00    +0.000 A 
ATOM     16  C   UNL     1      47.177   0.684   6.886  0.00  0.00    +0.000 A 
ATOM     17  N   UNL     1      46.672   1.624   7.718  0.00  0.00    +0.000 NA
ENDBRANCH   9  12
ENDBRANCH   7  10
ENDBRANCH   1   7
BRANCH   5  18
ATOM     18  C   UNL     1      47.028   7.071  12.961  0.00  0.00    +0.000 C 
BRANCH  18  19
ATOM     19  N   UNL     1      47.363   7.130  14.359  0.00  0.00    +0.000 N 
ATOM     20  C   UNL     1      48.660   6.980  14.780  0.00  0.00    +0.000 C 
ATOM     21  O   UNL     1      49.590   6.839  13.987  0.00  0.00    +0.000 OA
ATOM     22  H   UNL     1      46.605   6.981  15.022  0.00  0.00    +0.000 HD
BRANCH  20  23
ATOM     23  C   UNL     1      48.896   7.054  16.225  0.00  0.00    +0.000 A 
ATOM     24  C   UNL     1      49.209   8.271  16.814  0.00  0.00    +0.000 A 
ATOM     25  S   UNL     1      49.391   8.186  18.508  0.00  0.00    +0.000 S 
ATOM     26  C   UNL     1      49.117   6.507  18.507  0.00  0.00    +0.000 A 
ATOM     27  N   UNL     1      49.159   5.788  19.661  0.00  0.00    +0.000 NA
ATOM     28  C   UNL     1      48.963   4.523  19.509  0.00  0.00    +0.000 A 
ATOM     29  N   UNL     1      48.723   3.908  18.308  0.00  0.00    +0.000 N 
ATOM     30  C   UNL     1      48.643   4.594  17.121  0.00  0.00    +0.000 A 
ATOM     31  O   UNL     1      48.386   4.020  16.070  0.00  0.00    +0.000 OA
ATOM     32  C   UNL     1      48.869   6.022  17.236  0.00  0.00    +0.000 A 
ATOM     33  H   UNL     1      48.570   2.912  18.255  0.00  0.00    +0.000 HD
ENDBRANCH  20  23
ENDBRANCH  18  19
ENDBRANCH   5  18
TORSDOF 6
ENDMDL
MODEL 5
REMARK VINA RESULT:    -8.250      2.453      3.583
REMARK INTER + INTRA:         -11.986
REMARK INTER:                 -10.862
REMARK INTRA:                  -1.124
REMARK UNBOUND:                -0.842
REMARK  Name = 
REMARK  6 active torsions:
REMARK  status: ('A' for Active; 'I' for Inactive)
REMARK    1  A    between atoms: C_2  and  C_25
REMARK    2  A    between atoms: N_3  and  C_4
REMARK    3  A    between atoms: C_4  and  C_5
REMARK    4  A    between atoms: C_9  and  C_10
REMARK    5  A    between atoms: C_10  and  N_11
REMARK    6  A    between atoms: C_12  and  C_14
REMARK                            x       y       z     vdW  Elec       q    Type
REMARK                         _______ _______ _______ _____ _____    ______ ____
ROOT
ATOM      1  C   UNL     1      44.726   7.517  11.634  0.00  0.00    +0.000 A 
ATOM      2  C   UNL     1      44.028   8.659  11.222  0.00  0.00    +0.000 A 
ATOM      3  C   UNL     1      44.565   9.928  11.433  0.00  0.00    +0.000 A 
ATOM      4  C   UNL     1      45.787  10.070  12.091  0.00  0.00    +0.000 A 
ATOM      5  C   UNL     1      46.479   8.945  12.561  0.00  0.00    +0.000 A 
ATOM      6  C   UNL     1      45.955   7.670  12.296  0.00  0.00    +0.000 A 
ENDROOT
BRANCH   1   7
ATOM      7  C   UNL     1      44.134   6.151  11.420  0.00  0.00    +0.000 C 
BRANCH   7  10
ATOM      8  O   UNL     1      43.455   3.596  10.513  0.00  0.00    +0.000 OA
ATOM      9  C   UNL     1      44.444   4.148  10.041  0.00  0.00    +0.000 C 
ATOM     10  N   UNL     1      44.858   5.404  10.424  0.00  0.00    +0.000 N 
ATOM     11  H   UNL     1      45.693   5.783   9.984  0.00  0.00    +0.000 HD
BRANCH   9  12
ATOM     12  C   UNL     1      45.280   3.480   8.994  0.00  0.00    +0.000 A 
ATOM     13  C   UNL     1      45.433   2.098   9.033  0.00  0.00    +0.000 A 
ATOM     14  C   UNL     1      46.207   1.491   8.051  0.00  0.00    +0.000 A 
ATOM     15  C   UNL     1      46.802   2.281   7.072  0.00  0.00    +0.000 A 
ATOM     16  C   UNL     1      46.596   3.653   7.112  0.00  0.00    +0.000 A 
ATOM     17  N   UNL     1      45.846   4.280   8.048  0.00  0.00    +0.000 NA
ENDBRANCH   9  12
ENDBRANCH   7  10
ENDBRANCH   1   7
BRANCH   5  18
ATOM     18  C   UNL     1      47.748   9.108  13.356  0.00  0.00    +0.000 C 
BRANCH  18  19
ATOM     19  N   UNL     1      47.783   8.250  14.512  0.00  0.00    +0.000 N 
ATOM     20  C   UNL     1      48.964   7.703  14.946  0.00  0.00    +0.000 C 
ATOM     21  O   UNL     1      50.038   7.956  14.403  0.00  0.00    +0.000 OA
ATOM     22  H   UNL     1      46.904   7.829  14.800  0.00  0.00    +0.000 HD
BRANCH  20  23
ATOM     23  C   UNL     1      48.893   6.841  16.131  0.00  0.00    +0.000 A 
ATOM     24  C   UNL     1      49.508   7.236  17.311  0.00  0.00    +0.000 A 
ATOM     25  S   UNL     1      49.275   6.146  18.603  0.00  0.00    +0.000 S 
ATOM     26  C   UNL     1      48.394   5.078  17.612  0.00  0.00    +0.000 A 
ATOM     27  N   UNL     1      47.912   3.903  18.101  0.00  0.00    +0.000 NA
ATOM     28  C   UNL     1      47.290   3.180  17.235  0.00  0.00    +0.000 A 
ATOM     29  N   UNL     1      47.101   3.523  15.922  0.00  0.00    +0.000 N 
ATOM     30  C   UNL     1      47.543   4.710  15.389  0.00  0.00    +0.000 A 
ATOM     31  O   UNL     1      47.321   5.005  14.221  0.00  0.00    +0.000 OA
ATOM     32  C   UNL     1      48.261   5.557  16.322  0.00  0.00    +0.000 A 
ATOM     33  H   UNL     1      46.598   2.915  15.292  0.00  0.00    +0.000 HD
ENDBRANCH  20  23
ENDBRANCH  18  19
ENDBRANCH   5  18
TORSDOF 6
ENDMDL
MODEL 6
REMARK VINA RESULT:    -8.169      2.184      2.750
REMARK INTER + INTRA:         -11.876
REMARK INTER:                 -11.180
REMARK INTRA:                  -0.697
REMARK UNBOUND:                -0.842
REMARK  Name = 
REMARK  6 active torsions:
REMARK  status: ('A' for Active; 'I' for Inactive)
REMARK    1  A    between atoms: C_2  and  C_25
REMARK    2  A    between atoms: N_3  and  C_4
REMARK    3  A    between atoms: C_4  and  C_5
REMARK    4  A    between atoms: C_9  and  C_10
REMARK    5  A    between atoms: C_10  and  N_11
REMARK    6  A    between atoms: C_12  and  C_14
REMARK                            x       y       z     vdW  Elec       q    Type
REMARK                         _______ _______ _______ _____ _____    ______ ____
ROOT
ATOM      1  C   UNL     1      45.174   6.088  11.613  0.00  0.00    +0.000 A 
ATOM      2  C   UNL     1      44.721   7.413  11.613  0.00  0.00    +0.000 A 
ATOM      3  C   UNL     1      45.436   8.404  12.283  0.00  0.00    +0.000 A 
ATOM      4  C   UNL     1      46.593   8.073  12.991  0.00  0.00    +0.000 A 
ATOM      5  C   UNL     1      47.038   6.746  13.050  0.00  0.00    +0.000 A 
ATOM      6  C   UNL     1      46.338   5.765  12.328  0.00  0.00    +0.000 A 
ENDROOT
BRANCH   1   7
ATOM      7  C   UNL     1      44.388   5.020  10.903  0.00  0.00    +0.000 C 
BRANCH   7  10
ATOM      8  O   UNL     1      43.959   2.450   9.891  0.00  0.00    +0.000 OA
ATOM      9  C   UNL     1      44.865   3.129   9.418  0.00  0.00    +0.000 C 
ATOM     10  N   UNL     1      45.154   4.404   9.849  0.00  0.00    +0.000 N 
ATOM     11  H   UNL     1      45.927   4.892   9.404  0.00  0.00    +0.000 HD
BRANCH   9  12
ATOM     12  C   UNL     1      45.731   2.605   8.315  0.00  0.00    +0.000 A 
ATOM     13  C   UNL     1      46.081   3.453   7.269  0.00  0.00    +0.000 A 
ATOM     14  C   UNL     1      46.889   2.953   6.255  0.00  0.00    +0.000 A 
ATOM     15  C   UNL     1      47.316   1.631   6.317  0.00  0.00    +0.000 A 
ATOM     16  C   UNL     1      46.917   0.856   7.399  0.00  0.00    +0.000 A 
ATOM     17  N   UNL     1      46.135   1.307   8.406  0.00  0.00    +0.000 NA
ENDBRANCH   9  12
ENDBRANCH   7  10
ENDBRANCH   1   7
BRANCH   5  18
ATOM     18  C   UNL     1      48.230   6.377  13.895  0.00  0.00    +0.000 C 
BRANCH  18  19
ATOM     19  N   UNL     1      48.011   6.638  15.293  0.00  0.00    +0.000 N 
ATOM     20  C   UNL     1      49.017   6.456  16.209  0.00  0.00    +0.000 C 
ATOM     21  O   UNL     1      50.149   6.113  15.873  0.00  0.00    +0.000 OA
ATOM     22  H   UNL     1      47.045   6.660  15.613  0.00  0.00    +0.000 HD
BRANCH  20  23
ATOM     23  C   UNL     1      48.692   6.747  17.609  0.00  0.00    +0.000 A 
ATOM     24  C   UNL     1      48.395   8.047  17.995  0.00  0.00    +0.000 A 
ATOM     25  S   UNL     1      47.983   8.195  19.644  0.00  0.00    +0.000 S 
ATOM     26  C   UNL     1      48.244   6.535  19.913  0.00  0.00    +0.000 A 
ATOM     27  N   UNL     1      48.088   5.992  21.151  0.00  0.00    +0.000 NA
ATOM     28  C   UNL     1      48.347   4.731  21.216  0.00  0.00    +0.000 A 
ATOM     29  N   UNL     1      48.744   3.958  20.156  0.00  0.00    +0.000 N 
ATOM     30  C   UNL     1      48.888   4.454  18.883  0.00  0.00    +0.000 A 
ATOM     31  O   UNL     1      49.204   3.728  17.949  0.00  0.00    +0.000 OA
ATOM     32  C   UNL     1      48.619   5.874  18.758  0.00  0.00    +0.000 A 
ATOM     33  H   UNL     1      48.926   2.972  20.270  0.00  0.00    +0.000 HD
ENDBRANCH  20  23
ENDBRANCH  18  19
ENDBRANCH   5  18
TORSDOF 6
ENDMDL
MODEL 7
REMARK VINA RESULT:    -7.836      3.262      4.046
REMARK INTER + INTRA:         -11.427
REMARK INTER:                 -10.571
REMARK INTRA:                  -0.856
REMARK UNBOUND:                -0.842
REMARK  Name = 
REMARK  6 active torsions:
REMARK  status: ('A' for Active; 'I' for Inactive)
REMARK    1  A    between atoms: C_2  and  C_25
REMARK    2  A    between atoms: N_3  and  C_4
REMARK    3  A    between atoms: C_4  and  C_5
REMARK    4  A    between atoms: C_9  and  C_10
REMARK    5  A    between atoms: C_10  and  N_11
REMARK    6  A    between atoms: C_12  and  C_14
REMARK                            x       y       z     vdW  Elec       q    Type
REMARK                         _______ _______ _______ _____ _____    ______ ____
ROOT
ATOM      1  C   UNL     1      44.521   5.028  11.276  0.00  0.00    +0.000 A 
ATOM      2  C   UNL     1      45.197   4.105  12.083  0.00  0.00    +0.000 A 
ATOM      3  C   UNL     1      45.968   4.541  13.160  0.00  0.00    +0.000 A 
ATOM      4  C   UNL     1      46.101   5.906  13.417  0.00  0.00    +0.000 A 
ATOM      5  C   UNL     1      45.478   6.852  12.592  0.00  0.00    +0.000 A 
ATOM      6  C   UNL     1      44.661   6.399  11.542  0.00  0.00    +0.000 A 
ENDROOT
BRANCH   1   7
ATOM      7  C   UNL     1      43.706   4.553  10.105  0.00  0.00    +0.000 C 
BRANCH   7  10
ATOM      8  O   UNL     1      45.807   5.220   8.386  0.00  0.00    +0.000 OA
ATOM      9  C   UNL     1      45.460   4.045   8.470  0.00  0.00    +0.000 C 
ATOM     10  N   UNL     1      44.438   3.620   9.287  0.00  0.00    +0.000 N 
ATOM     11  H   UNL     1      44.214   2.628   9.289  0.00  0.00    +0.000 HD
BRANCH   9  12
ATOM     12  C   UNL     1      46.144   2.977   7.675  0.00  0.00    +0.000 A 
ATOM     13  C   UNL     1      46.620   3.281   6.403  0.00  0.00    +0.000 A 
ATOM     14  C   UNL     1      47.257   2.280   5.679  0.00  0.00    +0.000 A 
ATOM     15  C   UNL     1      47.394   1.016   6.245  0.00  0.00    +0.000 A 
ATOM     16  C   UNL     1      46.888   0.803   7.520  0.00  0.00    +0.000 A 
ATOM     17  N   UNL     1      46.265   1.751   8.258  0.00  0.00    +0.000 NA
ENDBRANCH   9  12
ENDBRANCH   7  10
ENDBRANCH   1   7
BRANCH   5  18
ATOM     18  C   UNL     1      45.703   8.325  12.813  0.00  0.00    +0.000 C 
BRANCH  18  19
ATOM     19  N   UNL     1      46.667   8.581  13.850  0.00  0.00    +0.000 N 
ATOM     20  C   UNL     1      47.864   9.188  13.563  0.00  0.00    +0.000 C 
ATOM     21  O   UNL     1      48.142   9.577  12.430  0.00  0.00    +0.000 OA
ATOM     22  H   UNL     1      46.575   8.045  14.709  0.00  0.00    +0.000 HD
BRANCH  20  23
ATOM     23  C   UNL     1      48.779   9.402  14.688  0.00  0.00    +0.000 A 
ATOM     24  C   UNL     1      49.049  10.692  15.125  0.00  0.00    +0.000 A 
ATOM     25  S   UNL     1      50.084  10.755  16.479  0.00  0.00    +0.000 S 
ATOM     26  C   UNL     1      50.256   9.062  16.493  0.00  0.00    +0.000 A 
ATOM     27  N   UNL     1      51.052   8.444  17.408  0.00  0.00    +0.000 NA
ATOM     28  C   UNL     1      51.113   7.163  17.283  0.00  0.00    +0.000 A 
ATOM     29  N   UNL     1      50.448   6.438  16.330  0.00  0.00    +0.000 N 
ATOM     30  C   UNL     1      49.612   7.012  15.403  0.00  0.00    +0.000 A 
ATOM     31  O   UNL     1      49.000   6.331  14.589  0.00  0.00    +0.000 OA
ATOM     32  C   UNL     1      49.518   8.457  15.493  0.00  0.00    +0.000 A 
ATOM     33  H   UNL     1      50.531   5.433  16.288  0.00  0.00    +0.000 HD
ENDBRANCH  20  23
ENDBRANCH  18  19
ENDBRANCH   5  18
TORSDOF 6
ENDMDL
MODEL 8
REMARK VINA RESULT:    -7.733      3.800      8.977
REMARK INTER + INTRA:         -11.287
REMARK INTER:                 -10.242
REMARK INTRA:                  -1.045
REMARK UNBOUND:                -0.842
REMARK  Name = 
REMARK  6 active torsions:
REMARK  status: ('A' for Active; 'I' for Inactive)
REMARK    1  A    between atoms: C_2  and  C_25
REMARK    2  A    between atoms: N_3  and  C_4
REMARK    3  A    between atoms: C_4  and  C_5
REMARK    4  A    between atoms: C_9  and  C_10
REMARK    5  A    between atoms: C_10  and  N_11
REMARK    6  A    between atoms: C_12  and  C_14
REMARK                            x       y       z     vdW  Elec       q    Type
REMARK                         _______ _______ _______ _____ _____    ______ ____
ROOT
ATOM      1  C   UNL     1      48.535   5.139  18.167  0.00  0.00    +0.000 A 
ATOM      2  C   UNL     1      48.539   6.057  19.225  0.00  0.00    +0.000 A 
ATOM      3  C   UNL     1      48.508   7.427  18.970  0.00  0.00    +0.000 A 
ATOM      4  C   UNL     1      48.510   7.894  17.655  0.00  0.00    +0.000 A 
ATOM      5  C   UNL     1      48.560   6.997  16.580  0.00  0.00    +0.000 A 
ATOM      6  C   UNL     1      48.538   5.619  16.848  0.00  0.00    +0.000 A 
ENDROOT
BRANCH   1   7
ATOM      7  C   UNL     1      48.587   3.662  18.448  0.00  0.00    +0.000 C 
BRANCH   7  10
ATOM      8  O   UNL     1      49.792   2.115  16.456  0.00  0.00    +0.000 OA
ATOM      9  C   UNL     1      50.446   2.415  17.450  0.00  0.00    +0.000 C 
ATOM     10  N   UNL     1      49.941   3.172  18.483  0.00  0.00    +0.000 N 
ATOM     11  H   UNL     1      50.552   3.368  19.271  0.00  0.00    +0.000 HD
BRANCH   9  12
ATOM     12  C   UNL     1      51.867   1.971  17.605  0.00  0.00    +0.000 A 
ATOM     13  C   UNL     1      52.850   2.923  17.857  0.00  0.00    +0.000 A 
ATOM     14  C   UNL     1      54.164   2.494  18.003  0.00  0.00    +0.000 A 
ATOM     15  C   UNL     1      54.451   1.138  17.891  0.00  0.00    +0.000 A 
ATOM     16  C   UNL     1      53.407   0.258  17.638  0.00  0.00    +0.000 A 
ATOM     17  N   UNL     1      52.116   0.636  17.493  0.00  0.00    +0.000 NA
ENDBRANCH   9  12
ENDBRANCH   7  10
ENDBRANCH   1   7
BRANCH   5  18
ATOM     18  C   UNL     1      48.661   7.506  15.165  0.00  0.00    +0.000 C 
BRANCH  18  19
ATOM     19  N   UNL     1      47.466   7.251  14.405  0.00  0.00    +0.000 N 
ATOM     20  C   UNL     1      47.484   6.396  13.332  0.00  0.00    +0.000 C 
ATOM     21  O   UNL     1      48.497   5.780  13.006  0.00  0.00    +0.000 OA
ATOM     22  H   UNL     1      46.713   7.930  14.487  0.00  0.00    +0.000 HD
BRANCH  20  23
ATOM     23  C   UNL     1      46.215   6.206  12.622  0.00  0.00    +0.000 A 
ATOM     24  C   UNL     1      45.579   7.294  12.039  0.00  0.00    +0.000 A 
ATOM     25  S   UNL     1      44.149   6.884  11.204  0.00  0.00    +0.000 S 
ATOM     26  C   UNL     1      44.298   5.247  11.643  0.00  0.00    +0.000 A 
ATOM     27  N   UNL     1      43.365   4.331  11.266  0.00  0.00    +0.000 NA
ATOM     28  C   UNL     1      43.588   3.135  11.692  0.00  0.00    +0.000 A 
ATOM     29  N   UNL     1      44.662   2.767  12.460  0.00  0.00    +0.000 N 
ATOM     30  C   UNL     1      45.644   3.648  12.842  0.00  0.00    +0.000 A 
ATOM     31  O   UNL     1      46.613   3.278  13.494  0.00  0.00    +0.000 OA
ATOM     32  C   UNL     1      45.433   5.013  12.397  0.00  0.00    +0.000 A 
ATOM     33  H   UNL     1      44.785   1.810  12.758  0.00  0.00    +0.000 HD
ENDBRANCH  20  23
ENDBRANCH  18  19
ENDBRANCH   5  18
TORSDOF 6
ENDMDL
MODEL 9
REMARK VINA RESULT:    -7.682      2.775      3.554
REMARK INTER + INTRA:         -11.219
REMARK INTER:                 -10.283
REMARK INTRA:                  -0.937
REMARK UNBOUND:                -0.842
REMARK  Name = 
REMARK  6 active torsions:
REMARK  status: ('A' for Active; 'I' for Inactive)
REMARK    1  A    between atoms: C_2  and  C_25
REMARK    2  A    between atoms: N_3  and  C_4
REMARK    3  A    between atoms: C_4  and  C_5
REMARK    4  A    between atoms: C_9  and  C_10
REMARK    5  A    between atoms: C_10  and  N_11
REMARK    6  A    between atoms: C_12  and  C_14
REMARK                            x       y       z     vdW  Elec       q    Type
REMARK                         _______ _______ _______ _____ _____    ______ ____
ROOT
ATOM      1  C   UNL     1      45.017   7.721  11.893  0.00  0.00    +0.000 A 
ATOM      2  C   UNL     1      44.598   8.931  11.326  0.00  0.00    +0.000 A 
ATOM      3  C   UNL     1      45.299  10.108  11.577  0.00  0.00    +0.000 A 
ATOM      4  C   UNL     1      46.405  10.096  12.428  0.00  0.00    +0.000 A 
ATOM      5  C   UNL     1      46.813   8.908  13.049  0.00  0.00    +0.000 A 
ATOM      6  C   UNL     1      46.131   7.719  12.748  0.00  0.00    +0.000 A 
ENDROOT
BRANCH   1   7
ATOM      7  C   UNL     1      44.246   6.456  11.633  0.00  0.00    +0.000 C 
BRANCH   7  10
ATOM      8  O   UNL     1      43.247   4.036  10.655  0.00  0.00    +0.000 OA
ATOM      9  C   UNL     1      44.329   4.441  10.240  0.00  0.00    +0.000 C 
ATOM     10  N   UNL     1      44.902   5.620  10.661  0.00  0.00    +0.000 N 
ATOM     11  H   UNL     1      45.804   5.876  10.269  0.00  0.00    +0.000 HD
BRANCH   9  12
ATOM     12  C   UNL     1      45.109   3.666   9.224  0.00  0.00    +0.000 A 
ATOM     13  C   UNL     1      45.765   4.353   8.208  0.00  0.00    +0.000 A 
ATOM     14  C   UNL     1      46.489   3.619   7.275  0.00  0.00    +0.000 A 
ATOM     15  C   UNL     1      46.531   2.233   7.387  0.00  0.00    +0.000 A 
ATOM     16  C   UNL     1      45.845   1.632   8.434  0.00  0.00    +0.000 A 
ATOM     17  N   UNL     1      45.133   2.311   9.363  0.00  0.00    +0.000 NA
ENDBRANCH   9  12
ENDBRANCH   7  10
ENDBRANCH   1   7
BRANCH   5  18
ATOM     18  C   UNL     1      47.947   8.917  14.042  0.00  0.00    +0.000 C 
BRANCH  18  19
ATOM     19  N   UNL     1      47.799   7.901  15.050  0.00  0.00    +0.000 N 
ATOM     20  C   UNL     1      48.476   6.711  14.954  0.00  0.00    +0.000 C 
ATOM     21  O   UNL     1      49.265   6.483  14.040  0.00  0.00    +0.000 OA
ATOM     22  H   UNL     1      46.977   7.959  15.648  0.00  0.00    +0.000 HD
BRANCH  20  23
ATOM     23  C   UNL     1      48.255   5.740  16.031  0.00  0.00    +0.000 A 
ATOM     24  C   UNL     1      47.534   4.581  15.780  0.00  0.00    +0.000 A 
ATOM     25  S   UNL     1      47.426   3.537  17.126  0.00  0.00    +0.000 S 
ATOM     26  C   UNL     1      48.289   4.627  18.108  0.00  0.00    +0.000 A 
ATOM     27  N   UNL     1      48.530   4.351  19.418  0.00  0.00    +0.000 NA
ATOM     28  C   UNL     1      49.167   5.277  20.050  0.00  0.00    +0.000 A 
ATOM     29  N   UNL     1      49.591   6.454  19.491  0.00  0.00    +0.000 N 
ATOM     30  C   UNL     1      49.397   6.765  18.167  0.00  0.00    +0.000 A 
ATOM     31  O   UNL     1      49.825   7.808  17.689  0.00  0.00    +0.000 OA
ATOM     32  C   UNL     1      48.672   5.760  17.414  0.00  0.00    +0.000 A 
ATOM     33  H   UNL     1      50.093   7.138  20.038  0.00  0.00    +0.000 HD
ENDBRANCH  20  23
ENDBRANCH  18  19
ENDBRANCH   5  18
TORSDOF 6
ENDMDL
