MODEL 1
REMARK VINA RESULT:    -8.217      0.000      0.000
REMARK INTER + INTRA:         -10.934
REMARK INTER:                 -10.619
REMARK INTRA:                  -0.315
REMARK UNBOUND:                -0.315
REMARK  Name = 
REMARK  5 active torsions:
REMARK  status: ('A' for Active; 'I' for Inactive)
REMARK    1  A    between atoms: C_2  and  C_4
REMARK    2  A    between atoms: C_8  and  O_9
REMARK    3  A    between atoms: O_9  and  C_10
REMARK    4  A    between atoms: C_10  and  C_11
REMARK    5  A    between atoms: C_16  and  N_17
REMARK                            x       y       z     vdW  Elec       q    Type
REMARK                         _______ _______ _______ _____ _____    ______ ____
ROOT
ATOM      1  C   UNL     1      44.495   4.172  12.106  0.00  0.00    +0.000 A 
ATOM      2  C   UNL     1      43.823   5.369  11.898  0.00  0.00    +0.000 A 
ATOM      3  F   UNL     1      42.677   5.383  11.204  0.00  0.00    +0.000 F 
ATOM      4  C   UNL     1      44.327   6.564  12.385  0.00  0.00    +0.000 A 
ATOM      5  C   UNL     1      45.529   6.571  13.100  0.00  0.00    +0.000 A 
ATOM      6  C   UNL     1      46.256   5.392  13.339  0.00  0.00    +0.000 A 
ATOM      7  C   UNL     1      45.697   4.200  12.824  0.00  0.00    +0.000 A 
ATOM      8  F   UNL     1      46.315   3.025  13.037  0.00  0.00    +0.000 F 
ENDROOT
BRANCH   6   9
ATOM      9  N   UNL     1      47.459   5.425  14.020  0.00  0.00    +0.000 N 
ATOM     10  C   UNL     1      47.739   4.604  15.207  0.00  0.00    +0.000 C 
ATOM     11  C   UNL     1      48.244   5.495  16.364  0.00  0.00    +0.000 C 
ATOM     12  N   UNL     1      49.406   6.335  15.999  0.00  0.00    +0.000 NA
ATOM     13  C   UNL     1      49.055   7.138  14.808  0.00  0.00    +0.000 C 
ATOM     14  C   UNL     1      48.567   6.298  13.601  0.00  0.00    +0.000 C 
ATOM     15  H   UNL     1      50.172   5.714  15.739  0.00  0.00    +0.000 HD
ENDBRANCH   6   9
BRANCH   1  16
ATOM     16  C   UNL     1      43.936   2.878  11.606  0.00  0.00    +0.000 C 
BRANCH  16  17
ATOM     17  O   UNL     1      43.529   3.052  10.247  0.00  0.00    +0.000 OA
BRANCH  17  22
ATOM     18  C   UNL     1      46.241   2.081   7.920  0.00  0.00    +0.000 A 
ATOM     19  C   UNL     1      46.490   3.352   7.419  0.00  0.00    +0.000 A 
ATOM     20  N   UNL     1      45.796   4.451   7.792  0.00  0.00    +0.000 NA
ATOM     21  C   UNL     1      44.830   4.270   8.726  0.00  0.00    +0.000 A 
ATOM     22  C   UNL     1      44.518   3.042   9.307  0.00  0.00    +0.000 A 
ATOM     23  C   UNL     1      45.240   1.929   8.886  0.00  0.00    +0.000 A 
BRANCH  18  25
ATOM     24  N   UNL     1      48.086   1.232   6.593  0.00  0.00    +0.000 N 
ATOM     25  C   UNL     1      47.061   0.948   7.454  0.00  0.00    +0.000 C 
ATOM     26  O   UNL     1      46.851  -0.194   7.837  0.00  0.00    +0.000 OA
ATOM     27  H   UNL     1      48.694   0.460   6.351  0.00  0.00    +0.000 HD
ATOM     28  H   UNL     1      48.452   2.166   6.471  0.00  0.00    +0.000 HD
ENDBRANCH  18  25
ENDBRANCH  17  22
ENDBRANCH  16  17
ENDBRANCH   1  16
TORSDOF 5
ENDMDL
MODEL 2
REMARK VINA RESULT:    -8.132      1.640      2.400
REMARK INTER + INTRA:         -10.825
REMARK INTER:                 -10.524
REMARK INTRA:                  -0.300
REMARK UNBOUND:                -0.315
REMARK  Name = 
REMARK  5 active torsions:
REMARK  status: ('A' for Active; 'I' for Inactive)
REMARK    1  A    between atoms: C_2  and  C_4
REMARK    2  A    between atoms: C_8  and  O_9
REMARK    3  A    between atoms: O_9  and  C_10
REMARK    4  A    between atoms: C_10  and  C_11
REMARK    5  A    between atoms: C_16  and  N_17
REMARK                            x       y       z     vdW  Elec       q    Type
REMARK                         _______ _______ _______ _____ _____    ______ ____
ROOT
ATOM      1  C   UNL     1      44.810   4.820  11.720  0.00  0.00    +0.000 A 
ATOM      2  C   UNL     1      45.186   3.804  12.588  0.00  0.00    +0.000 A 
ATOM      3  F   UNL     1      44.490   2.659  12.622  0.00  0.00    +0.000 F 
ATOM      4  C   UNL     1      46.268   3.957  13.440  0.00  0.00    +0.000 A 
ATOM      5  C   UNL     1      46.997   5.150  13.428  0.00  0.00    +0.000 A 
ATOM      6  C   UNL     1      46.662   6.215  12.575  0.00  0.00    +0.000 A 
ATOM      7  C   UNL     1      45.553   6.007  11.724  0.00  0.00    +0.000 A 
ATOM      8  F   UNL     1      45.187   6.966  10.855  0.00  0.00    +0.000 F 
ENDROOT
BRANCH   6   9
ATOM      9  N   UNL     1      47.376   7.399  12.603  0.00  0.00    +0.000 N 
ATOM     10  C   UNL     1      48.550   7.655  11.754  0.00  0.00    +0.000 C 
ATOM     11  C   UNL     1      49.743   8.118  12.620  0.00  0.00    +0.000 C 
ATOM     12  N   UNL     1      49.431   9.281  13.480  0.00  0.00    +0.000 NA
ATOM     13  C   UNL     1      48.252   8.953  14.310  0.00  0.00    +0.000 C 
ATOM     14  C   UNL     1      47.012   8.508  13.498  0.00  0.00    +0.000 C 
ATOM     15  H   UNL     1      49.177  10.061  12.874  0.00  0.00    +0.000 HD
ENDBRANCH   6   9
BRANCH   1  16
ATOM     16  C   UNL     1      43.659   4.644  10.779  0.00  0.00    +0.000 C 
BRANCH  16  17
ATOM     17  O   UNL     1      43.781   3.370  10.145  0.00  0.00    +0.000 OA
BRANCH  17  22
ATOM     18  C   UNL     1      46.330   2.111   7.773  0.00  0.00    +0.000 A 
ATOM     19  C   UNL     1      46.709   3.347   7.268  0.00  0.00    +0.000 A 
ATOM     20  N   UNL     1      46.147   4.515   7.653  0.00  0.00    +0.000 NA
ATOM     21  C   UNL     1      45.182   4.440   8.603  0.00  0.00    +0.000 A 
ATOM     22  C   UNL     1      44.747   3.252   9.188  0.00  0.00    +0.000 A 
ATOM     23  C   UNL     1      45.334   2.067   8.755  0.00  0.00    +0.000 A 
BRANCH  18  25
ATOM     24  N   UNL     1      47.816   1.024   6.192  0.00  0.00    +0.000 N 
ATOM     25  C   UNL     1      47.011   0.895   7.292  0.00  0.00    +0.000 C 
ATOM     26  O   UNL     1      46.884  -0.179   7.863  0.00  0.00    +0.000 OA
ATOM     27  H   UNL     1      48.346   0.203   5.927  0.00  0.00    +0.000 HD
ATOM     28  H   UNL     1      48.153   1.918   5.866  0.00  0.00    +0.000 HD
ENDBRANCH  18  25
ENDBRANCH  17  22
ENDBRANCH  16  17
ENDBRANCH   1  16
TORSDOF 5
ENDMDL
MODEL 3
REMARK VINA RESULT:    -7.893      2.362      3.328
REMARK INTER + INTRA:         -10.516
REMARK INTER:                 -10.029
REMARK INTRA:                  -0.487
REMARK UNBOUND:                -0.315
REMARK  Name = 
REMARK  5 active torsions:
REMARK  status: ('A' for Active; 'I' for Inactive)
REMARK    1  A    between atoms: C_2  and  C_4
REMARK    2  A    between atoms: C_8  and  O_9
REMARK    3  A    between atoms: O_9  and  C_10
REMARK    4  A    between atoms: C_10  and  C_11
REMARK    5  A    between atoms: C_16  and  N_17
REMARK                            x       y       z     vdW  Elec       q    Type
REMARK                         _______ _______ _______ _____ _____    ______ ____
ROOT
ATOM      1  C   UNL     1      44.820   4.867  11.759  0.00  0.00    +0.000 A 
ATOM      2  C   UNL     1      45.487   3.970  12.582  0.00  0.00    +0.000 A 
ATOM      3  F   UNL     1      45.173   2.668  12.550  0.00  0.00    +0.000 F 
ATOM      4  C   UNL     1      46.470   4.401  13.458  0.00  0.00    +0.000 A 
ATOM      5  C   UNL     1      46.802   5.758  13.516  0.00  0.00    +0.000 A 
ATOM      6  C   UNL     1      46.160   6.713  12.710  0.00  0.00    +0.000 A 
ATOM      7  C   UNL     1      45.167   6.222  11.832  0.00  0.00    +0.000 A 
ATOM      8  F   UNL     1      44.527   7.068  11.005  0.00  0.00    +0.000 F 
ENDROOT
BRANCH   6   9
ATOM      9  N   UNL     1      46.480   8.055  12.807  0.00  0.00    +0.000 N 
ATOM     10  C   UNL     1      45.472   9.125  12.848  0.00  0.00    +0.000 C 
ATOM     11  C   UNL     1      45.782  10.191  11.773  0.00  0.00    +0.000 C 
ATOM     12  N   UNL     1      47.155  10.735  11.860  0.00  0.00    +0.000 NA
ATOM     13  C   UNL     1      48.114   9.611  11.804  0.00  0.00    +0.000 C 
ATOM     14  C   UNL     1      47.874   8.521  12.876  0.00  0.00    +0.000 C 
ATOM     15  H   UNL     1      47.258  11.184  12.770  0.00  0.00    +0.000 HD
ENDBRANCH   6   9
BRANCH   1  16
ATOM     16  C   UNL     1      43.778   4.398  10.792  0.00  0.00    +0.000 C 
BRANCH  16  17
ATOM     17  O   UNL     1      44.245   4.645   9.465  0.00  0.00    +0.000 OA
BRANCH  17  22
ATOM     18  C   UNL     1      46.512   2.670   7.304  0.00  0.00    +0.000 A 
ATOM     19  C   UNL     1      46.240   1.431   7.869  0.00  0.00    +0.000 A 
ATOM     20  N   UNL     1      45.396   1.255   8.911  0.00  0.00    +0.000 NA
ATOM     21  C   UNL     1      44.780   2.365   9.387  0.00  0.00    +0.000 A 
ATOM     22  C   UNL     1      44.967   3.648   8.875  0.00  0.00    +0.000 A 
ATOM     23  C   UNL     1      45.856   3.795   7.815  0.00  0.00    +0.000 A 
BRANCH  18  25
ATOM     24  N   UNL     1      48.759   2.474   6.411  0.00  0.00    +0.000 N 
ATOM     25  C   UNL     1      47.443   2.754   6.164  0.00  0.00    +0.000 C 
ATOM     26  O   UNL     1      47.054   3.039   5.040  0.00  0.00    +0.000 OA
ATOM     27  H   UNL     1      49.370   2.449   5.604  0.00  0.00    +0.000 HD
ATOM     28  H   UNL     1      49.065   1.984   7.240  0.00  0.00    +0.000 HD
ENDBRANCH  18  25
ENDBRANCH  17  22
ENDBRANCH  16  17
ENDBRANCH   1  16
TORSDOF 5
ENDMDL
MODEL 4
REMARK VINA RESULT:    -7.554      3.667      7.414
REMARK INTER + INTRA:         -10.077
REMARK INTER:                  -9.100
REMARK INTRA:                  -0.977
REMARK UNBOUND:                -0.315
REMARK  Name = 
REMARK  5 active torsions:
REMARK  status: ('A' for Active; 'I' for Inactive)
REMARK    1  A    between atoms: C_2  and  C_4
REMARK    2  A    between atoms: C_8  and  O_9
REMARK    3  A    between atoms: O_9  and  C_10
REMARK    4  A    between atoms: C_10  and  C_11
REMARK    5  A    between atoms: C_16  and  N_17
REMARK                            x       y       z     vdW  Elec       q    Type
REMARK                         _______ _______ _______ _____ _____    ______ ____
ROOT
ATOM      1  C   UNL     1      47.143   7.174  12.779  0.00  0.00    +0.000 A 
ATOM      2  C   UNL     1      46.697   8.456  12.485  0.00  0.00    +0.000 A 
ATOM      3  F   UNL     1      47.467   9.516  12.768  0.00  0.00    +0.000 F 
ATOM      4  C   UNL     1      45.452   8.664  11.915  0.00  0.00    +0.000 A 
ATOM      5  C   UNL     1      44.629   7.571  11.627  0.00  0.00    +0.000 A 
ATOM      6  C   UNL     1      45.025   6.251  11.904  0.00  0.00    +0.000 A 
ATOM      7  C   UNL     1      46.305   6.093  12.482  0.00  0.00    +0.000 A 
ATOM      8  F   UNL     1      46.770   4.860  12.749  0.00  0.00    +0.000 F 
ENDROOT
BRANCH   6   9
ATOM      9  N   UNL     1      44.182   5.187  11.641  0.00  0.00    +0.000 N 
ATOM     10  C   UNL     1      43.358   4.535  12.670  0.00  0.00    +0.000 C 
ATOM     11  C   UNL     1      43.599   3.008  12.657  0.00  0.00    +0.000 C 
ATOM     12  N   UNL     1      43.397   2.390  11.328  0.00  0.00    +0.000 NA
ATOM     13  C   UNL     1      44.258   3.085  10.347  0.00  0.00    +0.000 C 
ATOM     14  C   UNL     1      44.043   4.617  10.291  0.00  0.00    +0.000 C 
ATOM     15  H   UNL     1      42.427   2.546  11.054  0.00  0.00    +0.000 HD
ENDBRANCH   6   9
BRANCH   1  16
ATOM     16  C   UNL     1      48.501   6.947  13.367  0.00  0.00    +0.000 C 
BRANCH  16  17
ATOM     17  O   UNL     1      48.471   7.333  14.742  0.00  0.00    +0.000 OA
BRANCH  17  22
ATOM     18  C   UNL     1      48.571   4.510  17.136  0.00  0.00    +0.000 A 
ATOM     19  C   UNL     1      49.903   4.653  17.503  0.00  0.00    +0.000 A 
ATOM     20  N   UNL     1      50.725   5.589  16.978  0.00  0.00    +0.000 NA
ATOM     21  C   UNL     1      50.181   6.433  16.067  0.00  0.00    +0.000 A 
ATOM     22  C   UNL     1      48.852   6.388  15.651  0.00  0.00    +0.000 A 
ATOM     23  C   UNL     1      48.038   5.400  16.198  0.00  0.00    +0.000 A 
BRANCH  18  25
ATOM     24  N   UNL     1      48.236   2.916  18.935  0.00  0.00    +0.000 N 
ATOM     25  C   UNL     1      47.755   3.461  17.775  0.00  0.00    +0.000 C 
ATOM     26  O   UNL     1      46.684   3.108  17.303  0.00  0.00    +0.000 OA
ATOM     27  H   UNL     1      47.625   2.262  19.408  0.00  0.00    +0.000 HD
ATOM     28  H   UNL     1      48.958   3.358  19.485  0.00  0.00    +0.000 HD
ENDBRANCH  18  25
ENDBRANCH  17  22
ENDBRANCH  16  17
ENDBRANCH   1  16
TORSDOF 5
ENDMDL
MODEL 5
REMARK VINA RESULT:    -7.248      3.678      7.285
REMARK INTER + INTRA:          -9.682
REMARK INTER:                  -8.667
REMARK INTRA:                  -1.015
REMARK UNBOUND:                -0.315
REMARK  Name = 
REMARK  5 active torsions:
REMARK  status: ('A' for Active; 'I' for Inactive)
REMARK    1  A    between atoms: C_2  and  C_4
REMARK    2  A    between atoms: C_8  and  O_9
REMARK    3  A    between atoms: O_9  and  C_10
REMARK    4  A    between atoms: C_10  and  C_11
REMARK    5  A    between atoms: C_16  and  N_17
REMARK                            x       y       z     vdW  Elec       q    Type
REMARK                         _______ _______ _______ _____ _____    ______ ____
ROOT
ATOM      1  C   UNL     1      47.267   6.809  13.585  0.00  0.00    +0.000 A 
ATOM      2  C   UNL     1      46.956   8.139  13.336  0.00  0.00    +0.000 A 
ATOM      3  F   UNL     1      47.711   9.114  13.859  0.00  0.00    +0.000 F 
ATOM      4  C   UNL     1      45.857   8.482  12.564  0.00  0.00    +0.000 A 
ATOM      5  C   UNL     1      45.049   7.477  12.023  0.00  0.00    +0.000 A 
ATOM      6  C   UNL     1      45.313   6.114  12.242  0.00  0.00    +0.000 A 
ATOM      7  C   UNL     1      46.446   5.819  13.033  0.00  0.00    +0.000 A 
ATOM      8  F   UNL     1      46.785   4.538  13.264  0.00  0.00    +0.000 F 
ENDROOT
BRANCH   6   9
ATOM      9  N   UNL     1      44.482   5.138  11.724  0.00  0.00    +0.000 N 
ATOM     10  C   UNL     1      43.433   4.470  12.510  0.00  0.00    +0.000 C 
ATOM     11  C   UNL     1      43.586   2.935  12.406  0.00  0.00    +0.000 C 
ATOM     12  N   UNL     1      43.621   2.439  11.013  0.00  0.00    +0.000 NA
ATOM     13  C   UNL     1      44.698   3.142  10.285  0.00  0.00    +0.000 C 
ATOM     14  C   UNL     1      44.585   4.686  10.328  0.00  0.00    +0.000 C 
ATOM     15  H   UNL     1      42.735   2.685  10.570  0.00  0.00    +0.000 HD
ENDBRANCH   6   9
BRANCH   1  16
ATOM     16  C   UNL     1      48.471   6.439  14.394  0.00  0.00    +0.000 C 
BRANCH  16  17
ATOM     17  O   UNL     1      48.084   6.339  15.765  0.00  0.00    +0.000 OA
BRANCH  17  22
ATOM     18  C   UNL     1      49.328   3.168  17.217  0.00  0.00    +0.000 A 
ATOM     19  C   UNL     1      48.085   2.605  17.472  0.00  0.00    +0.000 A 
ATOM     20  N   UNL     1      46.915   3.233  17.218  0.00  0.00    +0.000 NA
ATOM     21  C   UNL     1      46.997   4.467  16.660  0.00  0.00    +0.000 A 
ATOM     22  C   UNL     1      48.193   5.108  16.344  0.00  0.00    +0.000 A 
ATOM     23  C   UNL     1      49.379   4.440  16.636  0.00  0.00    +0.000 A 
BRANCH  18  25
ATOM     24  N   UNL     1      51.459   2.977  18.362  0.00  0.00    +0.000 N 
ATOM     25  C   UNL     1      50.546   2.396  17.524  0.00  0.00    +0.000 C 
ATOM     26  O   UNL     1      50.725   1.275  17.068  0.00  0.00    +0.000 OA
ATOM     27  H   UNL     1      52.246   2.401  18.633  0.00  0.00    +0.000 HD
ATOM     28  H   UNL     1      51.230   3.760  18.957  0.00  0.00    +0.000 HD
ENDBRANCH  18  25
ENDBRANCH  17  22
ENDBRANCH  16  17
ENDBRANCH   1  16
TORSDOF 5
ENDMDL
MODEL 6
REMARK VINA RESULT:    -7.060      3.883      7.632
REMARK INTER + INTRA:          -9.439
REMARK INTER:                  -8.655
REMARK INTRA:                  -0.784
REMARK UNBOUND:                -0.315
REMARK  Name = 
REMARK  5 active torsions:
REMARK  status: ('A' for Active; 'I' for Inactive)
REMARK    1  A    between atoms: C_2  and  C_4
REMARK    2  A    between atoms: C_8  and  O_9
REMARK    3  A    between atoms: O_9  and  C_10
REMARK    4  A    between atoms: C_10  and  C_11
REMARK    5  A    between atoms: C_16  and  N_17
REMARK                            x       y       z     vdW  Elec       q    Type
REMARK                         _______ _______ _______ _____ _____    ______ ____
ROOT
ATOM      1  C   UNL     1      47.877   7.072  13.904  0.00  0.00    +0.000 A 
ATOM      2  C   UNL     1      47.703   8.258  13.203  0.00  0.00    +0.000 A 
ATOM      3  F   UNL     1      48.561   9.272  13.376  0.00  0.00    +0.000 F 
ATOM      4  C   UNL     1      46.638   8.422  12.331  0.00  0.00    +0.000 A 
ATOM      5  C   UNL     1      45.724   7.379  12.149  0.00  0.00    +0.000 A 
ATOM      6  C   UNL     1      45.847   6.157  12.833  0.00  0.00    +0.000 A 
ATOM      7  C   UNL     1      46.951   6.041  13.707  0.00  0.00    +0.000 A 
ATOM      8  F   UNL     1      47.157   4.892  14.375  0.00  0.00    +0.000 F 
ENDROOT
BRANCH   6   9
ATOM      9  N   UNL     1      44.913   5.152  12.662  0.00  0.00    +0.000 N 
ATOM     10  C   UNL     1      45.248   3.817  12.145  0.00  0.00    +0.000 C 
ATOM     11  C   UNL     1      44.325   3.458  10.958  0.00  0.00    +0.000 C 
ATOM     12  N   UNL     1      42.885   3.570  11.277  0.00  0.00    +0.000 NA
ATOM     13  C   UNL     1      42.616   4.934  11.782  0.00  0.00    +0.000 C 
ATOM     14  C   UNL     1      43.492   5.344  12.991  0.00  0.00    +0.000 C 
ATOM     15  H   UNL     1      42.678   2.914  12.031  0.00  0.00    +0.000 HD
ENDBRANCH   6   9
BRANCH   1  16
ATOM     16  C   UNL     1      49.043   6.885  14.823  0.00  0.00    +0.000 C 
BRANCH  16  17
ATOM     17  O   UNL     1      48.583   6.991  16.171  0.00  0.00    +0.000 OA
BRANCH  17  22
ATOM     18  C   UNL     1      49.410   3.637  17.504  0.00  0.00    +0.000 A 
ATOM     19  C   UNL     1      48.877   3.828  18.772  0.00  0.00    +0.000 A 
ATOM     20  N   UNL     1      48.312   4.988  19.177  0.00  0.00    +0.000 NA
ATOM     21  C   UNL     1      48.258   5.989  18.263  0.00  0.00    +0.000 A 
ATOM     22  C   UNL     1      48.743   5.889  16.960  0.00  0.00    +0.000 A 
ATOM     23  C   UNL     1      49.334   4.687  16.583  0.00  0.00    +0.000 A 
BRANCH  18  25
ATOM     24  N   UNL     1      50.920   1.811  18.024  0.00  0.00    +0.000 N 
ATOM     25  C   UNL     1      49.996   2.330  17.158  0.00  0.00    +0.000 C 
ATOM     26  O   UNL     1      49.657   1.722  16.152  0.00  0.00    +0.000 OA
ATOM     27  H   UNL     1      51.248   0.875  17.820  0.00  0.00    +0.000 HD
ATOM     28  H   UNL     1      51.023   2.142  18.972  0.00  0.00    +0.000 HD
ENDBRANCH  18  25
ENDBRANCH  17  22
ENDBRANCH  16  17
ENDBRANCH   1  16
TORSDOF 5
ENDMDL
MODEL 7
REMARK VINA RESULT:    -6.919      2.583      4.602
REMARK INTER + INTRA:          -9.257
REMARK INTER:                  -8.343
REMARK INTRA:                  -0.913
REMARK UNBOUND:                -0.315
REMARK  Name = 
REMARK  5 active torsions:
REMARK  status: ('A' for Active; 'I' for Inactive)
REMARK    1  A    between atoms: C_2  and  C_4
REMARK    2  A    between atoms: C_8  and  O_9
REMARK    3  A    between atoms: O_9  and  C_10
REMARK    4  A    between atoms: C_10  and  C_11
REMARK    5  A    between atoms: C_16  and  N_17
REMARK                            x       y       z     vdW  Elec       q    Type
REMARK                         _______ _______ _______ _____ _____    ______ ____
ROOT
ATOM      1  C   UNL     1      47.890   7.115  13.870  0.00  0.00    +0.000 A 
ATOM      2  C   UNL     1      48.282   8.421  14.132  0.00  0.00    +0.000 A 
ATOM      3  F   UNL     1      48.120   9.370  13.201  0.00  0.00    +0.000 F 
ATOM      4  C   UNL     1      48.858   8.763  15.345  0.00  0.00    +0.000 A 
ATOM      5  C   UNL     1      49.048   7.782  16.324  0.00  0.00    +0.000 A 
ATOM      6  C   UNL     1      48.674   6.444  16.115  0.00  0.00    +0.000 A 
ATOM      7  C   UNL     1      48.088   6.148  14.863  0.00  0.00    +0.000 A 
ATOM      8  F   UNL     1      47.675   4.897  14.597  0.00  0.00    +0.000 F 
ENDROOT
BRANCH   6   9
ATOM      9  N   UNL     1      48.901   5.484  17.084  0.00  0.00    +0.000 N 
ATOM     10  C   UNL     1      50.245   5.027  17.470  0.00  0.00    +0.000 C 
ATOM     11  C   UNL     1      50.326   3.485  17.394  0.00  0.00    +0.000 C 
ATOM     12  N   UNL     1      49.273   2.800  18.177  0.00  0.00    +0.000 NA
ATOM     13  C   UNL     1      47.954   3.297  17.733  0.00  0.00    +0.000 C 
ATOM     14  C   UNL     1      47.799   4.836  17.812  0.00  0.00    +0.000 C 
ATOM     15  H   UNL     1      49.390   3.061  19.156  0.00  0.00    +0.000 HD
ENDBRANCH   6   9
BRANCH   1  16
ATOM     16  C   UNL     1      47.240   6.752  12.571  0.00  0.00    +0.000 C 
BRANCH  16  17
ATOM     17  O   UNL     1      45.828   6.682  12.773  0.00  0.00    +0.000 OA
BRANCH  17  22
ATOM     18  C   UNL     1      44.500   3.841  10.803  0.00  0.00    +0.000 A 
ATOM     19  C   UNL     1      43.823   3.222  11.845  0.00  0.00    +0.000 A 
ATOM     20  N   UNL     1      43.826   3.683  13.117  0.00  0.00    +0.000 NA
ATOM     21  C   UNL     1      44.517   4.827  13.345  0.00  0.00    +0.000 A 
ATOM     22  C   UNL     1      45.208   5.537  12.365  0.00  0.00    +0.000 A 
ATOM     23  C   UNL     1      45.199   5.023  11.071  0.00  0.00    +0.000 A 
BRANCH  18  25
ATOM     24  N   UNL     1      44.185   4.124   8.414  0.00  0.00    +0.000 N 
ATOM     25  C   UNL     1      44.426   3.262   9.450  0.00  0.00    +0.000 C 
ATOM     26  O   UNL     1      44.595   2.067   9.255  0.00  0.00    +0.000 OA
ATOM     27  H   UNL     1      44.225   3.727   7.484  0.00  0.00    +0.000 HD
ATOM     28  H   UNL     1      44.308   5.123   8.498  0.00  0.00    +0.000 HD
ENDBRANCH  18  25
ENDBRANCH  17  22
ENDBRANCH  16  17
ENDBRANCH   1  16
TORSDOF 5
ENDMDL
MODEL 8
REMARK VINA RESULT:    -6.741      3.810      8.671
REMARK INTER + INTRA:          -9.026
REMARK INTER:                  -8.113
REMARK INTRA:                  -0.913
REMARK UNBOUND:                -0.315
REMARK  Name = 
REMARK  5 active torsions:
REMARK  status: ('A' for Active; 'I' for Inactive)
REMARK    1  A    between atoms: C_2  and  C_4
REMARK    2  A    between atoms: C_8  and  O_9
REMARK    3  A    between atoms: O_9  and  C_10
REMARK    4  A    between atoms: C_10  and  C_11
REMARK    5  A    between atoms: C_16  and  N_17
REMARK                            x       y       z     vdW  Elec       q    Type
REMARK                         _______ _______ _______ _____ _____    ______ ____
ROOT
ATOM      1  C   UNL     1      47.297   4.928  14.495  0.00  0.00    +0.000 A 
ATOM      2  C   UNL     1      48.045   6.082  14.686  0.00  0.00    +0.000 A 
ATOM      3  F   UNL     1      48.879   6.176  15.731  0.00  0.00    +0.000 F 
ATOM      4  C   UNL     1      47.934   7.156  13.818  0.00  0.00    +0.000 A 
ATOM      5  C   UNL     1      47.058   7.082  12.731  0.00  0.00    +0.000 A 
ATOM      6  C   UNL     1      46.273   5.942  12.488  0.00  0.00    +0.000 A 
ATOM      7  C   UNL     1      46.427   4.873  13.400  0.00  0.00    +0.000 A 
ATOM      8  F   UNL     1      45.734   3.735  13.219  0.00  0.00    +0.000 F 
ENDROOT
BRANCH   6   9
ATOM      9  N   UNL     1      45.389   5.902  11.425  0.00  0.00    +0.000 N 
ATOM     10  C   UNL     1      43.937   6.079  11.574  0.00  0.00    +0.000 C 
ATOM     11  C   UNL     1      43.185   4.907  10.903  0.00  0.00    +0.000 C 
ATOM     12  N   UNL     1      43.563   4.697   9.488  0.00  0.00    +0.000 NA
ATOM     13  C   UNL     1      45.029   4.518   9.411  0.00  0.00    +0.000 C 
ATOM     14  C   UNL     1      45.841   5.675  10.043  0.00  0.00    +0.000 C 
ATOM     15  H   UNL     1      43.327   5.544   8.971  0.00  0.00    +0.000 HD
ENDBRANCH   6   9
BRANCH   1  16
ATOM     16  C   UNL     1      47.440   3.756  15.415  0.00  0.00    +0.000 C 
BRANCH  16  17
ATOM     17  O   UNL     1      46.635   3.986  16.572  0.00  0.00    +0.000 OA
BRANCH  17  22
ATOM     18  C   UNL     1      47.790   5.739  19.622  0.00  0.00    +0.000 A 
ATOM     19  C   UNL     1      48.828   4.868  19.929  0.00  0.00    +0.000 A 
ATOM     20  N   UNL     1      49.112   3.761  19.206  0.00  0.00    +0.000 NA
ATOM     21  C   UNL     1      48.338   3.534  18.116  0.00  0.00    +0.000 A 
ATOM     22  C   UNL     1      47.290   4.358  17.710  0.00  0.00    +0.000 A 
ATOM     23  C   UNL     1      47.014   5.479  18.488  0.00  0.00    +0.000 A 
BRANCH  18  25
ATOM     24  N   UNL     1      47.344   6.705  21.802  0.00  0.00    +0.000 N 
ATOM     25  C   UNL     1      47.569   6.924  20.470  0.00  0.00    +0.000 C 
ATOM     26  O   UNL     1      47.606   8.057  20.010  0.00  0.00    +0.000 OA
ATOM     27  H   UNL     1      47.281   7.530  22.387  0.00  0.00    +0.000 HD
ATOM     28  H   UNL     1      47.569   5.831  22.256  0.00  0.00    +0.000 HD
ENDBRANCH  18  25
ENDBRANCH  17  22
ENDBRANCH  16  17
ENDBRANCH   1  16
TORSDOF 5
ENDMDL
MODEL 9
REMARK VINA RESULT:    -6.712      3.869      6.139
REMARK INTER + INTRA:          -8.989
REMARK INTER:                  -8.156
REMARK INTRA:                  -0.833
REMARK UNBOUND:                -0.315
REMARK  Name = 
REMARK  5 active torsions:
REMARK  status: ('A' for Active; 'I' for Inactive)
REMARK    1  A    between atoms: C_2  and  C_4
REMARK    2  A    between atoms: C_8  and  O_9
REMARK    3  A    between atoms: O_9  and  C_10
REMARK    4  A    between atoms: C_10  and  C_11
REMARK    5  A    between atoms: C_16  and  N_17
REMARK                            x       y       z     vdW  Elec       q    Type
REMARK                         _______ _______ _______ _____ _____    ______ ____
ROOT
ATOM      1  C   UNL     1      49.394   7.088  14.915  0.00  0.00    +0.000 A 
ATOM      2  C   UNL     1      50.656   7.641  14.745  0.00  0.00    +0.000 A 
ATOM      3  F   UNL     1      50.907   8.430  13.692  0.00  0.00    +0.000 F 
ATOM      4  C   UNL     1      51.677   7.376  15.644  0.00  0.00    +0.000 A 
ATOM      5  C   UNL     1      51.438   6.544  16.741  0.00  0.00    +0.000 A 
ATOM      6  C   UNL     1      50.182   5.953  16.964  0.00  0.00    +0.000 A 
ATOM      7  C   UNL     1      49.174   6.257  16.020  0.00  0.00    +0.000 A 
ATOM      8  F   UNL     1      47.936   5.756  16.179  0.00  0.00    +0.000 F 
ENDROOT
BRANCH   6   9
ATOM      9  N   UNL     1      49.976   5.106  18.037  0.00  0.00    +0.000 N 
ATOM     10  C   UNL     1      49.805   3.652  17.898  0.00  0.00    +0.000 C 
ATOM     11  C   UNL     1      48.516   3.195  18.618  0.00  0.00    +0.000 C 
ATOM     12  N   UNL     1      48.450   3.617  20.034  0.00  0.00    +0.000 NA
ATOM     13  C   UNL     1      48.619   5.084  20.101  0.00  0.00    +0.000 C 
ATOM     14  C   UNL     1      49.910   5.602  19.420  0.00  0.00    +0.000 C 
ATOM     15  H   UNL     1      49.237   3.191  20.525  0.00  0.00    +0.000 HD
ENDBRANCH   6   9
BRANCH   1  16
ATOM     16  C   UNL     1      48.283   7.397  13.961  0.00  0.00    +0.000 C 
BRANCH  16  17
ATOM     17  O   UNL     1      48.249   6.382  12.957  0.00  0.00    +0.000 OA
BRANCH  17  22
ATOM     18  C   UNL     1      44.851   5.355  11.903  0.00  0.00    +0.000 A 
ATOM     19  C   UNL     1      44.769   4.219  12.697  0.00  0.00    +0.000 A 
ATOM     20  N   UNL     1      45.771   3.796  13.501  0.00  0.00    +0.000 NA
ATOM     21  C   UNL     1      46.891   4.560  13.527  0.00  0.00    +0.000 A 
ATOM     22  C   UNL     1      47.063   5.728  12.787  0.00  0.00    +0.000 A 
ATOM     23  C   UNL     1      46.018   6.124  11.957  0.00  0.00    +0.000 A 
BRANCH  18  25
ATOM     24  N   UNL     1      43.195   6.997  11.235  0.00  0.00    +0.000 N 
ATOM     25  C   UNL     1      43.698   5.735  11.067  0.00  0.00    +0.000 C 
ATOM     26  O   UNL     1      43.224   4.966  10.243  0.00  0.00    +0.000 OA
ATOM     27  H   UNL     1      42.462   7.274  10.594  0.00  0.00    +0.000 HD
ATOM     28  H   UNL     1      43.712   7.732  11.694  0.00  0.00    +0.000 HD
ENDBRANCH  18  25
ENDBRANCH  17  22
ENDBRANCH  16  17
ENDBRANCH   1  16
TORSDOF 5
ENDMDL
