MODEL 1
REMARK VINA RESULT:    -8.283      0.000      0.000
REMARK INTER + INTRA:         -13.094
REMARK INTER:                 -11.914
REMARK INTRA:                  -1.179
REMARK UNBOUND:                -1.179
REMARK  Name = 
REMARK  9 active torsions:
REMARK  status: ('A' for Active; 'I' for Inactive)
REMARK    1  A    between atoms: C_1  and  N_2
REMARK    2  A    between atoms: C_4  and  C_5
REMARK    3  A    between atoms: N_7  and  C_8
REMARK    4  A    between atoms: C_8  and  C_9
REMARK    5  A    between atoms: C_12  and  C_13
REMARK    6  A    between atoms: C_13  and  C_14
REMARK    7  A    between atoms: C_14  and  O_15
REMARK    8  A    between atoms: O_15  and  C_16
REMARK    9  A    between atoms: C_25  and  O_26
REMARK                            x       y       z     vdW  Elec       q    Type
REMARK                         _______ _______ _______ _____ _____    ______ ____
ROOT
ATOM      1  C   UNL     1      48.496   6.820  14.489  0.00  0.00    +0.000 C 
ATOM      2  O   UNL     1      49.166   6.518  13.505  0.00  0.00    +0.000 OA
ATOM      3  N   UNL     1      47.391   7.629  14.416  0.00  0.00    +0.000 N 
ATOM      4  H   UNL     1      46.865   7.860  15.245  0.00  0.00    +0.000 HD
ENDROOT
BRANCH   1   8
ATOM      5  C   UNL     1      50.614   6.279  18.994  0.00  0.00    +0.000 C 
ATOM      6  N   UNL     1      49.780   6.070  17.833  0.00  0.00    +0.000 N 
ATOM      7  C   UNL     1      49.783   6.845  16.699  0.00  0.00    +0.000 A 
ATOM      8  C   UNL     1      48.844   6.326  15.816  0.00  0.00    +0.000 A 
ATOM      9  C   UNL     1      48.261   5.183  16.462  0.00  0.00    +0.000 A 
ATOM     10  C   UNL     1      47.291   4.218  16.170  0.00  0.00    +0.000 A 
ATOM     11  N   UNL     1      46.995   3.257  17.062  0.00  0.00    +0.000 NA
ATOM     12  C   UNL     1      47.660   3.264  18.228  0.00  0.00    +0.000 A 
ATOM     13  N   UNL     1      48.610   4.124  18.635  0.00  0.00    +0.000 NA
ATOM     14  C   UNL     1      48.867   5.062  17.707  0.00  0.00    +0.000 A 
BRANCH  10  15
ATOM     15  O   UNL     1      46.581   4.164  14.996  0.00  0.00    +0.000 OA
ATOM     16  H   UNL     1      45.629   4.168  15.223  0.00  0.00    +0.000 HD
ENDBRANCH  10  15
ENDBRANCH   1   8
BRANCH   3  17
ATOM     17  C   UNL     1      46.958   8.169  13.152  0.00  0.00    +0.000 C 
BRANCH  17  18
ATOM     18  C   UNL     1      46.154   7.163  12.380  0.00  0.00    +0.000 A 
ATOM     19  C   UNL     1      44.976   6.645  12.927  0.00  0.00    +0.000 A 
ATOM     20  C   UNL     1      44.219   5.710  12.221  0.00  0.00    +0.000 A 
ATOM     21  C   UNL     1      44.623   5.260  10.955  0.00  0.00    +0.000 A 
ATOM     22  C   UNL     1      45.814   5.769  10.420  0.00  0.00    +0.000 A 
ATOM     23  C   UNL     1      46.575   6.705  11.126  0.00  0.00    +0.000 A 
BRANCH  21  24
ATOM     24  C   UNL     1      43.833   4.257  10.140  0.00  0.00    +0.000 C 
BRANCH  24  25
ATOM     25  C   UNL     1      44.382   2.833  10.179  0.00  0.00    +0.000 C 
BRANCH  25  26
ATOM     26  O   UNL     1      44.280   2.220   8.894  0.00  0.00    +0.000 OA
BRANCH  26  27
ATOM     27  C   UNL     1      45.411   2.348   8.126  0.00  0.00    +0.000 A 
ATOM     28  C   UNL     1      45.788   3.510   7.442  0.00  0.00    +0.000 A 
ATOM     29  C   UNL     1      46.964   3.539   6.696  0.00  0.00    +0.000 A 
ATOM     30  C   UNL     1      47.776   2.410   6.633  0.00  0.00    +0.000 A 
ATOM     31  C   UNL     1      47.414   1.254   7.321  0.00  0.00    +0.000 A 
ATOM     32  C   UNL     1      46.237   1.226   8.072  0.00  0.00    +0.000 A 
ENDBRANCH  26  27
ENDBRANCH  25  26
ENDBRANCH  24  25
ENDBRANCH  21  24
ENDBRANCH  17  18
ENDBRANCH   3  17
TORSDOF 8
ENDMDL
MODEL 2
REMARK VINA RESULT:    -7.857      1.639      2.011
REMARK INTER + INTRA:         -12.481
REMARK INTER:                 -11.290
REMARK INTRA:                  -1.191
REMARK UNBOUND:                -1.179
REMARK  Name = 
REMARK  9 active torsions:
REMARK  status: ('A' for Active; 'I' for Inactive)
REMARK    1  A    between atoms: C_1  and  N_2
REMARK    2  A    between atoms: C_4  and  C_5
REMARK    3  A    between atoms: N_7  and  C_8
REMARK    4  A    between atoms: C_8  and  C_9
REMARK    5  A    between atoms: C_12  and  C_13
REMARK    6  A    between atoms: C_13  and  C_14
REMARK    7  A    between atoms: C_14  and  O_15
REMARK    8  A    between atoms: O_15  and  C_16
REMARK    9  A    between atoms: C_25  and  O_26
REMARK                            x       y       z     vdW  Elec       q    Type
REMARK                         _______ _______ _______ _____ _____    ______ ____
ROOT
ATOM      1  C   UNL     1      48.884   7.020  15.508  0.00  0.00    +0.000 C 
ATOM      2  O   UNL     1      49.929   6.575  15.041  0.00  0.00    +0.000 OA
ATOM      3  N   UNL     1      47.836   7.431  14.724  0.00  0.00    +0.000 N 
ATOM      4  H   UNL     1      46.992   7.794  15.141  0.00  0.00    +0.000 HD
ENDROOT
BRANCH   1   8
ATOM      5  C   UNL     1      48.026   8.846  20.091  0.00  0.00    +0.000 C 
ATOM      6  N   UNL     1      48.311   7.938  19.004  0.00  0.00    +0.000 N 
ATOM      7  C   UNL     1      48.414   8.286  17.680  0.00  0.00    +0.000 A 
ATOM      8  C   UNL     1      48.693   7.138  16.949  0.00  0.00    +0.000 A 
ATOM      9  C   UNL     1      48.764   6.058  17.893  0.00  0.00    +0.000 A 
ATOM     10  C   UNL     1      49.003   4.680  17.866  0.00  0.00    +0.000 A 
ATOM     11  N   UNL     1      48.985   3.962  19.002  0.00  0.00    +0.000 NA
ATOM     12  C   UNL     1      48.734   4.615  20.147  0.00  0.00    +0.000 A 
ATOM     13  N   UNL     1      48.492   5.926  20.317  0.00  0.00    +0.000 NA
ATOM     14  C   UNL     1      48.521   6.596  19.152  0.00  0.00    +0.000 A 
BRANCH  10  15
ATOM     15  O   UNL     1      49.264   3.961  16.725  0.00  0.00    +0.000 OA
ATOM     16  H   UNL     1      48.586   3.260  16.653  0.00  0.00    +0.000 HD
ENDBRANCH  10  15
ENDBRANCH   1   8
BRANCH   3  17
ATOM     17  C   UNL     1      47.918   7.354  13.288  0.00  0.00    +0.000 C 
BRANCH  17  18
ATOM     18  C   UNL     1      46.947   6.347  12.742  0.00  0.00    +0.000 A 
ATOM     19  C   UNL     1      46.721   5.152  13.432  0.00  0.00    +0.000 A 
ATOM     20  C   UNL     1      45.822   4.208  12.936  0.00  0.00    +0.000 A 
ATOM     21  C   UNL     1      45.133   4.427  11.734  0.00  0.00    +0.000 A 
ATOM     22  C   UNL     1      45.378   5.619  11.038  0.00  0.00    +0.000 A 
ATOM     23  C   UNL     1      46.278   6.566  11.532  0.00  0.00    +0.000 A 
BRANCH  21  24
ATOM     24  C   UNL     1      44.136   3.442  11.157  0.00  0.00    +0.000 C 
BRANCH  24  25
ATOM     25  C   UNL     1      44.278   3.201   9.656  0.00  0.00    +0.000 C 
BRANCH  25  26
ATOM     26  O   UNL     1      45.013   2.004   9.408  0.00  0.00    +0.000 OA
BRANCH  26  27
ATOM     27  C   UNL     1      45.852   2.081   8.324  0.00  0.00    +0.000 A 
ATOM     28  C   UNL     1      46.633   1.026   7.838  0.00  0.00    +0.000 A 
ATOM     29  C   UNL     1      47.447   1.207   6.721  0.00  0.00    +0.000 A 
ATOM     30  C   UNL     1      47.481   2.440   6.078  0.00  0.00    +0.000 A 
ATOM     31  C   UNL     1      46.697   3.492   6.548  0.00  0.00    +0.000 A 
ATOM     32  C   UNL     1      45.878   3.310   7.665  0.00  0.00    +0.000 A 
ENDBRANCH  26  27
ENDBRANCH  25  26
ENDBRANCH  24  25
ENDBRANCH  21  24
ENDBRANCH  17  18
ENDBRANCH   3  17
TORSDOF 8
ENDMDL
MODEL 3
REMARK VINA RESULT:    -7.574      1.818      3.066
REMARK INTER + INTRA:         -12.074
REMARK INTER:                 -11.109
REMARK INTRA:                  -0.965
REMARK UNBOUND:                -1.179
REMARK  Name = 
REMARK  9 active torsions:
REMARK  status: ('A' for Active; 'I' for Inactive)
REMARK    1  A    between atoms: C_1  and  N_2
REMARK    2  A    between atoms: C_4  and  C_5
REMARK    3  A    between atoms: N_7  and  C_8
REMARK    4  A    between atoms: C_8  and  C_9
REMARK    5  A    between atoms: C_12  and  C_13
REMARK    6  A    between atoms: C_13  and  C_14
REMARK    7  A    between atoms: C_14  and  O_15
REMARK    8  A    between atoms: O_15  and  C_16
REMARK    9  A    between atoms: C_25  and  O_26
REMARK                            x       y       z     vdW  Elec       q    Type
REMARK                         _______ _______ _______ _____ _____    ______ ____
ROOT
ATOM      1  C   UNL     1      46.332   4.641  14.053  0.00  0.00    +0.000 C 
ATOM      2  O   UNL     1      46.409   3.427  13.881  0.00  0.00    +0.000 OA
ATOM      3  N   UNL     1      45.257   5.383  13.635  0.00  0.00    +0.000 N 
ATOM      4  H   UNL     1      45.227   6.380  13.790  0.00  0.00    +0.000 HD
ENDROOT
BRANCH   1   8
ATOM      5  C   UNL     1      50.015   7.880  15.062  0.00  0.00    +0.000 C 
ATOM      6  N   UNL     1      49.046   6.816  15.191  0.00  0.00    +0.000 N 
ATOM      7  C   UNL     1      48.161   6.421  14.219  0.00  0.00    +0.000 A 
ATOM      8  C   UNL     1      47.398   5.375  14.724  0.00  0.00    +0.000 A 
ATOM      9  C   UNL     1      47.862   5.139  16.063  0.00  0.00    +0.000 A 
ATOM     10  C   UNL     1      47.563   4.271  17.118  0.00  0.00    +0.000 A 
ATOM     11  N   UNL     1      48.237   4.351  18.279  0.00  0.00    +0.000 NA
ATOM     12  C   UNL     1      49.195   5.285  18.379  0.00  0.00    +0.000 A 
ATOM     13  N   UNL     1      49.585   6.175  17.450  0.00  0.00    +0.000 NA
ATOM     14  C   UNL     1      48.880   6.052  16.312  0.00  0.00    +0.000 A 
BRANCH  10  15
ATOM     15  O   UNL     1      46.594   3.299  17.072  0.00  0.00    +0.000 OA
ATOM     16  H   UNL     1      46.189   3.239  17.960  0.00  0.00    +0.000 HD
ENDBRANCH  10  15
ENDBRANCH   1   8
BRANCH   3  17
ATOM     17  C   UNL     1      44.147   4.756  12.965  0.00  0.00    +0.000 C 
BRANCH  17  18
ATOM     18  C   UNL     1      44.489   4.425  11.541  0.00  0.00    +0.000 A 
ATOM     19  C   UNL     1      44.108   3.193  11.003  0.00  0.00    +0.000 A 
ATOM     20  C   UNL     1      44.419   2.871   9.681  0.00  0.00    +0.000 A 
ATOM     21  C   UNL     1      45.129   3.766   8.867  0.00  0.00    +0.000 A 
ATOM     22  C   UNL     1      45.525   4.993   9.419  0.00  0.00    +0.000 A 
ATOM     23  C   UNL     1      45.214   5.317  10.742  0.00  0.00    +0.000 A 
BRANCH  21  24
ATOM     24  C   UNL     1      45.482   3.475   7.422  0.00  0.00    +0.000 C 
BRANCH  24  25
ATOM     25  C   UNL     1      46.915   3.828   7.035  0.00  0.00    +0.000 C 
BRANCH  25  26
ATOM     26  O   UNL     1      47.727   2.654   6.991  0.00  0.00    +0.000 OA
BRANCH  26  27
ATOM     27  C   UNL     1      47.397   1.788   5.978  0.00  0.00    +0.000 A 
ATOM     28  C   UNL     1      47.181   2.159   4.646  0.00  0.00    +0.000 A 
ATOM     29  C   UNL     1      46.860   1.198   3.689  0.00  0.00    +0.000 A 
ATOM     30  C   UNL     1      46.761  -0.142   4.055  0.00  0.00    +0.000 A 
ATOM     31  C   UNL     1      46.988  -0.520   5.377  0.00  0.00    +0.000 A 
ATOM     32  C   UNL     1      47.313   0.443   6.335  0.00  0.00    +0.000 A 
ENDBRANCH  26  27
ENDBRANCH  25  26
ENDBRANCH  24  25
ENDBRANCH  21  24
ENDBRANCH  17  18
ENDBRANCH   3  17
TORSDOF 8
ENDMDL
MODEL 4
REMARK VINA RESULT:    -7.515      2.339      3.251
REMARK INTER + INTRA:         -11.989
REMARK INTER:                 -10.735
REMARK INTRA:                  -1.254
REMARK UNBOUND:                -1.179
REMARK  Name = 
REMARK  9 active torsions:
REMARK  status: ('A' for Active; 'I' for Inactive)
REMARK    1  A    between atoms: C_1  and  N_2
REMARK    2  A    between atoms: C_4  and  C_5
REMARK    3  A    between atoms: N_7  and  C_8
REMARK    4  A    between atoms: C_8  and  C_9
REMARK    5  A    between atoms: C_12  and  C_13
REMARK    6  A    between atoms: C_13  and  C_14
REMARK    7  A    between atoms: C_14  and  O_15
REMARK    8  A    between atoms: O_15  and  C_16
REMARK    9  A    between atoms: C_25  and  O_26
REMARK                            x       y       z     vdW  Elec       q    Type
REMARK                         _______ _______ _______ _____ _____    ______ ____
ROOT
ATOM      1  C   UNL     1      49.015   7.010  15.891  0.00  0.00    +0.000 C 
ATOM      2  O   UNL     1      50.076   6.549  15.478  0.00  0.00    +0.000 OA
ATOM      3  N   UNL     1      47.999   7.400  15.056  0.00  0.00    +0.000 N 
ATOM      4  H   UNL     1      47.141   7.777  15.429  0.00  0.00    +0.000 HD
ENDROOT
BRANCH   1   8
ATOM      5  C   UNL     1      48.636   6.159  20.811  0.00  0.00    +0.000 C 
ATOM      6  N   UNL     1      48.596   6.809  19.521  0.00  0.00    +0.000 N 
ATOM      7  C   UNL     1      48.939   6.228  18.325  0.00  0.00    +0.000 A 
ATOM      8  C   UNL     1      48.771   7.172  17.319  0.00  0.00    +0.000 A 
ATOM      9  C   UNL     1      48.298   8.370  17.956  0.00  0.00    +0.000 A 
ATOM     10  C   UNL     1      47.930   9.664  17.573  0.00  0.00    +0.000 A 
ATOM     11  N   UNL     1      47.523  10.557  18.490  0.00  0.00    +0.000 NA
ATOM     12  C   UNL     1      47.485  10.160  19.772  0.00  0.00    +0.000 A 
ATOM     13  N   UNL     1      47.806   8.955  20.276  0.00  0.00    +0.000 NA
ATOM     14  C   UNL     1      48.206   8.102  19.317  0.00  0.00    +0.000 A 
BRANCH  10  15
ATOM     15  O   UNL     1      47.951  10.124  16.279  0.00  0.00    +0.000 OA
ATOM     16  H   UNL     1      48.799  10.592  16.142  0.00  0.00    +0.000 HD
ENDBRANCH  10  15
ENDBRANCH   1   8
BRANCH   3  17
ATOM     17  C   UNL     1      48.135   7.279  13.627  0.00  0.00    +0.000 C 
BRANCH  17  18
ATOM     18  C   UNL     1      47.196   6.244  13.078  0.00  0.00    +0.000 A 
ATOM     19  C   UNL     1      46.554   6.466  11.856  0.00  0.00    +0.000 A 
ATOM     20  C   UNL     1      45.679   5.512  11.334  0.00  0.00    +0.000 A 
ATOM     21  C   UNL     1      45.414   4.319  12.022  0.00  0.00    +0.000 A 
ATOM     22  C   UNL     1      46.047   4.112  13.255  0.00  0.00    +0.000 A 
ATOM     23  C   UNL     1      46.924   5.065  13.781  0.00  0.00    +0.000 A 
BRANCH  21  24
ATOM     24  C   UNL     1      44.484   3.245  11.495  0.00  0.00    +0.000 C 
BRANCH  24  25
ATOM     25  C   UNL     1      44.005   3.467  10.063  0.00  0.00    +0.000 C 
BRANCH  25  26
ATOM     26  O   UNL     1      44.219   2.295   9.276  0.00  0.00    +0.000 OA
BRANCH  26  27
ATOM     27  C   UNL     1      45.337   2.355   8.482  0.00  0.00    +0.000 A 
ATOM     28  C   UNL     1      46.131   1.256   8.132  0.00  0.00    +0.000 A 
ATOM     29  C   UNL     1      47.244   1.423   7.310  0.00  0.00    +0.000 A 
ATOM     30  C   UNL     1      47.567   2.687   6.825  0.00  0.00    +0.000 A 
ATOM     31  C   UNL     1      46.774   3.783   7.158  0.00  0.00    +0.000 A 
ATOM     32  C   UNL     1      45.657   3.615   7.979  0.00  0.00    +0.000 A 
ENDBRANCH  26  27
ENDBRANCH  25  26
ENDBRANCH  24  25
ENDBRANCH  21  24
ENDBRANCH  17  18
ENDBRANCH   3  17
TORSDOF 8
ENDMDL
MODEL 5
REMARK VINA RESULT:    -7.481      2.249      3.008
REMARK INTER + INTRA:         -11.940
REMARK INTER:                 -10.803
REMARK INTRA:                  -1.137
REMARK UNBOUND:                -1.179
REMARK  Name = 
REMARK  9 active torsions:
REMARK  status: ('A' for Active; 'I' for Inactive)
REMARK    1  A    between atoms: C_1  and  N_2
REMARK    2  A    between atoms: C_4  and  C_5
REMARK    3  A    between atoms: N_7  and  C_8
REMARK    4  A    between atoms: C_8  and  C_9
REMARK    5  A    between atoms: C_12  and  C_13
REMARK    6  A    between atoms: C_13  and  C_14
REMARK    7  A    between atoms: C_14  and  O_15
REMARK    8  A    between atoms: O_15  and  C_16
REMARK    9  A    between atoms: C_25  and  O_26
REMARK                            x       y       z     vdW  Elec       q    Type
REMARK                         _______ _______ _______ _____ _____    ______ ____
ROOT
ATOM      1  C   UNL     1      48.531   5.056  16.643  0.00  0.00    +0.000 C 
ATOM      2  O   UNL     1      49.354   4.155  16.781  0.00  0.00    +0.000 OA
ATOM      3  N   UNL     1      47.507   4.994  15.733  0.00  0.00    +0.000 N 
ATOM      4  H   UNL     1      46.850   5.754  15.644  0.00  0.00    +0.000 HD
ENDROOT
BRANCH   1   8
ATOM      5  C   UNL     1      48.966   9.828  18.096  0.00  0.00    +0.000 C 
ATOM      6  N   UNL     1      48.790   8.394  18.120  0.00  0.00    +0.000 N 
ATOM      7  C   UNL     1      48.805   7.571  17.022  0.00  0.00    +0.000 A 
ATOM      8  C   UNL     1      48.598   6.266  17.453  0.00  0.00    +0.000 A 
ATOM      9  C   UNL     1      48.459   6.325  18.882  0.00  0.00    +0.000 A 
ATOM     10  C   UNL     1      48.242   5.428  19.933  0.00  0.00    +0.000 A 
ATOM     11  N   UNL     1      48.162   5.869  21.201  0.00  0.00    +0.000 NA
ATOM     12  C   UNL     1      48.299   7.187  21.411  0.00  0.00    +0.000 A 
ATOM     13  N   UNL     1      48.512   8.154  20.501  0.00  0.00    +0.000 NA
ATOM     14  C   UNL     1      48.583   7.659  19.252  0.00  0.00    +0.000 A 
BRANCH  10  15
ATOM     15  O   UNL     1      48.095   4.071  19.777  0.00  0.00    +0.000 OA
ATOM     16  H   UNL     1      48.317   3.853  18.850  0.00  0.00    +0.000 HD
ENDBRANCH  10  15
ENDBRANCH   1   8
BRANCH   3  17
ATOM     17  C   UNL     1      47.347   3.841  14.884  0.00  0.00    +0.000 C 
BRANCH  17  18
ATOM     18  C   UNL     1      46.562   4.180  13.650  0.00  0.00    +0.000 A 
ATOM     19  C   UNL     1      45.907   3.168  12.943  0.00  0.00    +0.000 A 
ATOM     20  C   UNL     1      45.174   3.468  11.794  0.00  0.00    +0.000 A 
ATOM     21  C   UNL     1      45.085   4.784  11.316  0.00  0.00    +0.000 A 
ATOM     22  C   UNL     1      45.760   5.791  12.019  0.00  0.00    +0.000 A 
ATOM     23  C   UNL     1      46.495   5.493  13.170  0.00  0.00    +0.000 A 
BRANCH  21  24
ATOM     24  C   UNL     1      44.293   5.168  10.082  0.00  0.00    +0.000 C 
BRANCH  24  25
ATOM     25  C   UNL     1      44.339   4.142   8.954  0.00  0.00    +0.000 C 
BRANCH  25  26
ATOM     26  O   UNL     1      45.385   4.453   8.034  0.00  0.00    +0.000 OA
BRANCH  26  27
ATOM     27  C   UNL     1      46.036   3.351   7.538  0.00  0.00    +0.000 A 
ATOM     28  C   UNL     1      46.815   3.336   6.376  0.00  0.00    +0.000 A 
ATOM     29  C   UNL     1      47.443   2.162   5.963  0.00  0.00    +0.000 A 
ATOM     30  C   UNL     1      47.305   0.998   6.713  0.00  0.00    +0.000 A 
ATOM     31  C   UNL     1      46.542   1.009   7.878  0.00  0.00    +0.000 A 
ATOM     32  C   UNL     1      45.915   2.185   8.294  0.00  0.00    +0.000 A 
ENDBRANCH  26  27
ENDBRANCH  25  26
ENDBRANCH  24  25
ENDBRANCH  21  24
ENDBRANCH  17  18
ENDBRANCH   3  17
TORSDOF 8
ENDMDL
MODEL 6
REMARK VINA RESULT:    -7.351      2.194      2.847
REMARK INTER + INTRA:         -11.753
REMARK INTER:                 -10.367
REMARK INTRA:                  -1.387
REMARK UNBOUND:                -1.179
REMARK  Name = 
REMARK  9 active torsions:
REMARK  status: ('A' for Active; 'I' for Inactive)
REMARK    1  A    between atoms: C_1  and  N_2
REMARK    2  A    between atoms: C_4  and  C_5
REMARK    3  A    between atoms: N_7  and  C_8
REMARK    4  A    between atoms: C_8  and  C_9
REMARK    5  A    between atoms: C_12  and  C_13
REMARK    6  A    between atoms: C_13  and  C_14
REMARK    7  A    between atoms: C_14  and  O_15
REMARK    8  A    between atoms: O_15  and  C_16
REMARK    9  A    between atoms: C_25  and  O_26
REMARK                            x       y       z     vdW  Elec       q    Type
REMARK                         _______ _______ _______ _____ _____    ______ ____
ROOT
ATOM      1  C   UNL     1      49.050   6.668  16.327  0.00  0.00    +0.000 C 
ATOM      2  O   UNL     1      49.424   5.500  16.265  0.00  0.00    +0.000 OA
ATOM      3  N   UNL     1      48.610   7.366  15.232  0.00  0.00    +0.000 N 
ATOM      4  H   UNL     1      48.313   8.326  15.319  0.00  0.00    +0.000 HD
ENDROOT
BRANCH   1   8
ATOM      5  C   UNL     1      49.918  10.075  19.893  0.00  0.00    +0.000 C 
ATOM      6  N   UNL     1      49.431   8.906  19.197  0.00  0.00    +0.000 N 
ATOM      7  C   UNL     1      49.703   8.583  17.891  0.00  0.00    +0.000 A 
ATOM      8  C   UNL     1      49.054   7.392  17.592  0.00  0.00    +0.000 A 
ATOM      9  C   UNL     1      48.367   6.989  18.789  0.00  0.00    +0.000 A 
ATOM     10  C   UNL     1      47.550   5.930  19.200  0.00  0.00    +0.000 A 
ATOM     11  N   UNL     1      47.067   5.889  20.454  0.00  0.00    +0.000 NA
ATOM     12  C   UNL     1      47.398   6.892  21.282  0.00  0.00    +0.000 A 
ATOM     13  N   UNL     1      48.170   7.962  21.021  0.00  0.00    +0.000 NA
ATOM     14  C   UNL     1      48.626   7.953  19.755  0.00  0.00    +0.000 A 
BRANCH  10  15
ATOM     15  O   UNL     1      47.179   4.880  18.397  0.00  0.00    +0.000 OA
ATOM     16  H   UNL     1      47.571   5.028  17.513  0.00  0.00    +0.000 HD
ENDBRANCH  10  15
ENDBRANCH   1   8
BRANCH   3  17
ATOM     17  C   UNL     1      48.563   6.744  13.934  0.00  0.00    +0.000 C 
BRANCH  17  18
ATOM     18  C   UNL     1      47.169   6.300  13.595  0.00  0.00    +0.000 A 
ATOM     19  C   UNL     1      46.280   7.197  12.996  0.00  0.00    +0.000 A 
ATOM     20  C   UNL     1      44.981   6.798  12.675  0.00  0.00    +0.000 A 
ATOM     21  C   UNL     1      44.534   5.498  12.955  0.00  0.00    +0.000 A 
ATOM     22  C   UNL     1      45.425   4.610  13.573  0.00  0.00    +0.000 A 
ATOM     23  C   UNL     1      46.726   5.007  13.895  0.00  0.00    +0.000 A 
BRANCH  21  24
ATOM     24  C   UNL     1      43.141   5.009  12.616  0.00  0.00    +0.000 C 
BRANCH  24  25
ATOM     25  C   UNL     1      42.910   4.726  11.134  0.00  0.00    +0.000 C 
BRANCH  25  26
ATOM     26  O   UNL     1      43.306   3.394  10.810  0.00  0.00    +0.000 OA
BRANCH  26  27
ATOM     27  C   UNL     1      44.258   3.321   9.823  0.00  0.00    +0.000 A 
ATOM     28  C   UNL     1      44.820   4.424   9.170  0.00  0.00    +0.000 A 
ATOM     29  C   UNL     1      45.790   4.242   8.186  0.00  0.00    +0.000 A 
ATOM     30  C   UNL     1      46.211   2.958   7.853  0.00  0.00    +0.000 A 
ATOM     31  C   UNL     1      45.665   1.856   8.509  0.00  0.00    +0.000 A 
ATOM     32  C   UNL     1      44.696   2.038   9.497  0.00  0.00    +0.000 A 
ENDBRANCH  26  27
ENDBRANCH  25  26
ENDBRANCH  24  25
ENDBRANCH  21  24
ENDBRANCH  17  18
ENDBRANCH   3  17
TORSDOF 8
ENDMDL
MODEL 7
REMARK VINA RESULT:    -7.309      2.085      3.307
REMARK INTER + INTRA:         -11.692
REMARK INTER:                 -10.435
REMARK INTRA:                  -1.257
REMARK UNBOUND:                -1.179
REMARK  Name = 
REMARK  9 active torsions:
REMARK  status: ('A' for Active; 'I' for Inactive)
REMARK    1  A    between atoms: C_1  and  N_2
REMARK    2  A    between atoms: C_4  and  C_5
REMARK    3  A    between atoms: N_7  and  C_8
REMARK    4  A    between atoms: C_8  and  C_9
REMARK    5  A    between atoms: C_12  and  C_13
REMARK    6  A    between atoms: C_13  and  C_14
REMARK    7  A    between atoms: C_14  and  O_15
REMARK    8  A    between atoms: O_15  and  C_16
REMARK    9  A    between atoms: C_25  and  O_26
REMARK                            x       y       z     vdW  Elec       q    Type
REMARK                         _______ _______ _______ _____ _____    ______ ____
ROOT
ATOM      1  C   UNL     1      48.399   4.948  16.796  0.00  0.00    +0.000 C 
ATOM      2  O   UNL     1      49.250   4.073  16.940  0.00  0.00    +0.000 OA
ATOM      3  N   UNL     1      47.425   4.884  15.833  0.00  0.00    +0.000 N 
ATOM      4  H   UNL     1      46.743   5.621  15.740  0.00  0.00    +0.000 HD
ENDROOT
BRANCH   1   8
ATOM      5  C   UNL     1      48.080   7.960  20.783  0.00  0.00    +0.000 C 
ATOM      6  N   UNL     1      48.238   7.485  19.427  0.00  0.00    +0.000 N 
ATOM      7  C   UNL     1      48.174   6.173  19.029  0.00  0.00    +0.000 A 
ATOM      8  C   UNL     1      48.377   6.124  17.656  0.00  0.00    +0.000 A 
ATOM      9  C   UNL     1      48.566   7.481  17.221  0.00  0.00    +0.000 A 
ATOM     10  C   UNL     1      48.806   8.153  16.019  0.00  0.00    +0.000 A 
ATOM     11  N   UNL     1      48.935   9.491  15.999  0.00  0.00    +0.000 NA
ATOM     12  C   UNL     1      48.824  10.145  17.166  0.00  0.00    +0.000 A 
ATOM     13  N   UNL     1      48.593   9.628  18.386  0.00  0.00    +0.000 NA
ATOM     14  C   UNL     1      48.473   8.290  18.349  0.00  0.00    +0.000 A 
BRANCH  10  15
ATOM     15  O   UNL     1      48.929   7.537  14.798  0.00  0.00    +0.000 OA
ATOM     16  H   UNL     1      49.747   7.870  14.377  0.00  0.00    +0.000 HD
ENDBRANCH  10  15
ENDBRANCH   1   8
BRANCH   3  17
ATOM     17  C   UNL     1      47.354   3.762  14.932  0.00  0.00    +0.000 C 
BRANCH  17  18
ATOM     18  C   UNL     1      46.580   4.108  13.693  0.00  0.00    +0.000 A 
ATOM     19  C   UNL     1      45.891   3.108  13.001  0.00  0.00    +0.000 A 
ATOM     20  C   UNL     1      45.168   3.416  11.848  0.00  0.00    +0.000 A 
ATOM     21  C   UNL     1      45.124   4.726  11.349  0.00  0.00    +0.000 A 
ATOM     22  C   UNL     1      45.833   5.721  12.037  0.00  0.00    +0.000 A 
ATOM     23  C   UNL     1      46.558   5.415  13.193  0.00  0.00    +0.000 A 
BRANCH  21  24
ATOM     24  C   UNL     1      44.345   5.118  10.110  0.00  0.00    +0.000 C 
BRANCH  24  25
ATOM     25  C   UNL     1      44.406   4.101   8.974  0.00  0.00    +0.000 C 
BRANCH  25  26
ATOM     26  O   UNL     1      45.430   4.450   8.042  0.00  0.00    +0.000 OA
BRANCH  26  27
ATOM     27  C   UNL     1      46.069   3.369   7.488  0.00  0.00    +0.000 A 
ATOM     28  C   UNL     1      46.740   3.378   6.260  0.00  0.00    +0.000 A 
ATOM     29  C   UNL     1      47.367   2.225   5.790  0.00  0.00    +0.000 A 
ATOM     30  C   UNL     1      47.336   1.058   6.548  0.00  0.00    +0.000 A 
ATOM     31  C   UNL     1      46.681   1.045   7.778  0.00  0.00    +0.000 A 
ATOM     32  C   UNL     1      46.056   2.201   8.250  0.00  0.00    +0.000 A 
ENDBRANCH  26  27
ENDBRANCH  25  26
ENDBRANCH  24  25
ENDBRANCH  21  24
ENDBRANCH  17  18
ENDBRANCH   3  17
TORSDOF 8
ENDMDL
MODEL 8
REMARK VINA RESULT:    -7.206      2.953      8.043
REMARK INTER + INTRA:         -11.545
REMARK INTER:                 -10.096
REMARK INTRA:                  -1.449
REMARK UNBOUND:                -1.179
REMARK  Name = 
REMARK  9 active torsions:
REMARK  status: ('A' for Active; 'I' for Inactive)
REMARK    1  A    between atoms: C_1  and  N_2
REMARK    2  A    between atoms: C_4  and  C_5
REMARK    3  A    between atoms: N_7  and  C_8
REMARK    4  A    between atoms: C_8  and  C_9
REMARK    5  A    between atoms: C_12  and  C_13
REMARK    6  A    between atoms: C_13  and  C_14
REMARK    7  A    between atoms: C_14  and  O_15
REMARK    8  A    between atoms: O_15  and  C_16
REMARK    9  A    between atoms: C_25  and  O_26
REMARK                            x       y       z     vdW  Elec       q    Type
REMARK                         _______ _______ _______ _____ _____    ______ ____
ROOT
ATOM      1  C   UNL     1      46.302   6.974  11.395  0.00  0.00    +0.000 C 
ATOM      2  O   UNL     1      45.601   7.864  11.870  0.00  0.00    +0.000 OA
ATOM      3  N   UNL     1      47.672   7.010  11.427  0.00  0.00    +0.000 N 
ATOM      4  H   UNL     1      48.217   6.263  11.025  0.00  0.00    +0.000 HD
ENDROOT
BRANCH   1   8
ATOM      5  C   UNL     1      44.928   3.539   8.020  0.00  0.00    +0.000 C 
ATOM      6  N   UNL     1      45.082   4.263   9.261  0.00  0.00    +0.000 N 
ATOM      7  C   UNL     1      45.791   5.427   9.423  0.00  0.00    +0.000 A 
ATOM      8  C   UNL     1      45.705   5.807  10.757  0.00  0.00    +0.000 A 
ATOM      9  C   UNL     1      44.898   4.816  11.414  0.00  0.00    +0.000 A 
ATOM     10  C   UNL     1      44.415   4.571  12.704  0.00  0.00    +0.000 A 
ATOM     11  N   UNL     1      43.657   3.489  12.954  0.00  0.00    +0.000 NA
ATOM     12  C   UNL     1      43.387   2.667  11.928  0.00  0.00    +0.000 A 
ATOM     13  N   UNL     1      43.782   2.782  10.648  0.00  0.00    +0.000 NA
ATOM     14  C   UNL     1      44.536   3.879  10.453  0.00  0.00    +0.000 A 
BRANCH  10  15
ATOM     15  O   UNL     1      44.660   5.376  13.789  0.00  0.00    +0.000 OA
ATOM     16  H   UNL     1      45.162   4.849  14.443  0.00  0.00    +0.000 HD
ENDBRANCH  10  15
ENDBRANCH   1   8
BRANCH   3  17
ATOM     17  C   UNL     1      48.364   8.117  12.037  0.00  0.00    +0.000 C 
BRANCH  17  18
ATOM     18  C   UNL     1      48.989   7.714  13.342  0.00  0.00    +0.000 A 
ATOM     19  C   UNL     1      48.259   6.947  14.255  0.00  0.00    +0.000 A 
ATOM     20  C   UNL     1      48.828   6.566  15.472  0.00  0.00    +0.000 A 
ATOM     21  C   UNL     1      50.133   6.949  15.812  0.00  0.00    +0.000 A 
ATOM     22  C   UNL     1      50.852   7.734  14.900  0.00  0.00    +0.000 A 
ATOM     23  C   UNL     1      50.285   8.117  13.681  0.00  0.00    +0.000 A 
BRANCH  21  24
ATOM     24  C   UNL     1      50.803   6.552  17.112  0.00  0.00    +0.000 C 
BRANCH  24  25
ATOM     25  C   UNL     1      49.878   6.545  18.326  0.00  0.00    +0.000 C 
BRANCH  25  26
ATOM     26  O   UNL     1      49.955   5.293  19.008  0.00  0.00    +0.000 OA
BRANCH  26  27
ATOM     27  C   UNL     1      49.681   4.209  18.211  0.00  0.00    +0.000 A 
ATOM     28  C   UNL     1      50.637   3.306  17.731  0.00  0.00    +0.000 A 
ATOM     29  C   UNL     1      50.252   2.229  16.934  0.00  0.00    +0.000 A 
ATOM     30  C   UNL     1      48.909   2.041  16.620  0.00  0.00    +0.000 A 
ATOM     31  C   UNL     1      47.951   2.929  17.105  0.00  0.00    +0.000 A 
ATOM     32  C   UNL     1      48.336   4.006  17.906  0.00  0.00    +0.000 A 
ENDBRANCH  26  27
ENDBRANCH  25  26
ENDBRANCH  24  25
ENDBRANCH  21  24
ENDBRANCH  17  18
ENDBRANCH   3  17
TORSDOF 8
ENDMDL
MODEL 9
REMARK VINA RESULT:    -6.899      3.513      6.229
REMARK INTER + INTRA:         -11.102
REMARK INTER:                  -9.773
REMARK INTRA:                  -1.329
REMARK UNBOUND:                -1.179
REMARK  Name = 
REMARK  9 active torsions:
REMARK  status: ('A' for Active; 'I' for Inactive)
REMARK    1  A    between atoms: C_1  and  N_2
REMARK    2  A    between atoms: C_4  and  C_5
REMARK    3  A    between atoms: N_7  and  C_8
REMARK    4  A    between atoms: C_8  and  C_9
REMARK    5  A    between atoms: C_12  and  C_13
REMARK    6  A    between atoms: C_13  and  C_14
REMARK    7  A    between atoms: C_14  and  O_15
REMARK    8  A    between atoms: O_15  and  C_16
REMARK    9  A    between atoms: C_25  and  O_26
REMARK                            x       y       z     vdW  Elec       q    Type
REMARK                         _______ _______ _______ _____ _____    ______ ____
ROOT
ATOM      1  C   UNL     1      48.493   9.252  12.757  0.00  0.00    +0.000 C 
ATOM      2  O   UNL     1      48.076   9.525  13.880  0.00  0.00    +0.000 OA
ATOM      3  N   UNL     1      48.884   7.988  12.397  0.00  0.00    +0.000 N 
ATOM      4  H   UNL     1      49.224   7.799  11.466  0.00  0.00    +0.000 HD
ENDROOT
BRANCH   1   8
ATOM      5  C   UNL     1      50.263  12.317   9.215  0.00  0.00    +0.000 C 
ATOM      6  N   UNL     1      49.373  11.653  10.139  0.00  0.00    +0.000 N 
ATOM      7  C   UNL     1      49.729  10.656  11.013  0.00  0.00    +0.000 A 
ATOM      8  C   UNL     1      48.598  10.276  11.724  0.00  0.00    +0.000 A 
ATOM      9  C   UNL     1      47.519  11.096  11.247  0.00  0.00    +0.000 A 
ATOM     10  C   UNL     1      46.154  11.255  11.505  0.00  0.00    +0.000 A 
ATOM     11  N   UNL     1      45.432  12.163  10.827  0.00  0.00    +0.000 NA
ATOM     12  C   UNL     1      46.069  12.902   9.905  0.00  0.00    +0.000 A 
ATOM     13  N   UNL     1      47.368  12.856   9.559  0.00  0.00    +0.000 NA
ATOM     14  C   UNL     1      48.042  11.932  10.266  0.00  0.00    +0.000 A 
BRANCH  10  15
ATOM     15  O   UNL     1      45.451  10.527  12.434  0.00  0.00    +0.000 OA
ATOM     16  H   UNL     1      46.036  10.386  13.206  0.00  0.00    +0.000 HD
ENDBRANCH  10  15
ENDBRANCH   1   8
BRANCH   3  17
ATOM     17  C   UNL     1      48.817   6.901  13.340  0.00  0.00    +0.000 C 
BRANCH  17  18
ATOM     18  C   UNL     1      47.503   6.180  13.246  0.00  0.00    +0.000 A 
ATOM     19  C   UNL     1      47.275   5.045  14.029  0.00  0.00    +0.000 A 
ATOM     20  C   UNL     1      46.059   4.365  13.951  0.00  0.00    +0.000 A 
ATOM     21  C   UNL     1      45.044   4.793  13.082  0.00  0.00    +0.000 A 
ATOM     22  C   UNL     1      45.287   5.922  12.287  0.00  0.00    +0.000 A 
ATOM     23  C   UNL     1      46.504   6.605  12.363  0.00  0.00    +0.000 A 
BRANCH  21  24
ATOM     24  C   UNL     1      43.701   4.101  12.968  0.00  0.00    +0.000 C 
BRANCH  24  25
ATOM     25  C   UNL     1      43.693   2.880  12.053  0.00  0.00    +0.000 C 
BRANCH  25  26
ATOM     26  O   UNL     1      43.241   3.235  10.746  0.00  0.00    +0.000 OA
BRANCH  26  27
ATOM     27  C   UNL     1      44.212   3.150   9.780  0.00  0.00    +0.000 A 
ATOM     28  C   UNL     1      44.700   1.955   9.237  0.00  0.00    +0.000 A 
ATOM     29  C   UNL     1      45.683   1.978   8.250  0.00  0.00    +0.000 A 
ATOM     30  C   UNL     1      46.180   3.194   7.791  0.00  0.00    +0.000 A 
ATOM     31  C   UNL     1      45.690   4.388   8.317  0.00  0.00    +0.000 A 
ATOM     32  C   UNL     1      44.703   4.365   9.304  0.00  0.00    +0.000 A 
ENDBRANCH  26  27
ENDBRANCH  25  26
ENDBRANCH  24  25
ENDBRANCH  21  24
ENDBRANCH  17  18
ENDBRANCH   3  17
TORSDOF 8
ENDMDL
