MODEL 1
REMARK VINA RESULT:    -7.515      0.000      0.000
REMARK INTER + INTRA:         -10.502
REMARK INTER:                  -9.932
REMARK INTRA:                  -0.570
REMARK UNBOUND:                -0.570
REMARK  Name = 
REMARK  6 active torsions:
REMARK  status: ('A' for Active; 'I' for Inactive)
REMARK    1  A    between atoms: N_1  and  C_2
REMARK    2  A    between atoms: C_2  and  C_3
REMARK    3  A    between atoms: C_7  and  C_8
REMARK    4  A    between atoms: C_8  and  C_9
REMARK    5  A    between atoms: C_9  and  N_10
REMARK    6  A    between atoms: C_14  and  C_15
REMARK                            x       y       z     vdW  Elec       q    Type
REMARK                         _______ _______ _______ _____ _____    ______ ____
ROOT
ATOM      1  N   UNL     1      43.862   3.636  10.204  0.00  0.00    +0.000 N 
ATOM      2  C   UNL     1      44.798   3.264   9.216  0.00  0.00    +0.000 A 
ATOM      3  C   UNL     1      45.170   1.929   9.099  0.00  0.00    +0.000 A 
ATOM      4  C   UNL     1      46.100   1.555   8.121  0.00  0.00    +0.000 A 
ATOM      5  C   UNL     1      46.644   2.524   7.276  0.00  0.00    +0.000 A 
ATOM      6  C   UNL     1      46.230   3.829   7.474  0.00  0.00    +0.000 A 
ATOM      7  N   UNL     1      45.336   4.209   8.418  0.00  0.00    +0.000 NA
ATOM      8  H   UNL     1      43.024   3.075  10.075  0.00  0.00    +0.000 HD
ENDROOT
BRANCH   5   9
ATOM      9  C   UNL     1      47.613   2.129   6.227  0.00  0.00    +0.000 C 
ATOM     10  N   UNL     1      48.842   2.728   6.192  0.00  0.00    +0.000 N 
ATOM     11  O   UNL     1      47.326   1.280   5.391  0.00  0.00    +0.000 OA
ATOM     12  H   UNL     1      49.179   3.439   6.824  0.00  0.00    +0.000 HD
ATOM     13  H   UNL     1      49.468   2.433   5.454  0.00  0.00    +0.000 HD
ENDBRANCH   5   9
BRANCH   1  14
ATOM     14  C   UNL     1      43.577   5.078  10.190  0.00  0.00    +0.000 C 
BRANCH  14  15
ATOM     15  C   UNL     1      43.549   5.660  11.607  0.00  0.00    +0.000 C 
BRANCH  15  20
ATOM     16  C   UNL     1      46.746   5.387  13.691  0.00  0.00    +0.000 A 
ATOM     17  C   UNL     1      47.615   6.198  12.949  0.00  0.00    +0.000 A 
ATOM     18  C   UNL     1      47.165   6.863  11.810  0.00  0.00    +0.000 A 
ATOM     19  C   UNL     1      45.844   6.714  11.386  0.00  0.00    +0.000 A 
ATOM     20  C   UNL     1      44.955   5.908  12.108  0.00  0.00    +0.000 A 
ATOM     21  C   UNL     1      45.414   5.256  13.265  0.00  0.00    +0.000 A 
BRANCH  16  22
ATOM     22  C   UNL     1      47.247   4.617  14.887  0.00  0.00    +0.000 C 
BRANCH  22  23
ATOM     23  N   UNL     1      47.434   3.202  14.591  0.00  0.00    +0.000 NA
ATOM     24  H   UNL     1      48.411   2.959  14.743  0.00  0.00    +0.000 HD
ATOM     25  H   UNL     1      47.249   3.050  13.601  0.00  0.00    +0.000 HD
ENDBRANCH  22  23
ENDBRANCH  16  22
ENDBRANCH  15  20
ENDBRANCH  14  15
ENDBRANCH   1  14
TORSDOF 6
ENDMDL
MODEL 2
REMARK VINA RESULT:    -7.459      1.710      2.318
REMARK INTER + INTRA:         -10.428
REMARK INTER:                  -9.951
REMARK INTRA:                  -0.477
REMARK UNBOUND:                -0.570
REMARK  Name = 
REMARK  6 active torsions:
REMARK  status: ('A' for Active; 'I' for Inactive)
REMARK    1  A    between atoms: N_1  and  C_2
REMARK    2  A    between atoms: C_2  and  C_3
REMARK    3  A    between atoms: C_7  and  C_8
REMARK    4  A    between atoms: C_8  and  C_9
REMARK    5  A    between atoms: C_9  and  N_10
REMARK    6  A    between atoms: C_14  and  C_15
REMARK                            x       y       z     vdW  Elec       q    Type
REMARK                         _______ _______ _______ _____ _____    ______ ____
ROOT
ATOM      1  N   UNL     1      43.948   4.719  10.015  0.00  0.00    +0.000 N 
ATOM      2  C   UNL     1      44.791   3.896   9.239  0.00  0.00    +0.000 A 
ATOM      3  C   UNL     1      45.532   4.462   8.207  0.00  0.00    +0.000 A 
ATOM      4  C   UNL     1      46.369   3.649   7.433  0.00  0.00    +0.000 A 
ATOM      5  C   UNL     1      46.452   2.283   7.704  0.00  0.00    +0.000 A 
ATOM      6  C   UNL     1      45.669   1.803   8.738  0.00  0.00    +0.000 A 
ATOM      7  N   UNL     1      44.850   2.573   9.493  0.00  0.00    +0.000 NA
ATOM      8  H   UNL     1      44.506   5.479  10.394  0.00  0.00    +0.000 HD
ENDROOT
BRANCH   5   9
ATOM      9  C   UNL     1      47.352   1.423   6.900  0.00  0.00    +0.000 C 
ATOM     10  N   UNL     1      48.510   1.951   6.398  0.00  0.00    +0.000 N 
ATOM     11  O   UNL     1      47.071   0.251   6.676  0.00  0.00    +0.000 OA
ATOM     12  H   UNL     1      48.834   2.900   6.516  0.00  0.00    +0.000 HD
ATOM     13  H   UNL     1      49.089   1.330   5.849  0.00  0.00    +0.000 HD
ENDBRANCH   5   9
BRANCH   1  14
ATOM     14  C   UNL     1      43.243   3.967  11.063  0.00  0.00    +0.000 C 
BRANCH  14  15
ATOM     15  C   UNL     1      43.272   4.710  12.404  0.00  0.00    +0.000 C 
BRANCH  15  20
ATOM     16  C   UNL     1      46.249   7.011  13.092  0.00  0.00    +0.000 A 
ATOM     17  C   UNL     1      47.214   6.081  13.500  0.00  0.00    +0.000 A 
ATOM     18  C   UNL     1      46.924   4.718  13.513  0.00  0.00    +0.000 A 
ATOM     19  C   UNL     1      45.659   4.266  13.134  0.00  0.00    +0.000 A 
ATOM     20  C   UNL     1      44.676   5.175  12.724  0.00  0.00    +0.000 A 
ATOM     21  C   UNL     1      44.984   6.546  12.698  0.00  0.00    +0.000 A 
BRANCH  16  22
ATOM     22  C   UNL     1      46.541   8.491  13.138  0.00  0.00    +0.000 C 
BRANCH  22  23
ATOM     23  N   UNL     1      47.008   8.919  14.451  0.00  0.00    +0.000 NA
ATOM     24  H   UNL     1      46.929   9.931  14.516  0.00  0.00    +0.000 HD
ATOM     25  H   UNL     1      48.000   8.700  14.531  0.00  0.00    +0.000 HD
ENDBRANCH  22  23
ENDBRANCH  16  22
ENDBRANCH  15  20
ENDBRANCH  14  15
ENDBRANCH   1  14
TORSDOF 6
ENDMDL
MODEL 3
REMARK VINA RESULT:    -6.425      3.571      6.123
REMARK INTER + INTRA:          -9.061
REMARK INTER:                  -8.746
REMARK INTRA:                  -0.315
REMARK UNBOUND:                -0.570
REMARK  Name = 
REMARK  6 active torsions:
REMARK  status: ('A' for Active; 'I' for Inactive)
REMARK    1  A    between atoms: N_1  and  C_2
REMARK    2  A    between atoms: C_2  and  C_3
REMARK    3  A    between atoms: C_7  and  C_8
REMARK    4  A    between atoms: C_8  and  C_9
REMARK    5  A    between atoms: C_9  and  N_10
REMARK    6  A    between atoms: C_14  and  C_15
REMARK                            x       y       z     vdW  Elec       q    Type
REMARK                         _______ _______ _______ _____ _____    ______ ____
ROOT
ATOM      1  N   UNL     1      46.952   5.260  14.826  0.00  0.00    +0.000 N 
ATOM      2  C   UNL     1      46.277   4.867  13.652  0.00  0.00    +0.000 A 
ATOM      3  C   UNL     1      45.874   5.838  12.741  0.00  0.00    +0.000 A 
ATOM      4  C   UNL     1      45.201   5.454  11.575  0.00  0.00    +0.000 A 
ATOM      5  C   UNL     1      44.941   4.103  11.339  0.00  0.00    +0.000 A 
ATOM      6  C   UNL     1      45.363   3.207  12.305  0.00  0.00    +0.000 A 
ATOM      7  N   UNL     1      46.009   3.562  13.440  0.00  0.00    +0.000 NA
ATOM      8  H   UNL     1      47.764   5.810  14.557  0.00  0.00    +0.000 HD
ENDROOT
BRANCH   5   9
ATOM      9  C   UNL     1      44.247   3.690  10.096  0.00  0.00    +0.000 C 
ATOM     10  N   UNL     1      43.917   4.639   9.168  0.00  0.00    +0.000 N 
ATOM     11  O   UNL     1      43.962   2.515   9.893  0.00  0.00    +0.000 OA
ATOM     12  H   UNL     1      44.098   5.630   9.235  0.00  0.00    +0.000 HD
ATOM     13  H   UNL     1      43.438   4.312   8.339  0.00  0.00    +0.000 HD
ENDBRANCH   5   9
BRANCH   1  14
ATOM     14  C   UNL     1      47.311   4.114  15.675  0.00  0.00    +0.000 C 
BRANCH  14  15
ATOM     15  C   UNL     1      47.609   4.551  17.114  0.00  0.00    +0.000 C 
BRANCH  15  20
ATOM     16  C   UNL     1      50.900   2.630  17.447  0.00  0.00    +0.000 A 
ATOM     17  C   UNL     1      51.728   3.617  17.996  0.00  0.00    +0.000 A 
ATOM     18  C   UNL     1      51.222   4.880  18.297  0.00  0.00    +0.000 A 
ATOM     19  C   UNL     1      49.884   5.179  18.039  0.00  0.00    +0.000 A 
ATOM     20  C   UNL     1      49.035   4.211  17.489  0.00  0.00    +0.000 A 
ATOM     21  C   UNL     1      49.551   2.936  17.205  0.00  0.00    +0.000 A 
BRANCH  16  22
ATOM     22  C   UNL     1      51.461   1.283  17.062  0.00  0.00    +0.000 C 
BRANCH  22  23
ATOM     23  N   UNL     1      51.467   0.350  18.183  0.00  0.00    +0.000 NA
ATOM     24  H   UNL     1      50.907   0.738  18.939  0.00  0.00    +0.000 HD
ATOM     25  H   UNL     1      52.419   0.274  18.538  0.00  0.00    +0.000 HD
ENDBRANCH  22  23
ENDBRANCH  16  22
ENDBRANCH  15  20
ENDBRANCH  14  15
ENDBRANCH   1  14
TORSDOF 6
ENDMDL
MODEL 4
REMARK VINA RESULT:    -6.092      3.491      7.190
REMARK INTER + INTRA:          -8.621
REMARK INTER:                  -8.171
REMARK INTRA:                  -0.450
REMARK UNBOUND:                -0.570
REMARK  Name = 
REMARK  6 active torsions:
REMARK  status: ('A' for Active; 'I' for Inactive)
REMARK    1  A    between atoms: N_1  and  C_2
REMARK    2  A    between atoms: C_2  and  C_3
REMARK    3  A    between atoms: C_7  and  C_8
REMARK    4  A    between atoms: C_8  and  C_9
REMARK    5  A    between atoms: C_9  and  N_10
REMARK    6  A    between atoms: C_14  and  C_15
REMARK                            x       y       z     vdW  Elec       q    Type
REMARK                         _______ _______ _______ _____ _____    ______ ____
ROOT
ATOM      1  N   UNL     1      48.000   7.129  13.166  0.00  0.00    +0.000 N 
ATOM      2  C   UNL     1      47.905   6.173  14.199  0.00  0.00    +0.000 A 
ATOM      3  C   UNL     1      48.450   6.461  15.445  0.00  0.00    +0.000 A 
ATOM      4  C   UNL     1      48.360   5.515  16.474  0.00  0.00    +0.000 A 
ATOM      5  C   UNL     1      47.726   4.295  16.238  0.00  0.00    +0.000 A 
ATOM      6  C   UNL     1      47.227   4.086  14.965  0.00  0.00    +0.000 A 
ATOM      7  N   UNL     1      47.311   4.986  13.957  0.00  0.00    +0.000 NA
ATOM      8  H   UNL     1      47.601   8.001  13.502  0.00  0.00    +0.000 HD
ENDROOT
BRANCH   5   9
ATOM      9  C   UNL     1      47.611   3.299  17.329  0.00  0.00    +0.000 C 
ATOM     10  N   UNL     1      48.715   2.993  18.075  0.00  0.00    +0.000 N 
ATOM     11  O   UNL     1      46.543   2.745  17.568  0.00  0.00    +0.000 OA
ATOM     12  H   UNL     1      49.640   3.382  17.961  0.00  0.00    +0.000 HD
ATOM     13  H   UNL     1      48.591   2.302  18.804  0.00  0.00    +0.000 HD
ENDBRANCH   5   9
BRANCH   1  14
ATOM     14  C   UNL     1      47.371   6.670  11.919  0.00  0.00    +0.000 C 
BRANCH  14  15
ATOM     15  C   UNL     1      45.938   7.194  11.786  0.00  0.00    +0.000 C 
BRANCH  15  20
ATOM     16  C   UNL     1      44.241   3.981  10.589  0.00  0.00    +0.000 A 
ATOM     17  C   UNL     1      43.278   3.802  11.590  0.00  0.00    +0.000 A 
ATOM     18  C   UNL     1      43.145   4.731  12.620  0.00  0.00    +0.000 A 
ATOM     19  C   UNL     1      43.985   5.844  12.674  0.00  0.00    +0.000 A 
ATOM     20  C   UNL     1      44.958   6.046  11.687  0.00  0.00    +0.000 A 
ATOM     21  C   UNL     1      45.072   5.112  10.643  0.00  0.00    +0.000 A 
BRANCH  16  22
ATOM     22  C   UNL     1      44.429   2.945   9.509  0.00  0.00    +0.000 C 
BRANCH  22  23
ATOM     23  N   UNL     1      44.401   3.532   8.174  0.00  0.00    +0.000 NA
ATOM     24  H   UNL     1      43.553   4.086   8.075  0.00  0.00    +0.000 HD
ATOM     25  H   UNL     1      44.337   2.780   7.489  0.00  0.00    +0.000 HD
ENDBRANCH  22  23
ENDBRANCH  16  22
ENDBRANCH  15  20
ENDBRANCH  14  15
ENDBRANCH   1  14
TORSDOF 6
ENDMDL
MODEL 5
REMARK VINA RESULT:    -6.018      3.855      5.979
REMARK INTER + INTRA:          -8.523
REMARK INTER:                  -7.982
REMARK INTRA:                  -0.541
REMARK UNBOUND:                -0.570
REMARK  Name = 
REMARK  6 active torsions:
REMARK  status: ('A' for Active; 'I' for Inactive)
REMARK    1  A    between atoms: N_1  and  C_2
REMARK    2  A    between atoms: C_2  and  C_3
REMARK    3  A    between atoms: C_7  and  C_8
REMARK    4  A    between atoms: C_8  and  C_9
REMARK    5  A    between atoms: C_9  and  N_10
REMARK    6  A    between atoms: C_14  and  C_15
REMARK                            x       y       z     vdW  Elec       q    Type
REMARK                         _______ _______ _______ _____ _____    ______ ____
ROOT
ATOM      1  N   UNL     1      47.201   7.381  13.688  0.00  0.00    +0.000 N 
ATOM      2  C   UNL     1      46.417   6.283  13.278  0.00  0.00    +0.000 A 
ATOM      3  C   UNL     1      45.127   6.505  12.809  0.00  0.00    +0.000 A 
ATOM      4  C   UNL     1      44.343   5.418  12.403  0.00  0.00    +0.000 A 
ATOM      5  C   UNL     1      44.864   4.125  12.472  0.00  0.00    +0.000 A 
ATOM      6  C   UNL     1      46.150   3.995  12.965  0.00  0.00    +0.000 A 
ATOM      7  N   UNL     1      46.919   5.034  13.368  0.00  0.00    +0.000 NA
ATOM      8  H   UNL     1      47.244   8.046  12.920  0.00  0.00    +0.000 HD
ENDROOT
BRANCH   5   9
ATOM      9  C   UNL     1      44.045   2.974  12.023  0.00  0.00    +0.000 C 
ATOM     10  N   UNL     1      44.069   2.609  10.706  0.00  0.00    +0.000 N 
ATOM     11  O   UNL     1      43.346   2.352  12.815  0.00  0.00    +0.000 OA
ATOM     12  H   UNL     1      44.602   3.053   9.972  0.00  0.00    +0.000 HD
ATOM     13  H   UNL     1      43.489   1.823  10.444  0.00  0.00    +0.000 HD
ENDBRANCH   5   9
BRANCH   1  14
ATOM     14  C   UNL     1      48.536   6.974  14.149  0.00  0.00    +0.000 C 
BRANCH  14  15
ATOM     15  C   UNL     1      48.762   7.347  15.619  0.00  0.00    +0.000 C 
BRANCH  15  20
ATOM     16  C   UNL     1      48.896   3.910  17.294  0.00  0.00    +0.000 A 
ATOM     17  C   UNL     1      50.245   3.850  17.668  0.00  0.00    +0.000 A 
ATOM     18  C   UNL     1      51.097   4.926  17.423  0.00  0.00    +0.000 A 
ATOM     19  C   UNL     1      50.616   6.070  16.784  0.00  0.00    +0.000 A 
ATOM     20  C   UNL     1      49.273   6.154  16.398  0.00  0.00    +0.000 A 
ATOM     21  C   UNL     1      48.419   5.071  16.665  0.00  0.00    +0.000 A 
BRANCH  16  22
ATOM     22  C   UNL     1      47.988   2.723  17.502  0.00  0.00    +0.000 C 
BRANCH  22  23
ATOM     23  N   UNL     1      46.581   3.105  17.523  0.00  0.00    +0.000 NA
ATOM     24  H   UNL     1      46.033   2.327  17.884  0.00  0.00    +0.000 HD
ATOM     25  H   UNL     1      46.271   3.258  16.565  0.00  0.00    +0.000 HD
ENDBRANCH  22  23
ENDBRANCH  16  22
ENDBRANCH  15  20
ENDBRANCH  14  15
ENDBRANCH   1  14
TORSDOF 6
ENDMDL
MODEL 6
REMARK VINA RESULT:    -5.922      3.777      6.468
REMARK INTER + INTRA:          -8.397
REMARK INTER:                  -8.061
REMARK INTRA:                  -0.336
REMARK UNBOUND:                -0.570
REMARK  Name = 
REMARK  6 active torsions:
REMARK  status: ('A' for Active; 'I' for Inactive)
REMARK    1  A    between atoms: N_1  and  C_2
REMARK    2  A    between atoms: C_2  and  C_3
REMARK    3  A    between atoms: C_7  and  C_8
REMARK    4  A    between atoms: C_8  and  C_9
REMARK    5  A    between atoms: C_9  and  N_10
REMARK    6  A    between atoms: C_14  and  C_15
REMARK                            x       y       z     vdW  Elec       q    Type
REMARK                         _______ _______ _______ _____ _____    ______ ____
ROOT
ATOM      1  N   UNL     1      47.312   5.134  15.202  0.00  0.00    +0.000 N 
ATOM      2  C   UNL     1      46.749   5.103  13.909  0.00  0.00    +0.000 A 
ATOM      3  C   UNL     1      46.974   6.168  13.043  0.00  0.00    +0.000 A 
ATOM      4  C   UNL     1      46.416   6.143  11.759  0.00  0.00    +0.000 A 
ATOM      5  C   UNL     1      45.641   5.053  11.363  0.00  0.00    +0.000 A 
ATOM      6  C   UNL     1      45.456   4.046  12.293  0.00  0.00    +0.000 A 
ATOM      7  N   UNL     1      45.982   4.057  13.540  0.00  0.00    +0.000 NA
ATOM      8  H   UNL     1      48.315   5.271  15.109  0.00  0.00    +0.000 HD
ENDROOT
BRANCH   5   9
ATOM      9  C   UNL     1      45.065   5.013   9.997  0.00  0.00    +0.000 C 
ATOM     10  N   UNL     1      43.736   4.736   9.840  0.00  0.00    +0.000 N 
ATOM     11  O   UNL     1      45.765   5.221   9.012  0.00  0.00    +0.000 OA
ATOM     12  H   UNL     1      43.073   4.545  10.577  0.00  0.00    +0.000 HD
ATOM     13  H   UNL     1      43.389   4.712   8.890  0.00  0.00    +0.000 HD
ENDBRANCH   5   9
BRANCH   1  14
ATOM     14  C   UNL     1      46.983   3.934  15.984  0.00  0.00    +0.000 C 
BRANCH  14  15
ATOM     15  C   UNL     1      47.531   4.025  17.413  0.00  0.00    +0.000 C 
BRANCH  15  20
ATOM     16  C   UNL     1      51.253   3.871  18.283  0.00  0.00    +0.000 A 
ATOM     17  C   UNL     1      51.604   2.633  17.728  0.00  0.00    +0.000 A 
ATOM     18  C   UNL     1      50.660   1.872  17.041  0.00  0.00    +0.000 A 
ATOM     19  C   UNL     1      49.349   2.329  16.912  0.00  0.00    +0.000 A 
ATOM     20  C   UNL     1      48.971   3.562  17.460  0.00  0.00    +0.000 A 
ATOM     21  C   UNL     1      49.935   4.330  18.136  0.00  0.00    +0.000 A 
BRANCH  16  22
ATOM     22  C   UNL     1      52.256   4.667  19.081  0.00  0.00    +0.000 C 
BRANCH  22  23
ATOM     23  N   UNL     1      52.674   3.968  20.291  0.00  0.00    +0.000 NA
ATOM     24  H   UNL     1      53.615   3.605  20.155  0.00  0.00    +0.000 HD
ATOM     25  H   UNL     1      52.068   3.160  20.426  0.00  0.00    +0.000 HD
ENDBRANCH  22  23
ENDBRANCH  16  22
ENDBRANCH  15  20
ENDBRANCH  14  15
ENDBRANCH   1  14
TORSDOF 6
ENDMDL
MODEL 7
REMARK VINA RESULT:    -5.737      4.235      8.329
REMARK INTER + INTRA:          -8.151
REMARK INTER:                  -7.789
REMARK INTRA:                  -0.362
REMARK UNBOUND:                -0.570
REMARK  Name = 
REMARK  6 active torsions:
REMARK  status: ('A' for Active; 'I' for Inactive)
REMARK    1  A    between atoms: N_1  and  C_2
REMARK    2  A    between atoms: C_2  and  C_3
REMARK    3  A    between atoms: C_7  and  C_8
REMARK    4  A    between atoms: C_8  and  C_9
REMARK    5  A    between atoms: C_9  and  N_10
REMARK    6  A    between atoms: C_14  and  C_15
REMARK                            x       y       z     vdW  Elec       q    Type
REMARK                         _______ _______ _______ _____ _____    ______ ____
ROOT
ATOM      1  N   UNL     1      46.915   4.016  14.568  0.00  0.00    +0.000 N 
ATOM      2  C   UNL     1      47.558   4.195  15.811  0.00  0.00    +0.000 A 
ATOM      3  C   UNL     1      47.295   3.304  16.847  0.00  0.00    +0.000 A 
ATOM      4  C   UNL     1      47.929   3.478  18.083  0.00  0.00    +0.000 A 
ATOM      5  C   UNL     1      48.816   4.541  18.264  0.00  0.00    +0.000 A 
ATOM      6  C   UNL     1      49.005   5.386  17.186  0.00  0.00    +0.000 A 
ATOM      7  N   UNL     1      48.396   5.237  15.986  0.00  0.00    +0.000 NA
ATOM      8  H   UNL     1      47.108   3.073  14.243  0.00  0.00    +0.000 HD
ENDROOT
BRANCH   5   9
ATOM      9  C   UNL     1      49.504   4.716  19.565  0.00  0.00    +0.000 C 
ATOM     10  N   UNL     1      48.908   4.252  20.705  0.00  0.00    +0.000 N 
ATOM     11  O   UNL     1      50.594   5.274  19.631  0.00  0.00    +0.000 OA
ATOM     12  H   UNL     1      48.015   3.786  20.765  0.00  0.00    +0.000 HD
ATOM     13  H   UNL     1      49.410   4.401  21.570  0.00  0.00    +0.000 HD
ENDBRANCH   5   9
BRANCH   1  14
ATOM     14  C   UNL     1      47.305   5.037  13.585  0.00  0.00    +0.000 C 
BRANCH  14  15
ATOM     15  C   UNL     1      46.214   6.100  13.414  0.00  0.00    +0.000 C 
BRANCH  15  20
ATOM     16  C   UNL     1      44.471   4.660  10.329  0.00  0.00    +0.000 A 
ATOM     17  C   UNL     1      43.168   4.493  10.814  0.00  0.00    +0.000 A 
ATOM     18  C   UNL     1      42.841   4.881  12.113  0.00  0.00    +0.000 A 
ATOM     19  C   UNL     1      43.815   5.426  12.949  0.00  0.00    +0.000 A 
ATOM     20  C   UNL     1      45.126   5.602  12.489  0.00  0.00    +0.000 A 
ATOM     21  C   UNL     1      45.441   5.224  11.173  0.00  0.00    +0.000 A 
BRANCH  16  22
ATOM     22  C   UNL     1      44.842   4.184   8.946  0.00  0.00    +0.000 C 
BRANCH  22  23
ATOM     23  N   UNL     1      44.318   2.853   8.665  0.00  0.00    +0.000 NA
ATOM     24  H   UNL     1      45.053   2.291   8.241  0.00  0.00    +0.000 HD
ATOM     25  H   UNL     1      43.579   2.935   7.968  0.00  0.00    +0.000 HD
ENDBRANCH  22  23
ENDBRANCH  16  22
ENDBRANCH  15  20
ENDBRANCH  14  15
ENDBRANCH   1  14
TORSDOF 6
ENDMDL
MODEL 8
REMARK VINA RESULT:    -5.464      3.987      6.513
REMARK INTER + INTRA:          -7.791
REMARK INTER:                  -7.431
REMARK INTRA:                  -0.360
REMARK UNBOUND:                -0.570
REMARK  Name = 
REMARK  6 active torsions:
REMARK  status: ('A' for Active; 'I' for Inactive)
REMARK    1  A    between atoms: N_1  and  C_2
REMARK    2  A    between atoms: C_2  and  C_3
REMARK    3  A    between atoms: C_7  and  C_8
REMARK    4  A    between atoms: C_8  and  C_9
REMARK    5  A    between atoms: C_9  and  N_10
REMARK    6  A    between atoms: C_14  and  C_15
REMARK                            x       y       z     vdW  Elec       q    Type
REMARK                         _______ _______ _______ _____ _____    ______ ____
ROOT
ATOM      1  N   UNL     1      47.198   5.162  15.123  0.00  0.00    +0.000 N 
ATOM      2  C   UNL     1      46.477   4.854  13.950  0.00  0.00    +0.000 A 
ATOM      3  C   UNL     1      45.971   5.889  13.171  0.00  0.00    +0.000 A 
ATOM      4  C   UNL     1      45.254   5.589  12.006  0.00  0.00    +0.000 A 
ATOM      5  C   UNL     1      45.055   4.257  11.640  0.00  0.00    +0.000 A 
ATOM      6  C   UNL     1      45.579   3.293  12.481  0.00  0.00    +0.000 A 
ATOM      7  N   UNL     1      46.269   3.565  13.613  0.00  0.00    +0.000 NA
ATOM      8  H   UNL     1      47.961   5.785  14.873  0.00  0.00    +0.000 HD
ENDROOT
BRANCH   5   9
ATOM      9  C   UNL     1      44.313   3.936  10.397  0.00  0.00    +0.000 C 
ATOM     10  N   UNL     1      44.312   4.836   9.368  0.00  0.00    +0.000 N 
ATOM     11  O   UNL     1      43.700   2.881  10.284  0.00  0.00    +0.000 OA
ATOM     12  H   UNL     1      44.776   5.733   9.356  0.00  0.00    +0.000 HD
ATOM     13  H   UNL     1      43.786   4.578   8.543  0.00  0.00    +0.000 HD
ENDBRANCH   5   9
BRANCH   1  14
ATOM     14  C   UNL     1      47.665   3.958  15.824  0.00  0.00    +0.000 C 
BRANCH  14  15
ATOM     15  C   UNL     1      47.007   3.817  17.201  0.00  0.00    +0.000 C 
BRANCH  15  20
ATOM     16  C   UNL     1      47.973   6.527  19.722  0.00  0.00    +0.000 A 
ATOM     17  C   UNL     1      49.102   5.947  20.315  0.00  0.00    +0.000 A 
ATOM     18  C   UNL     1      49.576   4.711  19.878  0.00  0.00    +0.000 A 
ATOM     19  C   UNL     1      48.918   4.030  18.853  0.00  0.00    +0.000 A 
ATOM     20  C   UNL     1      47.786   4.587  18.245  0.00  0.00    +0.000 A 
ATOM     21  C   UNL     1      47.327   5.841  18.681  0.00  0.00    +0.000 A 
BRANCH  16  22
ATOM     22  C   UNL     1      47.423   7.835  20.235  0.00  0.00    +0.000 C 
BRANCH  22  23
ATOM     23  N   UNL     1      47.734   8.046  21.644  0.00  0.00    +0.000 NA
ATOM     24  H   UNL     1      47.166   8.814  21.996  0.00  0.00    +0.000 HD
ATOM     25  H   UNL     1      48.704   8.346  21.721  0.00  0.00    +0.000 HD
ENDBRANCH  22  23
ENDBRANCH  16  22
ENDBRANCH  15  20
ENDBRANCH  14  15
ENDBRANCH   1  14
TORSDOF 6
ENDMDL
MODEL 9
REMARK VINA RESULT:    -5.239      5.072      8.710
REMARK INTER + INTRA:          -7.494
REMARK INTER:                  -7.176
REMARK INTRA:                  -0.318
REMARK UNBOUND:                -0.570
REMARK  Name = 
REMARK  6 active torsions:
REMARK  status: ('A' for Active; 'I' for Inactive)
REMARK    1  A    between atoms: N_1  and  C_2
REMARK    2  A    between atoms: C_2  and  C_3
REMARK    3  A    between atoms: C_7  and  C_8
REMARK    4  A    between atoms: C_8  and  C_9
REMARK    5  A    between atoms: C_9  and  N_10
REMARK    6  A    between atoms: C_14  and  C_15
REMARK                            x       y       z     vdW  Elec       q    Type
REMARK                         _______ _______ _______ _____ _____    ______ ____
ROOT
ATOM      1  N   UNL     1      46.875   3.897  15.993  0.00  0.00    +0.000 N 
ATOM      2  C   UNL     1      47.955   4.199  16.848  0.00  0.00    +0.000 A 
ATOM      3  C   UNL     1      47.986   3.651  18.126  0.00  0.00    +0.000 A 
ATOM      4  C   UNL     1      49.055   3.949  18.979  0.00  0.00    +0.000 A 
ATOM      5  C   UNL     1      50.077   4.792  18.541  0.00  0.00    +0.000 A 
ATOM      6  C   UNL     1      49.958   5.305  17.262  0.00  0.00    +0.000 A 
ATOM      7  N   UNL     1      48.928   5.032  16.426  0.00  0.00    +0.000 NA
ATOM      8  H   UNL     1      46.805   2.886  15.915  0.00  0.00    +0.000 HD
ENDROOT
BRANCH   5   9
ATOM      9  C   UNL     1      51.220   5.094  19.434  0.00  0.00    +0.000 C 
ATOM     10  N   UNL     1      52.431   4.505  19.194  0.00  0.00    +0.000 N 
ATOM     11  O   UNL     1      51.093   5.858  20.385  0.00  0.00    +0.000 OA
ATOM     12  H   UNL     1      52.644   3.860  18.448  0.00  0.00    +0.000 HD
ATOM     13  H   UNL     1      53.180   4.735  19.834  0.00  0.00    +0.000 HD
ENDBRANCH   5   9
BRANCH   1  14
ATOM     14  C   UNL     1      46.999   4.551  14.683  0.00  0.00    +0.000 C 
BRANCH  14  15
ATOM     15  C   UNL     1      46.780   3.558  13.535  0.00  0.00    +0.000 C 
BRANCH  15  20
ATOM     16  C   UNL     1      44.409   5.851  11.596  0.00  0.00    +0.000 A 
ATOM     17  C   UNL     1      43.691   4.913  10.843  0.00  0.00    +0.000 A 
ATOM     18  C   UNL     1      43.937   3.548  10.989  0.00  0.00    +0.000 A 
ATOM     19  C   UNL     1      44.916   3.103  11.878  0.00  0.00    +0.000 A 
ATOM     20  C   UNL     1      45.650   4.020  12.641  0.00  0.00    +0.000 A 
ATOM     21  C   UNL     1      45.382   5.392  12.499  0.00  0.00    +0.000 A 
BRANCH  16  22
ATOM     22  C   UNL     1      44.188   7.329  11.394  0.00  0.00    +0.000 C 
BRANCH  22  23
ATOM     23  N   UNL     1      42.812   7.633  11.019  0.00  0.00    +0.000 NA
ATOM     24  H   UNL     1      42.815   8.390  10.340  0.00  0.00    +0.000 HD
ATOM     25  H   UNL     1      42.321   7.983  11.840  0.00  0.00    +0.000 HD
ENDBRANCH  22  23
ENDBRANCH  16  22
ENDBRANCH  15  20
ENDBRANCH  14  15
ENDBRANCH   1  14
TORSDOF 6
ENDMDL
