MODEL 1
REMARK VINA RESULT:    -8.257      0.000      0.000
REMARK INTER + INTRA:         -11.686
REMARK INTER:                 -10.671
REMARK INTRA:                  -1.015
REMARK UNBOUND:                -1.015
REMARK  Name = 
REMARK  5 active torsions:
REMARK  status: ('A' for Active; 'I' for Inactive)
REMARK    1  A    between atoms: C_2  and  C_18
REMARK    2  A    between atoms: N_3  and  C_4
REMARK    3  A    between atoms: C_4  and  C_5
REMARK    4  A    between atoms: C_8  and  C_9
REMARK    5  A    between atoms: C_9  and  C_10
REMARK                            x       y       z     vdW  Elec       q    Type
REMARK                         _______ _______ _______ _____ _____    ______ ____
ROOT
ATOM      1  O   UNL     1      45.036   3.056  12.461  0.00  0.00    +0.000 OA
ATOM      2  C   UNL     1      45.327   4.030  11.773  0.00  0.00    +0.000 C 
ATOM      3  N   UNL     1      45.122   4.061  10.418  0.00  0.00    +0.000 N 
ATOM      4  H   UNL     1      45.526   4.812   9.869  0.00  0.00    +0.000 HD
ENDROOT
BRANCH   2   5
ATOM      5  C   UNL     1      45.866   5.255  12.377  0.00  0.00    +0.000 A 
ATOM      6  C   UNL     1      47.018   5.191  13.150  0.00  0.00    +0.000 A 
ATOM      7  S   UNL     1      47.516   6.703  13.761  0.00  0.00    +0.000 S 
ATOM      8  C   UNL     1      46.230   7.502  12.982  0.00  0.00    +0.000 A 
ATOM      9  N   UNL     1      46.097   8.856  13.061  0.00  0.00    +0.000 NA
ATOM     10  C   UNL     1      45.104   9.331  12.388  0.00  0.00    +0.000 A 
ATOM     11  N   UNL     1      44.220   8.578  11.659  0.00  0.00    +0.000 N 
ATOM     12  C   UNL     1      44.264   7.205  11.622  0.00  0.00    +0.000 A 
ATOM     13  O   UNL     1      43.370   6.557  11.089  0.00  0.00    +0.000 OA
ATOM     14  C   UNL     1      45.406   6.622  12.304  0.00  0.00    +0.000 A 
ATOM     15  H   UNL     1      43.438   9.010  11.189  0.00  0.00    +0.000 HD
ENDBRANCH   2   5
BRANCH   3  16
ATOM     16  C   UNL     1      44.611   2.933   9.684  0.00  0.00    +0.000 C 
BRANCH  16  17
ATOM     17  C   UNL     1      45.484   2.585   8.509  0.00  0.00    +0.000 A 
ATOM     18  C   UNL     1      46.043   1.304   8.404  0.00  0.00    +0.000 A 
ATOM     19  C   UNL     1      46.803   0.946   7.289  0.00  0.00    +0.000 A 
ATOM     20  C   UNL     1      47.033   1.868   6.259  0.00  0.00    +0.000 A 
ATOM     21  C   UNL     1      46.510   3.163   6.384  0.00  0.00    +0.000 A 
ATOM     22  C   UNL     1      45.750   3.521   7.502  0.00  0.00    +0.000 A 
BRANCH  20  23
ATOM     23  C   UNL     1      47.785   1.455   5.014  0.00  0.00    +0.000 C 
BRANCH  23  24
ATOM     24  C   UNL     1      46.928   0.704   4.029  0.00  0.00    +0.000 A 
ATOM     25  C   UNL     1      46.011   1.363   3.205  0.00  0.00    +0.000 A 
ATOM     26  C   UNL     1      45.189   0.625   2.357  0.00  0.00    +0.000 A 
ATOM     27  C   UNL     1      45.315  -0.754   2.356  0.00  0.00    +0.000 A 
ATOM     28  N   UNL     1      46.199  -1.426   3.122  0.00  0.00    +0.000 NA
ATOM     29  C   UNL     1      46.977  -0.684   3.943  0.00  0.00    +0.000 A 
ENDBRANCH  23  24
ENDBRANCH  20  23
ENDBRANCH  16  17
ENDBRANCH   3  16
TORSDOF 5
ENDMDL
MODEL 2
REMARK VINA RESULT:    -8.067      3.385      5.640
REMARK INTER + INTRA:         -11.440
REMARK INTER:                 -10.584
REMARK INTRA:                  -0.856
REMARK UNBOUND:                -1.015
REMARK  Name = 
REMARK  5 active torsions:
REMARK  status: ('A' for Active; 'I' for Inactive)
REMARK    1  A    between atoms: C_2  and  C_18
REMARK    2  A    between atoms: N_3  and  C_4
REMARK    3  A    between atoms: C_4  and  C_5
REMARK    4  A    between atoms: C_8  and  C_9
REMARK    5  A    between atoms: C_9  and  C_10
REMARK                            x       y       z     vdW  Elec       q    Type
REMARK                         _______ _______ _______ _____ _____    ______ ____
ROOT
ATOM      1  O   UNL     1      48.971   6.607  13.090  0.00  0.00    +0.000 OA
ATOM      2  C   UNL     1      48.261   6.653  14.091  0.00  0.00    +0.000 C 
ATOM      3  N   UNL     1      46.978   7.134  14.061  0.00  0.00    +0.000 N 
ATOM      4  H   UNL     1      46.490   7.308  14.934  0.00  0.00    +0.000 HD
ENDROOT
BRANCH   2   5
ATOM      5  C   UNL     1      48.732   6.136  15.382  0.00  0.00    +0.000 A 
ATOM      6  C   UNL     1      49.776   6.774  16.038  0.00  0.00    +0.000 A 
ATOM      7  S   UNL     1      50.186   6.056  17.530  0.00  0.00    +0.000 S 
ATOM      8  C   UNL     1      48.958   4.890  17.367  0.00  0.00    +0.000 A 
ATOM      9  N   UNL     1      48.731   3.971  18.348  0.00  0.00    +0.000 NA
ATOM     10  C   UNL     1      47.743   3.175  18.112  0.00  0.00    +0.000 A 
ATOM     11  N   UNL     1      46.971   3.201  16.979  0.00  0.00    +0.000 N 
ATOM     12  C   UNL     1      47.217   4.051  15.928  0.00  0.00    +0.000 A 
ATOM     13  O   UNL     1      46.607   3.943  14.870  0.00  0.00    +0.000 OA
ATOM     14  C   UNL     1      48.274   5.017  16.172  0.00  0.00    +0.000 A 
ATOM     15  H   UNL     1      46.238   2.521  16.838  0.00  0.00    +0.000 HD
ENDBRANCH   2   5
BRANCH   3  16
ATOM     16  C   UNL     1      46.382   7.684  12.873  0.00  0.00    +0.000 C 
BRANCH  16  17
ATOM     17  C   UNL     1      45.904   6.609  11.934  0.00  0.00    +0.000 A 
ATOM     18  C   UNL     1      44.971   5.660  12.370  0.00  0.00    +0.000 A 
ATOM     19  C   UNL     1      44.471   4.695  11.493  0.00  0.00    +0.000 A 
ATOM     20  C   UNL     1      44.905   4.651  10.162  0.00  0.00    +0.000 A 
ATOM     21  C   UNL     1      45.871   5.575   9.736  0.00  0.00    +0.000 A 
ATOM     22  C   UNL     1      46.372   6.539  10.616  0.00  0.00    +0.000 A 
BRANCH  20  23
ATOM     23  C   UNL     1      44.302   3.660   9.192  0.00  0.00    +0.000 C 
BRANCH  23  24
ATOM     24  C   UNL     1      45.337   2.903   8.402  0.00  0.00    +0.000 A 
ATOM     25  C   UNL     1      45.988   3.476   7.306  0.00  0.00    +0.000 A 
ATOM     26  C   UNL     1      46.888   2.718   6.562  0.00  0.00    +0.000 A 
ATOM     27  C   UNL     1      47.113   1.407   6.941  0.00  0.00    +0.000 A 
ATOM     28  N   UNL     1      46.520   0.821   8.003  0.00  0.00    +0.000 NA
ATOM     29  C   UNL     1      45.643   1.578   8.701  0.00  0.00    +0.000 A 
ENDBRANCH  23  24
ENDBRANCH  20  23
ENDBRANCH  16  17
ENDBRANCH   3  16
TORSDOF 5
ENDMDL
MODEL 3
REMARK VINA RESULT:    -8.006      1.305      2.055
REMARK INTER + INTRA:         -11.361
REMARK INTER:                 -10.531
REMARK INTRA:                  -0.830
REMARK UNBOUND:                -1.015
REMARK  Name = 
REMARK  5 active torsions:
REMARK  status: ('A' for Active; 'I' for Inactive)
REMARK    1  A    between atoms: C_2  and  C_18
REMARK    2  A    between atoms: N_3  and  C_4
REMARK    3  A    between atoms: C_4  and  C_5
REMARK    4  A    between atoms: C_8  and  C_9
REMARK    5  A    between atoms: C_9  and  C_10
REMARK                            x       y       z     vdW  Elec       q    Type
REMARK                         _______ _______ _______ _____ _____    ______ ____
ROOT
ATOM      1  O   UNL     1      44.639   3.856  12.397  0.00  0.00    +0.000 OA
ATOM      2  C   UNL     1      44.962   4.684  11.551  0.00  0.00    +0.000 C 
ATOM      3  N   UNL     1      44.959   4.406  10.209  0.00  0.00    +0.000 N 
ATOM      4  H   UNL     1      45.389   5.059   9.562  0.00  0.00    +0.000 HD
ENDROOT
BRANCH   2   5
ATOM      5  C   UNL     1      45.322   6.057  11.929  0.00  0.00    +0.000 A 
ATOM      6  C   UNL     1      44.608   7.125  11.401  0.00  0.00    +0.000 A 
ATOM      7  S   UNL     1      45.144   8.646  11.956  0.00  0.00    +0.000 S 
ATOM      8  C   UNL     1      46.324   7.928  12.950  0.00  0.00    +0.000 A 
ATOM      9  N   UNL     1      47.121   8.689  13.752  0.00  0.00    +0.000 NA
ATOM     10  C   UNL     1      47.940   8.011  14.483  0.00  0.00    +0.000 A 
ATOM     11  N   UNL     1      48.050   6.645  14.474  0.00  0.00    +0.000 N 
ATOM     12  C   UNL     1      47.329   5.844  13.621  0.00  0.00    +0.000 A 
ATOM     13  O   UNL     1      47.563   4.643  13.530  0.00  0.00    +0.000 OA
ATOM     14  C   UNL     1      46.340   6.550  12.826  0.00  0.00    +0.000 A 
ATOM     15  H   UNL     1      48.742   6.178  15.041  0.00  0.00    +0.000 HD
ENDBRANCH   2   5
BRANCH   3  16
ATOM     16  C   UNL     1      44.640   3.103   9.688  0.00  0.00    +0.000 C 
BRANCH  16  17
ATOM     17  C   UNL     1      45.518   2.733   8.523  0.00  0.00    +0.000 A 
ATOM     18  C   UNL     1      46.029   1.433   8.413  0.00  0.00    +0.000 A 
ATOM     19  C   UNL     1      46.794   1.058   7.307  0.00  0.00    +0.000 A 
ATOM     20  C   UNL     1      47.075   1.980   6.290  0.00  0.00    +0.000 A 
ATOM     21  C   UNL     1      46.599   3.292   6.420  0.00  0.00    +0.000 A 
ATOM     22  C   UNL     1      45.836   3.668   7.530  0.00  0.00    +0.000 A 
BRANCH  20  23
ATOM     23  C   UNL     1      47.831   1.550   5.053  0.00  0.00    +0.000 C 
BRANCH  23  24
ATOM     24  C   UNL     1      46.978   0.783   4.077  0.00  0.00    +0.000 A 
ATOM     25  C   UNL     1      46.046   1.424   3.257  0.00  0.00    +0.000 A 
ATOM     26  C   UNL     1      45.229   0.670   2.418  0.00  0.00    +0.000 A 
ATOM     27  C   UNL     1      45.374  -0.706   2.422  0.00  0.00    +0.000 A 
ATOM     28  N   UNL     1      46.274  -1.362   3.185  0.00  0.00    +0.000 NA
ATOM     29  C   UNL     1      47.047  -0.606   3.998  0.00  0.00    +0.000 A 
ENDBRANCH  23  24
ENDBRANCH  20  23
ENDBRANCH  16  17
ENDBRANCH   3  16
TORSDOF 5
ENDMDL
MODEL 4
REMARK VINA RESULT:    -7.980      1.694      2.767
REMARK INTER + INTRA:         -11.328
REMARK INTER:                 -10.332
REMARK INTRA:                  -0.997
REMARK UNBOUND:                -1.015
REMARK  Name = 
REMARK  5 active torsions:
REMARK  status: ('A' for Active; 'I' for Inactive)
REMARK    1  A    between atoms: C_2  and  C_18
REMARK    2  A    between atoms: N_3  and  C_4
REMARK    3  A    between atoms: C_4  and  C_5
REMARK    4  A    between atoms: C_8  and  C_9
REMARK    5  A    between atoms: C_9  and  C_10
REMARK                            x       y       z     vdW  Elec       q    Type
REMARK                         _______ _______ _______ _____ _____    ______ ____
ROOT
ATOM      1  O   UNL     1      44.815   6.569  10.789  0.00  0.00    +0.000 OA
ATOM      2  C   UNL     1      45.656   5.767  11.184  0.00  0.00    +0.000 C 
ATOM      3  N   UNL     1      45.753   4.495  10.684  0.00  0.00    +0.000 N 
ATOM      4  H   UNL     1      46.347   3.817  11.152  0.00  0.00    +0.000 HD
ENDROOT
BRANCH   2   5
ATOM      5  C   UNL     1      46.656   6.148  12.190  0.00  0.00    +0.000 A 
ATOM      6  C   UNL     1      47.432   7.282  11.993  0.00  0.00    +0.000 A 
ATOM      7  S   UNL     1      48.529   7.589  13.262  0.00  0.00    +0.000 S 
ATOM      8  C   UNL     1      47.979   6.237  14.137  0.00  0.00    +0.000 A 
ATOM      9  N   UNL     1      48.485   5.946  15.368  0.00  0.00    +0.000 NA
ATOM     10  C   UNL     1      47.947   4.920  15.935  0.00  0.00    +0.000 A 
ATOM     11  N   UNL     1      46.963   4.145  15.378  0.00  0.00    +0.000 N 
ATOM     12  C   UNL     1      46.484   4.348  14.106  0.00  0.00    +0.000 A 
ATOM     13  O   UNL     1      45.718   3.546  13.582  0.00  0.00    +0.000 OA
ATOM     14  C   UNL     1      47.005   5.535  13.451  0.00  0.00    +0.000 A 
ATOM     15  H   UNL     1      46.614   3.329  15.858  0.00  0.00    +0.000 HD
ENDBRANCH   2   5
BRANCH   3  16
ATOM     16  C   UNL     1      44.838   3.975   9.703  0.00  0.00    +0.000 C 
BRANCH  16  17
ATOM     17  C   UNL     1      45.554   3.268   8.584  0.00  0.00    +0.000 A 
ATOM     18  C   UNL     1      46.004   3.990   7.471  0.00  0.00    +0.000 A 
ATOM     19  C   UNL     1      46.725   3.360   6.455  0.00  0.00    +0.000 A 
ATOM     20  C   UNL     1      47.001   1.988   6.524  0.00  0.00    +0.000 A 
ATOM     21  C   UNL     1      46.514   1.257   7.617  0.00  0.00    +0.000 A 
ATOM     22  C   UNL     1      45.790   1.889   8.633  0.00  0.00    +0.000 A 
BRANCH  20  23
ATOM     23  C   UNL     1      47.852   1.323   5.466  0.00  0.00    +0.000 C 
BRANCH  23  24
ATOM     24  C   UNL     1      47.039   0.665   4.382  0.00  0.00    +0.000 A 
ATOM     25  C   UNL     1      46.223   1.408   3.525  0.00  0.00    +0.000 A 
ATOM     26  C   UNL     1      45.435   0.754   2.580  0.00  0.00    +0.000 A 
ATOM     27  C   UNL     1      45.492  -0.627   2.521  0.00  0.00    +0.000 A 
ATOM     28  N   UNL     1      46.279  -1.380   3.318  0.00  0.00    +0.000 NA
ATOM     29  C   UNL     1      47.026  -0.719   4.232  0.00  0.00    +0.000 A 
ENDBRANCH  23  24
ENDBRANCH  20  23
ENDBRANCH  16  17
ENDBRANCH   3  16
TORSDOF 5
ENDMDL
MODEL 5
REMARK VINA RESULT:    -7.784      3.166      4.736
REMARK INTER + INTRA:         -11.074
REMARK INTER:                 -11.201
REMARK INTRA:                   0.127
REMARK UNBOUND:                -1.015
REMARK  Name = 
REMARK  5 active torsions:
REMARK  status: ('A' for Active; 'I' for Inactive)
REMARK    1  A    between atoms: C_2  and  C_18
REMARK    2  A    between atoms: N_3  and  C_4
REMARK    3  A    between atoms: C_4  and  C_5
REMARK    4  A    between atoms: C_8  and  C_9
REMARK    5  A    between atoms: C_9  and  C_10
REMARK                            x       y       z     vdW  Elec       q    Type
REMARK                         _______ _______ _______ _____ _____    ______ ____
ROOT
ATOM      1  O   UNL     1      46.824   3.153  13.690  0.00  0.00    +0.000 OA
ATOM      2  C   UNL     1      46.542   4.298  14.030  0.00  0.00    +0.000 C 
ATOM      3  N   UNL     1      45.352   4.892  13.699  0.00  0.00    +0.000 N 
ATOM      4  H   UNL     1      45.229   5.887  13.856  0.00  0.00    +0.000 HD
ENDROOT
BRANCH   2   5
ATOM      5  C   UNL     1      47.452   5.089  14.869  0.00  0.00    +0.000 A 
ATOM      6  C   UNL     1      48.189   6.120  14.302  0.00  0.00    +0.000 A 
ATOM      7  S   UNL     1      49.181   6.945  15.417  0.00  0.00    +0.000 S 
ATOM      8  C   UNL     1      48.631   5.977  16.704  0.00  0.00    +0.000 A 
ATOM      9  N   UNL     1      49.063   6.195  17.978  0.00  0.00    +0.000 NA
ATOM     10  C   UNL     1      48.532   5.416  18.859  0.00  0.00    +0.000 A 
ATOM     11  N   UNL     1      47.624   4.427  18.583  0.00  0.00    +0.000 N 
ATOM     12  C   UNL     1      47.226   4.114  17.306  0.00  0.00    +0.000 A 
ATOM     13  O   UNL     1      46.534   3.127  17.081  0.00  0.00    +0.000 OA
ATOM     14  C   UNL     1      47.738   5.008  16.282  0.00  0.00    +0.000 A 
ATOM     15  H   UNL     1      47.279   3.824  19.316  0.00  0.00    +0.000 HD
ENDBRANCH   2   5
BRANCH   3  16
ATOM     16  C   UNL     1      44.366   4.247  12.874  0.00  0.00    +0.000 C 
BRANCH  16  17
ATOM     17  C   UNL     1      44.732   4.298  11.415  0.00  0.00    +0.000 A 
ATOM     18  C   UNL     1      45.454   5.387  10.910  0.00  0.00    +0.000 A 
ATOM     19  C   UNL     1      45.855   5.420   9.573  0.00  0.00    +0.000 A 
ATOM     20  C   UNL     1      45.531   4.367   8.707  0.00  0.00    +0.000 A 
ATOM     21  C   UNL     1      44.771   3.296   9.202  0.00  0.00    +0.000 A 
ATOM     22  C   UNL     1      44.368   3.267  10.541  0.00  0.00    +0.000 A 
BRANCH  20  23
ATOM     23  C   UNL     1      46.036   4.362   7.282  0.00  0.00    +0.000 C 
BRANCH  23  24
ATOM     24  C   UNL     1      46.537   3.013   6.837  0.00  0.00    +0.000 A 
ATOM     25  C   UNL     1      46.880   2.761   5.506  0.00  0.00    +0.000 A 
ATOM     26  C   UNL     1      47.273   1.481   5.124  0.00  0.00    +0.000 A 
ATOM     27  C   UNL     1      47.315   0.491   6.090  0.00  0.00    +0.000 A 
ATOM     28  N   UNL     1      47.010   0.697   7.388  0.00  0.00    +0.000 NA
ATOM     29  C   UNL     1      46.621   1.947   7.729  0.00  0.00    +0.000 A 
ENDBRANCH  23  24
ENDBRANCH  20  23
ENDBRANCH  16  17
ENDBRANCH   3  16
TORSDOF 5
ENDMDL
MODEL 6
REMARK VINA RESULT:    -7.603      3.898      5.560
REMARK INTER + INTRA:         -10.841
REMARK INTER:                 -10.014
REMARK INTRA:                  -0.827
REMARK UNBOUND:                -1.015
REMARK  Name = 
REMARK  5 active torsions:
REMARK  status: ('A' for Active; 'I' for Inactive)
REMARK    1  A    between atoms: C_2  and  C_18
REMARK    2  A    between atoms: N_3  and  C_4
REMARK    3  A    between atoms: C_4  and  C_5
REMARK    4  A    between atoms: C_8  and  C_9
REMARK    5  A    between atoms: C_9  and  C_10
REMARK                            x       y       z     vdW  Elec       q    Type
REMARK                         _______ _______ _______ _____ _____    ______ ____
ROOT
ATOM      1  O   UNL     1      48.704   6.146  13.867  0.00  0.00    +0.000 OA
ATOM      2  C   UNL     1      47.726   5.787  14.516  0.00  0.00    +0.000 C 
ATOM      3  N   UNL     1      46.442   5.989  14.084  0.00  0.00    +0.000 N 
ATOM      4  H   UNL     1      45.669   5.829  14.722  0.00  0.00    +0.000 HD
ENDROOT
BRANCH   2   5
ATOM      5  C   UNL     1      47.879   5.062  15.784  0.00  0.00    +0.000 A 
ATOM      6  C   UNL     1      47.401   3.763  15.895  0.00  0.00    +0.000 A 
ATOM      7  S   UNL     1      47.675   3.062  17.425  0.00  0.00    +0.000 S 
ATOM      8  C   UNL     1      48.476   4.458  17.981  0.00  0.00    +0.000 A 
ATOM      9  N   UNL     1      49.015   4.504  19.231  0.00  0.00    +0.000 NA
ATOM     10  C   UNL     1      49.629   5.606  19.504  0.00  0.00    +0.000 A 
ATOM     11  N   UNL     1      49.738   6.672  18.650  0.00  0.00    +0.000 N 
ATOM     12  C   UNL     1      49.137   6.704  17.415  0.00  0.00    +0.000 A 
ATOM     13  O   UNL     1      49.125   7.729  16.742  0.00  0.00    +0.000 OA
ATOM     14  C   UNL     1      48.494   5.461  17.029  0.00  0.00    +0.000 A 
ATOM     15  H   UNL     1      50.197   7.523  18.942  0.00  0.00    +0.000 HD
ENDBRANCH   2   5
BRANCH   3  16
ATOM     16  C   UNL     1      46.133   6.694  12.868  0.00  0.00    +0.000 C 
BRANCH  16  17
ATOM     17  C   UNL     1      45.803   5.753  11.741  0.00  0.00    +0.000 A 
ATOM     18  C   UNL     1      45.246   4.497  12.015  0.00  0.00    +0.000 A 
ATOM     19  C   UNL     1      44.877   3.638  10.977  0.00  0.00    +0.000 A 
ATOM     20  C   UNL     1      45.068   4.014   9.641  0.00  0.00    +0.000 A 
ATOM     21  C   UNL     1      45.664   5.253   9.368  0.00  0.00    +0.000 A 
ATOM     22  C   UNL     1      46.036   6.111  10.408  0.00  0.00    +0.000 A 
BRANCH  20  23
ATOM     23  C   UNL     1      44.591   3.120   8.518  0.00  0.00    +0.000 C 
BRANCH  23  24
ATOM     24  C   UNL     1      45.720   2.533   7.712  0.00  0.00    +0.000 A 
ATOM     25  C   UNL     1      46.208   3.166   6.565  0.00  0.00    +0.000 A 
ATOM     26  C   UNL     1      47.206   2.556   5.810  0.00  0.00    +0.000 A 
ATOM     27  C   UNL     1      47.689   1.328   6.229  0.00  0.00    +0.000 A 
ATOM     28  N   UNL     1      47.258   0.692   7.339  0.00  0.00    +0.000 NA
ATOM     29  C   UNL     1      46.281   1.304   8.047  0.00  0.00    +0.000 A 
ENDBRANCH  23  24
ENDBRANCH  20  23
ENDBRANCH  16  17
ENDBRANCH   3  16
TORSDOF 5
ENDMDL
MODEL 7
REMARK VINA RESULT:    -7.305      3.029      4.744
REMARK INTER + INTRA:         -10.455
REMARK INTER:                 -10.155
REMARK INTRA:                  -0.300
REMARK UNBOUND:                -1.015
REMARK  Name = 
REMARK  5 active torsions:
REMARK  status: ('A' for Active; 'I' for Inactive)
REMARK    1  A    between atoms: C_2  and  C_18
REMARK    2  A    between atoms: N_3  and  C_4
REMARK    3  A    between atoms: C_4  and  C_5
REMARK    4  A    between atoms: C_8  and  C_9
REMARK    5  A    between atoms: C_9  and  C_10
REMARK                            x       y       z     vdW  Elec       q    Type
REMARK                         _______ _______ _______ _____ _____    ______ ____
ROOT
ATOM      1  O   UNL     1      48.480   5.193  15.545  0.00  0.00    +0.000 OA
ATOM      2  C   UNL     1      48.212   6.135  14.804  0.00  0.00    +0.000 C 
ATOM      3  N   UNL     1      47.081   6.164  14.031  0.00  0.00    +0.000 N 
ATOM      4  H   UNL     1      46.983   6.877  13.316  0.00  0.00    +0.000 HD
ENDROOT
BRANCH   2   5
ATOM      5  C   UNL     1      49.071   7.324  14.744  0.00  0.00    +0.000 A 
ATOM      6  C   UNL     1      50.370   7.259  15.232  0.00  0.00    +0.000 A 
ATOM      7  S   UNL     1      51.234   8.720  15.071  0.00  0.00    +0.000 S 
ATOM      8  C   UNL     1      49.916   9.479  14.308  0.00  0.00    +0.000 A 
ATOM      9  N   UNL     1      50.010  10.762  13.860  0.00  0.00    +0.000 NA
ATOM     10  C   UNL     1      48.951  11.196  13.264  0.00  0.00    +0.000 A 
ATOM     11  N   UNL     1      47.800  10.472  13.091  0.00  0.00    +0.000 N 
ATOM     12  C   UNL     1      47.629   9.209  13.602  0.00  0.00    +0.000 A 
ATOM     13  O   UNL     1      46.537   8.652  13.563  0.00  0.00    +0.000 OA
ATOM     14  C   UNL     1      48.816   8.645  14.219  0.00  0.00    +0.000 A 
ATOM     15  H   UNL     1      46.991  10.887  12.652  0.00  0.00    +0.000 HD
ENDBRANCH   2   5
BRANCH   3  16
ATOM     16  C   UNL     1      46.150   5.069  13.976  0.00  0.00    +0.000 C 
BRANCH  16  17
ATOM     17  C   UNL     1      45.709   4.775  12.568  0.00  0.00    +0.000 A 
ATOM     18  C   UNL     1      45.933   5.712  11.551  0.00  0.00    +0.000 A 
ATOM     19  C   UNL     1      45.586   5.428  10.229  0.00  0.00    +0.000 A 
ATOM     20  C   UNL     1      44.995   4.202   9.896  0.00  0.00    +0.000 A 
ATOM     21  C   UNL     1      44.733   3.280  10.920  0.00  0.00    +0.000 A 
ATOM     22  C   UNL     1      45.078   3.567  12.244  0.00  0.00    +0.000 A 
BRANCH  20  23
ATOM     23  C   UNL     1      44.697   3.861   8.453  0.00  0.00    +0.000 C 
BRANCH  23  24
ATOM     24  C   UNL     1      45.742   2.974   7.829  0.00  0.00    +0.000 A 
ATOM     25  C   UNL     1      46.478   3.382   6.713  0.00  0.00    +0.000 A 
ATOM     26  C   UNL     1      47.386   2.505   6.125  0.00  0.00    +0.000 A 
ATOM     27  C   UNL     1      47.532   1.244   6.676  0.00  0.00    +0.000 A 
ATOM     28  N   UNL     1      46.854   0.817   7.762  0.00  0.00    +0.000 NA
ATOM     29  C   UNL     1      45.972   1.687   8.307  0.00  0.00    +0.000 A 
ENDBRANCH  23  24
ENDBRANCH  20  23
ENDBRANCH  16  17
ENDBRANCH   3  16
TORSDOF 5
ENDMDL
MODEL 8
REMARK VINA RESULT:    -7.215      4.553      6.645
REMARK INTER + INTRA:         -10.340
REMARK INTER:                  -9.497
REMARK INTRA:                  -0.843
REMARK UNBOUND:                -1.015
REMARK  Name = 
REMARK  5 active torsions:
REMARK  status: ('A' for Active; 'I' for Inactive)
REMARK    1  A    between atoms: C_2  and  C_18
REMARK    2  A    between atoms: N_3  and  C_4
REMARK    3  A    between atoms: C_4  and  C_5
REMARK    4  A    between atoms: C_8  and  C_9
REMARK    5  A    between atoms: C_9  and  C_10
REMARK                            x       y       z     vdW  Elec       q    Type
REMARK                         _______ _______ _______ _____ _____    ______ ____
ROOT
ATOM      1  O   UNL     1      49.759   7.122  15.643  0.00  0.00    +0.000 OA
ATOM      2  C   UNL     1      48.749   6.478  15.909  0.00  0.00    +0.000 C 
ATOM      3  N   UNL     1      47.714   6.332  15.023  0.00  0.00    +0.000 N 
ATOM      4  H   UNL     1      46.835   5.936  15.341  0.00  0.00    +0.000 HD
ENDROOT
BRANCH   2   5
ATOM      5  C   UNL     1      48.613   5.770  17.189  0.00  0.00    +0.000 A 
ATOM      6  C   UNL     1      48.880   4.408  17.253  0.00  0.00    +0.000 A 
ATOM      7  S   UNL     1      48.690   3.748  18.813  0.00  0.00    +0.000 S 
ATOM      8  C   UNL     1      48.282   5.266  19.465  0.00  0.00    +0.000 A 
ATOM      9  N   UNL     1      48.037   5.412  20.798  0.00  0.00    +0.000 NA
ATOM     10  C   UNL     1      47.782   6.624  21.160  0.00  0.00    +0.000 A 
ATOM     11  N   UNL     1      47.730   7.700  20.312  0.00  0.00    +0.000 N 
ATOM     12  C   UNL     1      47.884   7.585  18.952  0.00  0.00    +0.000 A 
ATOM     13  O   UNL     1      47.680   8.539  18.209  0.00  0.00    +0.000 OA
ATOM     14  C   UNL     1      48.245   6.254  18.498  0.00  0.00    +0.000 A 
ATOM     15  H   UNL     1      47.483   8.617  20.656  0.00  0.00    +0.000 HD
ENDBRANCH   2   5
BRANCH   3  16
ATOM     16  C   UNL     1      47.698   6.975  13.735  0.00  0.00    +0.000 C 
BRANCH  16  17
ATOM     17  C   UNL     1      46.787   6.271  12.766  0.00  0.00    +0.000 A 
ATOM     18  C   UNL     1      46.415   6.898  11.570  0.00  0.00    +0.000 A 
ATOM     19  C   UNL     1      45.621   6.233  10.633  0.00  0.00    +0.000 A 
ATOM     20  C   UNL     1      45.171   4.929  10.879  0.00  0.00    +0.000 A 
ATOM     21  C   UNL     1      45.508   4.318  12.095  0.00  0.00    +0.000 A 
ATOM     22  C   UNL     1      46.301   4.985  13.033  0.00  0.00    +0.000 A 
BRANCH  20  23
ATOM     23  C   UNL     1      44.382   4.180   9.829  0.00  0.00    +0.000 C 
BRANCH  23  24
ATOM     24  C   UNL     1      45.250   3.346   8.923  0.00  0.00    +0.000 A 
ATOM     25  C   UNL     1      45.959   3.914   7.861  0.00  0.00    +0.000 A 
ATOM     26  C   UNL     1      46.695   3.098   7.006  0.00  0.00    +0.000 A 
ATOM     27  C   UNL     1      46.701   1.735   7.243  0.00  0.00    +0.000 A 
ATOM     28  N   UNL     1      46.045   1.149   8.266  0.00  0.00    +0.000 NA
ATOM     29  C   UNL     1      45.331   1.965   9.075  0.00  0.00    +0.000 A 
ENDBRANCH  23  24
ENDBRANCH  20  23
ENDBRANCH  16  17
ENDBRANCH   3  16
TORSDOF 5
ENDMDL
MODEL 9
REMARK VINA RESULT:    -6.987      4.446      7.240
REMARK INTER + INTRA:         -10.045
REMARK INTER:                  -9.280
REMARK INTRA:                  -0.765
REMARK UNBOUND:                -1.015
REMARK  Name = 
REMARK  5 active torsions:
REMARK  status: ('A' for Active; 'I' for Inactive)
REMARK    1  A    between atoms: C_2  and  C_18
REMARK    2  A    between atoms: N_3  and  C_4
REMARK    3  A    between atoms: C_4  and  C_5
REMARK    4  A    between atoms: C_8  and  C_9
REMARK    5  A    between atoms: C_9  and  C_10
REMARK                            x       y       z     vdW  Elec       q    Type
REMARK                         _______ _______ _______ _____ _____    ______ ____
ROOT
ATOM      1  O   UNL     1      50.027   6.519  15.425  0.00  0.00    +0.000 OA
ATOM      2  C   UNL     1      49.035   7.044  15.922  0.00  0.00    +0.000 C 
ATOM      3  N   UNL     1      48.068   7.652  15.167  0.00  0.00    +0.000 N 
ATOM      4  H   UNL     1      47.356   8.214  15.623  0.00  0.00    +0.000 HD
ENDROOT
BRANCH   2   5
ATOM      5  C   UNL     1      48.798   7.002  17.371  0.00  0.00    +0.000 A 
ATOM      6  C   UNL     1      48.536   8.180  18.059  0.00  0.00    +0.000 A 
ATOM      7  S   UNL     1      48.269   7.951  19.728  0.00  0.00    +0.000 S 
ATOM      8  C   UNL     1      48.456   6.266  19.582  0.00  0.00    +0.000 A 
ATOM      9  N   UNL     1      48.301   5.448  20.661  0.00  0.00    +0.000 NA
ATOM     10  C   UNL     1      48.429   4.192  20.398  0.00  0.00    +0.000 A 
ATOM     11  N   UNL     1      48.715   3.677  19.160  0.00  0.00    +0.000 N 
ATOM     12  C   UNL     1      48.966   4.467  18.063  0.00  0.00    +0.000 A 
ATOM     13  O   UNL     1      49.370   3.981  17.012  0.00  0.00    +0.000 OA
ATOM     14  C   UNL     1      48.764   5.887  18.288  0.00  0.00    +0.000 A 
ATOM     15  H   UNL     1      48.844   2.684  19.030  0.00  0.00    +0.000 HD
ENDBRANCH   2   5
BRANCH   3  16
ATOM     16  C   UNL     1      48.166   7.781  13.737  0.00  0.00    +0.000 C 
BRANCH  16  17
ATOM     17  C   UNL     1      47.114   6.974  13.026  0.00  0.00    +0.000 A 
ATOM     18  C   UNL     1      46.242   7.595  12.123  0.00  0.00    +0.000 A 
ATOM     19  C   UNL     1      45.302   6.849  11.409  0.00  0.00    +0.000 A 
ATOM     20  C   UNL     1      45.206   5.463  11.593  0.00  0.00    +0.000 A 
ATOM     21  C   UNL     1      46.050   4.847  12.528  0.00  0.00    +0.000 A 
ATOM     22  C   UNL     1      46.989   5.596  13.244  0.00  0.00    +0.000 A 
BRANCH  20  23
ATOM     23  C   UNL     1      44.246   4.644  10.760  0.00  0.00    +0.000 C 
BRANCH  23  24
ATOM     24  C   UNL     1      44.923   3.909   9.632  0.00  0.00    +0.000 A 
ATOM     25  C   UNL     1      44.952   2.513   9.582  0.00  0.00    +0.000 A 
ATOM     26  C   UNL     1      45.648   1.872   8.559  0.00  0.00    +0.000 A 
ATOM     27  C   UNL     1      46.290   2.652   7.613  0.00  0.00    +0.000 A 
ATOM     28  N   UNL     1      46.270   4.002   7.616  0.00  0.00    +0.000 NA
ATOM     29  C   UNL     1      45.596   4.597   8.626  0.00  0.00    +0.000 A 
ENDBRANCH  23  24
ENDBRANCH  20  23
ENDBRANCH  16  17
ENDBRANCH   3  16
TORSDOF 5
ENDMDL
