MODEL 1
REMARK VINA RESULT:    -8.519      0.000      0.000
REMARK INTER + INTRA:         -12.350
REMARK INTER:                 -11.507
REMARK INTRA:                  -0.843
REMARK UNBOUND:                -0.843
REMARK  Name = 
REMARK  6 active torsions:
REMARK  status: ('A' for Active; 'I' for Inactive)
REMARK    1  A    between atoms: C_2  and  C_25
REMARK    2  A    between atoms: N_3  and  C_4
REMARK    3  A    between atoms: C_4  and  C_5
REMARK    4  A    between atoms: C_9  and  C_10
REMARK    5  A    between atoms: C_10  and  N_11
REMARK    6  A    between atoms: C_12  and  C_14
REMARK                            x       y       z     vdW  Elec       q    Type
REMARK                         _______ _______ _______ _____ _____    ______ ____
ROOT
ATOM      1  C   UNL     1      45.250   5.212  11.089  0.00  0.00    +0.000 A 
ATOM      2  C   UNL     1      45.917   6.441  11.015  0.00  0.00    +0.000 A 
ATOM      3  C   UNL     1      46.713   6.880  12.073  0.00  0.00    +0.000 A 
ATOM      4  C   UNL     1      46.822   6.112  13.233  0.00  0.00    +0.000 A 
ATOM      5  C   UNL     1      46.121   4.905  13.354  0.00  0.00    +0.000 A 
ATOM      6  C   UNL     1      45.363   4.448  12.263  0.00  0.00    +0.000 A 
ENDROOT
BRANCH   1   7
ATOM      7  C   UNL     1      44.406   4.739   9.936  0.00  0.00    +0.000 C 
BRANCH   7  10
ATOM      8  O   UNL     1      45.145   2.082   9.460  0.00  0.00    +0.000 OA
ATOM      9  C   UNL     1      45.499   2.950   8.666  0.00  0.00    +0.000 C 
ATOM     10  N   UNL     1      45.200   4.286   8.821  0.00  0.00    +0.000 N 
ATOM     11  H   UNL     1      45.543   4.940   8.123  0.00  0.00    +0.000 HD
BRANCH   9  12
ATOM     12  C   UNL     1      46.293   2.596   7.455  0.00  0.00    +0.000 A 
ATOM     13  C   UNL     1      46.995   1.399   7.422  0.00  0.00    +0.000 A 
ATOM     14  N   UNL     1      47.718   1.008   6.341  0.00  0.00    +0.000 NA
ATOM     15  C   UNL     1      47.704   1.868   5.297  0.00  0.00    +0.000 A 
ATOM     16  C   UNL     1      47.005   3.068   5.332  0.00  0.00    +0.000 A 
ATOM     17  N   UNL     1      46.283   3.469   6.407  0.00  0.00    +0.000 NA
ENDBRANCH   9  12
ENDBRANCH   7  10
ENDBRANCH   1   7
BRANCH   5  18
ATOM     18  C   UNL     1      46.165   4.130  14.646  0.00  0.00    +0.000 C 
BRANCH  18  19
ATOM     19  N   UNL     1      47.366   4.375  15.401  0.00  0.00    +0.000 N 
ATOM     20  C   UNL     1      47.477   3.912  16.691  0.00  0.00    +0.000 C 
ATOM     21  O   UNL     1      46.599   3.229  17.211  0.00  0.00    +0.000 OA
ATOM     22  H   UNL     1      47.966   5.132  15.089  0.00  0.00    +0.000 HD
BRANCH  20  23
ATOM     23  C   UNL     1      48.724   4.220  17.401  0.00  0.00    +0.000 A 
ATOM     24  C   UNL     1      48.836   5.412  18.104  0.00  0.00    +0.000 A 
ATOM     25  S   UNL     1      50.324   5.592  18.915  0.00  0.00    +0.000 S 
ATOM     26  C   UNL     1      50.894   4.107  18.314  0.00  0.00    +0.000 A 
ATOM     27  N   UNL     1      52.142   3.663  18.618  0.00  0.00    +0.000 NA
ATOM     28  C   UNL     1      52.455   2.535  18.072  0.00  0.00    +0.000 A 
ATOM     29  N   UNL     1      51.630   1.810  17.251  0.00  0.00    +0.000 N 
ATOM     30  C   UNL     1      50.354   2.210  16.930  0.00  0.00    +0.000 A 
ATOM     31  O   UNL     1      49.633   1.525  16.213  0.00  0.00    +0.000 OA
ATOM     32  C   UNL     1      49.955   3.474  17.517  0.00  0.00    +0.000 A 
ATOM     33  H   UNL     1      51.935   0.932  16.857  0.00  0.00    +0.000 HD
ENDBRANCH  20  23
ENDBRANCH  18  19
ENDBRANCH   5  18
TORSDOF 6
ENDMDL
MODEL 2
REMARK VINA RESULT:    -8.191      2.033      2.982
REMARK INTER + INTRA:         -11.908
REMARK INTER:                 -10.765
REMARK INTRA:                  -1.143
REMARK UNBOUND:                -0.843
REMARK  Name = 
REMARK  6 active torsions:
REMARK  status: ('A' for Active; 'I' for Inactive)
REMARK    1  A    between atoms: C_2  and  C_25
REMARK    2  A    between atoms: N_3  and  C_4
REMARK    3  A    between atoms: C_4  and  C_5
REMARK    4  A    between atoms: C_9  and  C_10
REMARK    5  A    between atoms: C_10  and  N_11
REMARK    6  A    between atoms: C_12  and  C_14
REMARK                            x       y       z     vdW  Elec       q    Type
REMARK                         _______ _______ _______ _____ _____    ______ ____
ROOT
ATOM      1  C   UNL     1      45.151   6.277  11.230  0.00  0.00    +0.000 A 
ATOM      2  C   UNL     1      44.425   7.458  11.432  0.00  0.00    +0.000 A 
ATOM      3  C   UNL     1      45.062   8.612  11.887  0.00  0.00    +0.000 A 
ATOM      4  C   UNL     1      46.425   8.589  12.182  0.00  0.00    +0.000 A 
ATOM      5  C   UNL     1      47.162   7.407  12.042  0.00  0.00    +0.000 A 
ATOM      6  C   UNL     1      46.523   6.264  11.535  0.00  0.00    +0.000 A 
ENDROOT
BRANCH   1   7
ATOM      7  C   UNL     1      44.459   5.041  10.722  0.00  0.00    +0.000 C 
BRANCH   7  10
ATOM      8  O   UNL     1      44.008   2.415   9.867  0.00  0.00    +0.000 OA
ATOM      9  C   UNL     1      44.915   3.062   9.350  0.00  0.00    +0.000 C 
ATOM     10  N   UNL     1      45.226   4.354   9.713  0.00  0.00    +0.000 N 
ATOM     11  H   UNL     1      46.001   4.813   9.242  0.00  0.00    +0.000 HD
BRANCH   9  12
ATOM     12  C   UNL     1      45.752   2.470   8.268  0.00  0.00    +0.000 A 
ATOM     13  C   UNL     1      46.116   3.251   7.179  0.00  0.00    +0.000 A 
ATOM     14  N   UNL     1      46.895   2.778   6.172  0.00  0.00    +0.000 NA
ATOM     15  C   UNL     1      47.292   1.493   6.306  0.00  0.00    +0.000 A 
ATOM     16  C   UNL     1      46.924   0.710   7.393  0.00  0.00    +0.000 A 
ATOM     17  N   UNL     1      46.145   1.170   8.402  0.00  0.00    +0.000 NA
ENDBRANCH   9  12
ENDBRANCH   7  10
ENDBRANCH   1   7
BRANCH   5  18
ATOM     18  C   UNL     1      48.610   7.364  12.456  0.00  0.00    +0.000 C 
BRANCH  18  19
ATOM     19  N   UNL     1      48.821   6.608  13.664  0.00  0.00    +0.000 N 
ATOM     20  C   UNL     1      48.839   7.243  14.882  0.00  0.00    +0.000 C 
ATOM     21  O   UNL     1      48.614   8.446  14.989  0.00  0.00    +0.000 OA
ATOM     22  H   UNL     1      49.252   5.693  13.571  0.00  0.00    +0.000 HD
BRANCH  20  23
ATOM     23  C   UNL     1      49.078   6.406  16.064  0.00  0.00    +0.000 A 
ATOM     24  C   UNL     1      50.082   6.756  16.959  0.00  0.00    +0.000 A 
ATOM     25  S   UNL     1      50.195   5.713  18.302  0.00  0.00    +0.000 S 
ATOM     26  C   UNL     1      48.943   4.726  17.711  0.00  0.00    +0.000 A 
ATOM     27  N   UNL     1      48.549   3.616  18.390  0.00  0.00    +0.000 NA
ATOM     28  C   UNL     1      47.609   2.944  17.812  0.00  0.00    +0.000 A 
ATOM     29  N   UNL     1      47.025   3.283  16.619  0.00  0.00    +0.000 N 
ATOM     30  C   UNL     1      47.378   4.406  15.907  0.00  0.00    +0.000 A 
ATOM     31  O   UNL     1      46.820   4.694  14.854  0.00  0.00    +0.000 OA
ATOM     32  C   UNL     1      48.434   5.194  16.512  0.00  0.00    +0.000 A 
ATOM     33  H   UNL     1      46.292   2.715  16.222  0.00  0.00    +0.000 HD
ENDBRANCH  20  23
ENDBRANCH  18  19
ENDBRANCH   5  18
TORSDOF 6
ENDMDL
MODEL 3
REMARK VINA RESULT:    -8.116      1.422      1.758
REMARK INTER + INTRA:         -11.806
REMARK INTER:                 -10.869
REMARK INTRA:                  -0.936
REMARK UNBOUND:                -0.843
REMARK  Name = 
REMARK  6 active torsions:
REMARK  status: ('A' for Active; 'I' for Inactive)
REMARK    1  A    between atoms: C_2  and  C_25
REMARK    2  A    between atoms: N_3  and  C_4
REMARK    3  A    between atoms: C_4  and  C_5
REMARK    4  A    between atoms: C_9  and  C_10
REMARK    5  A    between atoms: C_10  and  N_11
REMARK    6  A    between atoms: C_12  and  C_14
REMARK                            x       y       z     vdW  Elec       q    Type
REMARK                         _______ _______ _______ _____ _____    ______ ____
ROOT
ATOM      1  C   UNL     1      45.429   5.204  11.399  0.00  0.00    +0.000 A 
ATOM      2  C   UNL     1      45.808   6.551  11.442  0.00  0.00    +0.000 A 
ATOM      3  C   UNL     1      46.591   7.033  12.491  0.00  0.00    +0.000 A 
ATOM      4  C   UNL     1      46.972   6.181  13.529  0.00  0.00    +0.000 A 
ATOM      5  C   UNL     1      46.560   4.843  13.537  0.00  0.00    +0.000 A 
ATOM      6  C   UNL     1      45.814   4.356  12.451  0.00  0.00    +0.000 A 
ENDROOT
BRANCH   1   7
ATOM      7  C   UNL     1      44.598   4.689  10.254  0.00  0.00    +0.000 C 
BRANCH   7  10
ATOM      8  O   UNL     1      44.582   2.058   9.301  0.00  0.00    +0.000 OA
ATOM      9  C   UNL     1      45.313   2.884   8.759  0.00  0.00    +0.000 C 
ATOM     10  N   UNL     1      45.404   4.197   9.165  0.00  0.00    +0.000 N 
ATOM     11  H   UNL     1      46.044   4.811   8.669  0.00  0.00    +0.000 HD
BRANCH   9  12
ATOM     12  C   UNL     1      46.165   2.500   7.598  0.00  0.00    +0.000 A 
ATOM     13  C   UNL     1      46.904   1.325   7.649  0.00  0.00    +0.000 A 
ATOM     14  N   UNL     1      47.681   0.908   6.617  0.00  0.00    +0.000 NA
ATOM     15  C   UNL     1      47.684   1.718   5.534  0.00  0.00    +0.000 A 
ATOM     16  C   UNL     1      46.949   2.896   5.484  0.00  0.00    +0.000 A 
ATOM     17  N   UNL     1      46.172   3.323   6.510  0.00  0.00    +0.000 NA
ENDBRANCH   9  12
ENDBRANCH   7  10
ENDBRANCH   1   7
BRANCH   5  18
ATOM     18  C   UNL     1      46.892   3.955  14.708  0.00  0.00    +0.000 C 
BRANCH  18  19
ATOM     19  N   UNL     1      47.440   4.685  15.822  0.00  0.00    +0.000 N 
ATOM     20  C   UNL     1      47.216   4.254  17.108  0.00  0.00    +0.000 C 
ATOM     21  O   UNL     1      46.606   3.215  17.346  0.00  0.00    +0.000 OA
ATOM     22  H   UNL     1      47.711   5.650  15.658  0.00  0.00    +0.000 HD
BRANCH  20  23
ATOM     23  C   UNL     1      47.792   5.063  18.189  0.00  0.00    +0.000 A 
ATOM     24  C   UNL     1      46.950   5.768  19.039  0.00  0.00    +0.000 A 
ATOM     25  S   UNL     1      47.773   6.613  20.271  0.00  0.00    +0.000 S 
ATOM     26  C   UNL     1      49.286   6.109  19.681  0.00  0.00    +0.000 A 
ATOM     27  N   UNL     1      50.438   6.509  20.282  0.00  0.00    +0.000 NA
ATOM     28  C   UNL     1      51.514   6.076  19.713  0.00  0.00    +0.000 A 
ATOM     29  N   UNL     1      51.541   5.277  18.600  0.00  0.00    +0.000 N 
ATOM     30  C   UNL     1      50.403   4.833  17.969  0.00  0.00    +0.000 A 
ATOM     31  O   UNL     1      50.461   4.099  16.989  0.00  0.00    +0.000 OA
ATOM     32  C   UNL     1      49.166   5.295  18.568  0.00  0.00    +0.000 A 
ATOM     33  H   UNL     1      52.418   4.970  18.205  0.00  0.00    +0.000 HD
ENDBRANCH  20  23
ENDBRANCH  18  19
ENDBRANCH   5  18
TORSDOF 6
ENDMDL
MODEL 4
REMARK VINA RESULT:    -7.960      2.043      2.719
REMARK INTER + INTRA:         -11.596
REMARK INTER:                 -10.713
REMARK INTRA:                  -0.883
REMARK UNBOUND:                -0.843
REMARK  Name = 
REMARK  6 active torsions:
REMARK  status: ('A' for Active; 'I' for Inactive)
REMARK    1  A    between atoms: C_2  and  C_25
REMARK    2  A    between atoms: N_3  and  C_4
REMARK    3  A    between atoms: C_4  and  C_5
REMARK    4  A    between atoms: C_9  and  C_10
REMARK    5  A    between atoms: C_10  and  N_11
REMARK    6  A    between atoms: C_12  and  C_14
REMARK                            x       y       z     vdW  Elec       q    Type
REMARK                         _______ _______ _______ _____ _____    ______ ____
ROOT
ATOM      1  C   UNL     1      44.768   4.504  11.003  0.00  0.00    +0.000 A 
ATOM      2  C   UNL     1      44.780   3.403  11.869  0.00  0.00    +0.000 A 
ATOM      3  C   UNL     1      45.419   3.482  13.106  0.00  0.00    +0.000 A 
ATOM      4  C   UNL     1      46.086   4.650  13.476  0.00  0.00    +0.000 A 
ATOM      5  C   UNL     1      46.136   5.746  12.606  0.00  0.00    +0.000 A 
ATOM      6  C   UNL     1      45.446   5.674  11.384  0.00  0.00    +0.000 A 
ENDROOT
BRANCH   1   7
ATOM      7  C   UNL     1      44.062   4.416   9.677  0.00  0.00    +0.000 C 
BRANCH   7  10
ATOM      8  O   UNL     1      46.264   5.027   8.064  0.00  0.00    +0.000 OA
ATOM      9  C   UNL     1      45.796   3.892   8.027  0.00  0.00    +0.000 C 
ATOM     10  N   UNL     1      44.705   3.498   8.770  0.00  0.00    +0.000 N 
ATOM     11  H   UNL     1      44.374   2.542   8.670  0.00  0.00    +0.000 HD
BRANCH   9  12
ATOM     12  C   UNL     1      46.401   2.847   7.153  0.00  0.00    +0.000 A 
ATOM     13  C   UNL     1      46.650   1.582   7.670  0.00  0.00    +0.000 A 
ATOM     14  N   UNL     1      47.178   0.580   6.921  0.00  0.00    +0.000 NA
ATOM     15  C   UNL     1      47.444   0.902   5.634  0.00  0.00    +0.000 A 
ATOM     16  C   UNL     1      47.200   2.168   5.119  0.00  0.00    +0.000 A 
ATOM     17  N   UNL     1      46.675   3.176   5.858  0.00  0.00    +0.000 NA
ENDBRANCH   9  12
ENDBRANCH   7  10
ENDBRANCH   1   7
BRANCH   5  18
ATOM     18  C   UNL     1      46.940   6.967  12.970  0.00  0.00    +0.000 C 
BRANCH  18  19
ATOM     19  N   UNL     1      47.343   6.975  14.353  0.00  0.00    +0.000 N 
ATOM     20  C   UNL     1      48.677   6.942  14.684  0.00  0.00    +0.000 C 
ATOM     21  O   UNL     1      49.557   6.969  13.828  0.00  0.00    +0.000 OA
ATOM     22  H   UNL     1      46.651   6.699  15.042  0.00  0.00    +0.000 HD
BRANCH  20  23
ATOM     23  C   UNL     1      49.006   6.934  16.114  0.00  0.00    +0.000 A 
ATOM     24  C   UNL     1      49.551   8.070  16.698  0.00  0.00    +0.000 A 
ATOM     25  S   UNL     1      49.825   7.915  18.373  0.00  0.00    +0.000 S 
ATOM     26  C   UNL     1      49.276   6.305  18.369  0.00  0.00    +0.000 A 
ATOM     27  N   UNL     1      49.271   5.566  19.510  0.00  0.00    +0.000 NA
ATOM     28  C   UNL     1      48.857   4.352  19.357  0.00  0.00    +0.000 A 
ATOM     29  N   UNL     1      48.443   3.812  18.167  0.00  0.00    +0.000 N 
ATOM     30  C   UNL     1      48.414   4.526  16.992  0.00  0.00    +0.000 A 
ATOM     31  O   UNL     1      48.016   4.020  15.948  0.00  0.00    +0.000 OA
ATOM     32  C   UNL     1      48.874   5.896  17.109  0.00  0.00    +0.000 A 
ATOM     33  H   UNL     1      48.128   2.855  18.115  0.00  0.00    +0.000 HD
ENDBRANCH  20  23
ENDBRANCH  18  19
ENDBRANCH   5  18
TORSDOF 6
ENDMDL
MODEL 5
REMARK VINA RESULT:    -7.654      2.773      3.599
REMARK INTER + INTRA:         -11.181
REMARK INTER:                 -10.147
REMARK INTRA:                  -1.034
REMARK UNBOUND:                -0.843
REMARK  Name = 
REMARK  6 active torsions:
REMARK  status: ('A' for Active; 'I' for Inactive)
REMARK    1  A    between atoms: C_2  and  C_25
REMARK    2  A    between atoms: N_3  and  C_4
REMARK    3  A    between atoms: C_4  and  C_5
REMARK    4  A    between atoms: C_9  and  C_10
REMARK    5  A    between atoms: C_10  and  N_11
REMARK    6  A    between atoms: C_12  and  C_14
REMARK                            x       y       z     vdW  Elec       q    Type
REMARK                         _______ _______ _______ _____ _____    ______ ____
ROOT
ATOM      1  C   UNL     1      44.669   7.684  11.534  0.00  0.00    +0.000 A 
ATOM      2  C   UNL     1      44.142   8.939  11.202  0.00  0.00    +0.000 A 
ATOM      3  C   UNL     1      44.833  10.105  11.526  0.00  0.00    +0.000 A 
ATOM      4  C   UNL     1      46.041  10.034  12.222  0.00  0.00    +0.000 A 
ATOM      5  C   UNL     1      46.561   8.795  12.615  0.00  0.00    +0.000 A 
ATOM      6  C   UNL     1      45.884   7.623  12.238  0.00  0.00    +0.000 A 
ENDROOT
BRANCH   1   7
ATOM      7  C   UNL     1      43.925   6.429  11.165  0.00  0.00    +0.000 C 
BRANCH   7  10
ATOM      8  O   UNL     1      43.296   3.767  10.573  0.00  0.00    +0.000 OA
ATOM      9  C   UNL     1      44.287   4.275  10.055  0.00  0.00    +0.000 C 
ATOM     10  N   UNL     1      44.689   5.570  10.295  0.00  0.00    +0.000 N 
ATOM     11  H   UNL     1      45.530   5.907   9.833  0.00  0.00    +0.000 HD
BRANCH   9  12
ATOM     12  C   UNL     1      45.134   3.495   9.108  0.00  0.00    +0.000 A 
ATOM     13  C   UNL     1      45.261   2.122   9.274  0.00  0.00    +0.000 A 
ATOM     14  N   UNL     1      45.998   1.352   8.433  0.00  0.00    +0.000 NA
ATOM     15  C   UNL     1      46.600   2.018   7.421  0.00  0.00    +0.000 A 
ATOM     16  C   UNL     1      46.477   3.391   7.258  0.00  0.00    +0.000 A 
ATOM     17  N   UNL     1      45.746   4.170   8.093  0.00  0.00    +0.000 NA
ENDBRANCH   9  12
ENDBRANCH   7  10
ENDBRANCH   1   7
BRANCH   5  18
ATOM     18  C   UNL     1      47.814   8.729  13.450  0.00  0.00    +0.000 C 
BRANCH  18  19
ATOM     19  N   UNL     1      47.697   7.816  14.557  0.00  0.00    +0.000 N 
ATOM     20  C   UNL     1      48.284   6.574  14.493  0.00  0.00    +0.000 C 
ATOM     21  O   UNL     1      48.972   6.232  13.535  0.00  0.00    +0.000 OA
ATOM     22  H   UNL     1      46.943   7.978  15.217  0.00  0.00    +0.000 HD
BRANCH  20  23
ATOM     23  C   UNL     1      48.103   5.694  15.654  0.00  0.00    +0.000 A 
ATOM     24  C   UNL     1      47.392   4.510  15.510  0.00  0.00    +0.000 A 
ATOM     25  S   UNL     1      47.319   3.578  16.936  0.00  0.00    +0.000 S 
ATOM     26  C   UNL     1      48.191   4.748  17.810  0.00  0.00    +0.000 A 
ATOM     27  N   UNL     1      48.460   4.575  19.132  0.00  0.00    +0.000 NA
ATOM     28  C   UNL     1      49.104   5.554  19.677  0.00  0.00    +0.000 A 
ATOM     29  N   UNL     1      49.504   6.688  19.019  0.00  0.00    +0.000 N 
ATOM     30  C   UNL     1      49.270   6.898  17.680  0.00  0.00    +0.000 A 
ATOM     31  O   UNL     1      49.663   7.914  17.116  0.00  0.00    +0.000 OA
ATOM     32  C   UNL     1      48.546   5.829  17.021  0.00  0.00    +0.000 A 
ATOM     33  H   UNL     1      50.007   7.416  19.503  0.00  0.00    +0.000 HD
ENDBRANCH  20  23
ENDBRANCH  18  19
ENDBRANCH   5  18
TORSDOF 6
ENDMDL
MODEL 6
REMARK VINA RESULT:    -7.561      2.297      2.902
REMARK INTER + INTRA:         -11.057
REMARK INTER:                 -10.395
REMARK INTRA:                  -0.662
REMARK UNBOUND:                -0.843
REMARK  Name = 
REMARK  6 active torsions:
REMARK  status: ('A' for Active; 'I' for Inactive)
REMARK    1  A    between atoms: C_2  and  C_25
REMARK    2  A    between atoms: N_3  and  C_4
REMARK    3  A    between atoms: C_4  and  C_5
REMARK    4  A    between atoms: C_9  and  C_10
REMARK    5  A    between atoms: C_10  and  N_11
REMARK    6  A    between atoms: C_12  and  C_14
REMARK                            x       y       z     vdW  Elec       q    Type
REMARK                         _______ _______ _______ _____ _____    ______ ____
ROOT
ATOM      1  C   UNL     1      45.184   6.710  11.739  0.00  0.00    +0.000 A 
ATOM      2  C   UNL     1      44.808   8.058  11.793  0.00  0.00    +0.000 A 
ATOM      3  C   UNL     1      45.586   8.982  12.490  0.00  0.00    +0.000 A 
ATOM      4  C   UNL     1      46.728   8.563  13.172  0.00  0.00    +0.000 A 
ATOM      5  C   UNL     1      47.095   7.212  13.180  0.00  0.00    +0.000 A 
ATOM      6  C   UNL     1      46.334   6.297  12.433  0.00  0.00    +0.000 A 
ENDROOT
BRANCH   1   7
ATOM      7  C   UNL     1      44.347   5.722  10.971  0.00  0.00    +0.000 C 
BRANCH   7  10
ATOM      8  O   UNL     1      43.686   3.204   9.944  0.00  0.00    +0.000 OA
ATOM      9  C   UNL     1      44.694   3.771   9.529  0.00  0.00    +0.000 C 
ATOM     10  N   UNL     1      45.112   5.002   9.983  0.00  0.00    +0.000 N 
ATOM     11  H   UNL     1      45.966   5.394   9.594  0.00  0.00    +0.000 HD
BRANCH   9  12
ATOM     12  C   UNL     1      45.543   3.140   8.479  0.00  0.00    +0.000 A 
ATOM     13  C   UNL     1      45.908   1.806   8.603  0.00  0.00    +0.000 A 
ATOM     14  N   UNL     1      46.660   1.167   7.671  0.00  0.00    +0.000 NA
ATOM     15  C   UNL     1      47.030   1.923   6.612  0.00  0.00    +0.000 A 
ATOM     16  C   UNL     1      46.670   3.258   6.491  0.00  0.00    +0.000 A 
ATOM     17  N   UNL     1      45.921   3.907   7.416  0.00  0.00    +0.000 NA
ENDBRANCH   9  12
ENDBRANCH   7  10
ENDBRANCH   1   7
BRANCH   5  18
ATOM     18  C   UNL     1      48.273   6.751  13.999  0.00  0.00    +0.000 C 
BRANCH  18  19
ATOM     19  N   UNL     1      48.088   6.968  15.410  0.00  0.00    +0.000 N 
ATOM     20  C   UNL     1      49.061   6.584  16.302  0.00  0.00    +0.000 C 
ATOM     21  O   UNL     1      50.131   6.111  15.928  0.00  0.00    +0.000 OA
ATOM     22  H   UNL     1      47.138   7.111  15.739  0.00  0.00    +0.000 HD
BRANCH  20  23
ATOM     23  C   UNL     1      48.790   6.822  17.725  0.00  0.00    +0.000 A 
ATOM     24  C   UNL     1      48.575   8.119  18.173  0.00  0.00    +0.000 A 
ATOM     25  S   UNL     1      48.221   8.217  19.838  0.00  0.00    +0.000 S 
ATOM     26  C   UNL     1      48.393   6.536  20.030  0.00  0.00    +0.000 A 
ATOM     27  N   UNL     1      48.239   5.953  21.249  0.00  0.00    +0.000 NA
ATOM     28  C   UNL     1      48.427   4.675  21.255  0.00  0.00    +0.000 A 
ATOM     29  N   UNL     1      48.750   3.927  20.152  0.00  0.00    +0.000 N 
ATOM     30  C   UNL     1      48.898   4.470  18.898  0.00  0.00    +0.000 A 
ATOM     31  O   UNL     1      49.165   3.770  17.927  0.00  0.00    +0.000 OA
ATOM     32  C   UNL     1      48.702   5.905  18.837  0.00  0.00    +0.000 A 
ATOM     33  H   UNL     1      48.881   2.929  20.224  0.00  0.00    +0.000 HD
ENDBRANCH  20  23
ENDBRANCH  18  19
ENDBRANCH   5  18
TORSDOF 6
ENDMDL
MODEL 7
REMARK VINA RESULT:    -7.367      4.640      5.646
REMARK INTER + INTRA:         -10.794
REMARK INTER:                  -9.855
REMARK INTRA:                  -0.939
REMARK UNBOUND:                -0.843
REMARK  Name = 
REMARK  6 active torsions:
REMARK  status: ('A' for Active; 'I' for Inactive)
REMARK    1  A    between atoms: C_2  and  C_25
REMARK    2  A    between atoms: N_3  and  C_4
REMARK    3  A    between atoms: C_4  and  C_5
REMARK    4  A    between atoms: C_9  and  C_10
REMARK    5  A    between atoms: C_10  and  N_11
REMARK    6  A    between atoms: C_12  and  C_14
REMARK                            x       y       z     vdW  Elec       q    Type
REMARK                         _______ _______ _______ _____ _____    ______ ____
ROOT
ATOM      1  C   UNL     1      44.565   4.539  11.369  0.00  0.00    +0.000 A 
ATOM      2  C   UNL     1      45.357   3.689  12.151  0.00  0.00    +0.000 A 
ATOM      3  C   UNL     1      46.128   4.202  13.194  0.00  0.00    +0.000 A 
ATOM      4  C   UNL     1      46.145   5.574  13.444  0.00  0.00    +0.000 A 
ATOM      5  C   UNL     1      45.404   6.451  12.642  0.00  0.00    +0.000 A 
ATOM      6  C   UNL     1      44.592   5.920  11.626  0.00  0.00    +0.000 A 
ENDROOT
BRANCH   1   7
ATOM      7  C   UNL     1      43.723   3.975  10.255  0.00  0.00    +0.000 C 
BRANCH   7  10
ATOM      8  O   UNL     1      45.555   4.941   8.374  0.00  0.00    +0.000 OA
ATOM      9  C   UNL     1      45.377   3.729   8.464  0.00  0.00    +0.000 C 
ATOM     10  N   UNL     1      44.487   3.158   9.346  0.00  0.00    +0.000 N 
ATOM     11  H   UNL     1      44.392   2.146   9.346  0.00  0.00    +0.000 HD
BRANCH   9  12
ATOM     12  C   UNL     1      46.139   2.782   7.601  0.00  0.00    +0.000 A 
ATOM     13  C   UNL     1      46.572   3.194   6.348  0.00  0.00    +0.000 A 
ATOM     14  N   UNL     1      47.288   2.387   5.523  0.00  0.00    +0.000 NA
ATOM     15  C   UNL     1      47.552   1.153   6.011  0.00  0.00    +0.000 A 
ATOM     16  C   UNL     1      47.114   0.739   7.262  0.00  0.00    +0.000 A 
ATOM     17  N   UNL     1      46.396   1.535   8.092  0.00  0.00    +0.000 NA
ENDBRANCH   9  12
ENDBRANCH   7  10
ENDBRANCH   1   7
BRANCH   5  18
ATOM     18  C   UNL     1      45.504   7.940  12.854  0.00  0.00    +0.000 C 
BRANCH  18  19
ATOM     19  N   UNL     1      46.636   8.523  12.182  0.00  0.00    +0.000 N 
ATOM     20  C   UNL     1      47.635   9.127  12.908  0.00  0.00    +0.000 C 
ATOM     21  O   UNL     1      47.629   9.132  14.136  0.00  0.00    +0.000 OA
ATOM     22  H   UNL     1      46.528   8.748  11.197  0.00  0.00    +0.000 HD
BRANCH  20  23
ATOM     23  C   UNL     1      48.745   9.714  12.149  0.00  0.00    +0.000 A 
ATOM     24  C   UNL     1      48.723  11.068  11.841  0.00  0.00    +0.000 A 
ATOM     25  S   UNL     1      50.109  11.603  11.004  0.00  0.00    +0.000 S 
ATOM     26  C   UNL     1      50.764  10.034  10.976  0.00  0.00    +0.000 A 
ATOM     27  N   UNL     1      51.957   9.786  10.373  0.00  0.00    +0.000 NA
ATOM     28  C   UNL     1      52.321   8.547  10.401  0.00  0.00    +0.000 A 
ATOM     29  N   UNL     1      51.601   7.534  10.981  0.00  0.00    +0.000 N 
ATOM     30  C   UNL     1      50.400   7.740  11.617  0.00  0.00    +0.000 A 
ATOM     31  O   UNL     1      49.792   6.816  12.147  0.00  0.00    +0.000 OA
ATOM     32  C   UNL     1      49.944   9.116  11.611  0.00  0.00    +0.000 A 
ATOM     33  H   UNL     1      51.943   6.585  10.970  0.00  0.00    +0.000 HD
ENDBRANCH  20  23
ENDBRANCH  18  19
ENDBRANCH   5  18
TORSDOF 6
ENDMDL
MODEL 8
REMARK VINA RESULT:    -7.313      3.619     10.064
REMARK INTER + INTRA:         -10.721
REMARK INTER:                  -9.753
REMARK INTRA:                  -0.968
REMARK UNBOUND:                -0.843
REMARK  Name = 
REMARK  6 active torsions:
REMARK  status: ('A' for Active; 'I' for Inactive)
REMARK    1  A    between atoms: C_2  and  C_25
REMARK    2  A    between atoms: N_3  and  C_4
REMARK    3  A    between atoms: C_4  and  C_5
REMARK    4  A    between atoms: C_9  and  C_10
REMARK    5  A    between atoms: C_10  and  N_11
REMARK    6  A    between atoms: C_12  and  C_14
REMARK                            x       y       z     vdW  Elec       q    Type
REMARK                         _______ _______ _______ _____ _____    ______ ____
ROOT
ATOM      1  C   UNL     1      51.418   3.129  17.724  0.00  0.00    +0.000 A 
ATOM      2  C   UNL     1      50.681   1.958  17.507  0.00  0.00    +0.000 A 
ATOM      3  C   UNL     1      49.370   2.023  17.035  0.00  0.00    +0.000 A 
ATOM      4  C   UNL     1      48.767   3.261  16.811  0.00  0.00    +0.000 A 
ATOM      5  C   UNL     1      49.463   4.447  17.073  0.00  0.00    +0.000 A 
ATOM      6  C   UNL     1      50.800   4.371  17.499  0.00  0.00    +0.000 A 
ENDROOT
BRANCH   1   7
ATOM      7  C   UNL     1      52.837   3.049  18.217  0.00  0.00    +0.000 C 
BRANCH   7  10
ATOM      8  O   UNL     1      55.024   1.591  17.256  0.00  0.00    +0.000 OA
ATOM      9  C   UNL     1      54.307   1.090  18.118  0.00  0.00    +0.000 C 
ATOM     10  N   UNL     1      53.200   1.720  18.642  0.00  0.00    +0.000 N 
ATOM     11  H   UNL     1      52.653   1.228  19.344  0.00  0.00    +0.000 HD
BRANCH   9  12
ATOM     12  C   UNL     1      54.605  -0.265  18.663  0.00  0.00    +0.000 A 
ATOM     13  C   UNL     1      54.664  -1.352  17.800  0.00  0.00    +0.000 A 
ATOM     14  N   UNL     1      54.952  -2.608  18.229  0.00  0.00    +0.000 NA
ATOM     15  C   UNL     1      55.180  -2.724  19.558  0.00  0.00    +0.000 A 
ATOM     16  C   UNL     1      55.116  -1.638  20.421  0.00  0.00    +0.000 A 
ATOM     17  N   UNL     1      54.826  -0.381  20.004  0.00  0.00    +0.000 NA
ENDBRANCH   9  12
ENDBRANCH   7  10
ENDBRANCH   1   7
BRANCH   5  18
ATOM     18  C   UNL     1      48.774   5.779  16.923  0.00  0.00    +0.000 C 
BRANCH  18  19
ATOM     19  N   UNL     1      47.793   5.783  15.869  0.00  0.00    +0.000 N 
ATOM     20  C   UNL     1      48.129   6.233  14.614  0.00  0.00    +0.000 C 
ATOM     21  O   UNL     1      49.274   6.580  14.336  0.00  0.00    +0.000 OA
ATOM     22  H   UNL     1      46.816   5.747  16.142  0.00  0.00    +0.000 HD
BRANCH  20  23
ATOM     23  C   UNL     1      47.069   6.223  13.599  0.00  0.00    +0.000 A 
ATOM     24  C   UNL     1      46.621   7.424  13.066  0.00  0.00    +0.000 A 
ATOM     25  S   UNL     1      45.427   7.236  11.863  0.00  0.00    +0.000 S 
ATOM     26  C   UNL     1      45.429   5.546  12.049  0.00  0.00    +0.000 A 
ATOM     27  N   UNL     1      44.596   4.761  11.313  0.00  0.00    +0.000 NA
ATOM     28  C   UNL     1      44.682   3.500  11.577  0.00  0.00    +0.000 A 
ATOM     29  N   UNL     1      45.527   2.951  12.507  0.00  0.00    +0.000 N 
ATOM     30  C   UNL     1      46.398   3.702  13.260  0.00  0.00    +0.000 A 
ATOM     31  O   UNL     1      47.159   3.178  14.067  0.00  0.00    +0.000 OA
ATOM     32  C   UNL     1      46.339   5.128  13.005  0.00  0.00    +0.000 A 
ATOM     33  H   UNL     1      45.547   1.955  12.663  0.00  0.00    +0.000 HD
ENDBRANCH  20  23
ENDBRANCH  18  19
ENDBRANCH   5  18
TORSDOF 6
ENDMDL
MODEL 9
REMARK VINA RESULT:    -7.300      4.345      8.527
REMARK INTER + INTRA:         -10.704
REMARK INTER:                  -9.304
REMARK INTRA:                  -1.400
REMARK UNBOUND:                -0.843
REMARK  Name = 
REMARK  6 active torsions:
REMARK  status: ('A' for Active; 'I' for Inactive)
REMARK    1  A    between atoms: C_2  and  C_25
REMARK    2  A    between atoms: N_3  and  C_4
REMARK    3  A    between atoms: C_4  and  C_5
REMARK    4  A    between atoms: C_9  and  C_10
REMARK    5  A    between atoms: C_10  and  N_11
REMARK    6  A    between atoms: C_12  and  C_14
REMARK                            x       y       z     vdW  Elec       q    Type
REMARK                         _______ _______ _______ _____ _____    ______ ____
ROOT
ATOM      1  C   UNL     1      50.631   5.378  17.362  0.00  0.00    +0.000 A 
ATOM      2  C   UNL     1      51.450   4.312  17.755  0.00  0.00    +0.000 A 
ATOM      3  C   UNL     1      50.974   3.002  17.717  0.00  0.00    +0.000 A 
ATOM      4  C   UNL     1      49.661   2.745  17.322  0.00  0.00    +0.000 A 
ATOM      5  C   UNL     1      48.804   3.798  16.976  0.00  0.00    +0.000 A 
ATOM      6  C   UNL     1      49.309   5.109  16.969  0.00  0.00    +0.000 A 
ENDROOT
BRANCH   1   7
ATOM      7  C   UNL     1      51.158   6.787  17.390  0.00  0.00    +0.000 C 
BRANCH   7  10
ATOM      8  O   UNL     1      52.217   7.572  14.921  0.00  0.00    +0.000 OA
ATOM      9  C   UNL     1      51.096   7.961  15.239  0.00  0.00    +0.000 C 
ATOM     10  N   UNL     1      50.495   7.643  16.437  0.00  0.00    +0.000 N 
ATOM     11  H   UNL     1      49.569   8.018  16.626  0.00  0.00    +0.000 HD
BRANCH   9  12
ATOM     12  C   UNL     1      50.299   8.821  14.318  0.00  0.00    +0.000 A 
ATOM     13  C   UNL     1      50.296   8.547  12.957  0.00  0.00    +0.000 A 
ATOM     14  N   UNL     1      49.574   9.277  12.069  0.00  0.00    +0.000 NA
ATOM     15  C   UNL     1      48.856  10.291  12.605  0.00  0.00    +0.000 A 
ATOM     16  C   UNL     1      48.863  10.568  13.966  0.00  0.00    +0.000 A 
ATOM     17  N   UNL     1      49.583   9.847  14.861  0.00  0.00    +0.000 NA
ENDBRANCH   9  12
ENDBRANCH   7  10
ENDBRANCH   1   7
BRANCH   5  18
ATOM     18  C   UNL     1      47.360   3.522  16.646  0.00  0.00    +0.000 C 
BRANCH  18  19
ATOM     19  N   UNL     1      46.803   4.491  15.737  0.00  0.00    +0.000 N 
ATOM     20  C   UNL     1      46.837   4.266  14.382  0.00  0.00    +0.000 C 
ATOM     21  O   UNL     1      47.277   3.221  13.909  0.00  0.00    +0.000 OA
ATOM     22  H   UNL     1      46.680   5.438  16.084  0.00  0.00    +0.000 HD
BRANCH  20  23
ATOM     23  C   UNL     1      46.267   5.310  13.521  0.00  0.00    +0.000 A 
ATOM     24  C   UNL     1      46.998   6.463  13.267  0.00  0.00    +0.000 A 
ATOM     25  S   UNL     1      46.218   7.548  12.208  0.00  0.00    +0.000 S 
ATOM     26  C   UNL     1      44.852   6.541  12.094  0.00  0.00    +0.000 A 
ATOM     27  N   UNL     1      43.779   6.903  11.342  0.00  0.00    +0.000 NA
ATOM     28  C   UNL     1      42.801   6.059  11.369  0.00  0.00    +0.000 A 
ATOM     29  N   UNL     1      42.802   4.884  12.075  0.00  0.00    +0.000 N 
ATOM     30  C   UNL     1      43.871   4.468  12.833  0.00  0.00    +0.000 A 
ATOM     31  O   UNL     1      43.850   3.400  13.435  0.00  0.00    +0.000 OA
ATOM     32  C   UNL     1      44.995   5.384  12.841  0.00  0.00    +0.000 A 
ATOM     33  H   UNL     1      42.005   4.266  12.051  0.00  0.00    +0.000 HD
ENDBRANCH  20  23
ENDBRANCH  18  19
ENDBRANCH   5  18
TORSDOF 6
ENDMDL
