MODEL 1
REMARK VINA RESULT:    -8.656      0.000      0.000
REMARK INTER + INTRA:         -13.323
REMARK INTER:                 -12.198
REMARK INTRA:                  -1.125
REMARK UNBOUND:                -1.125
REMARK  Name = 
REMARK  9 active torsions:
REMARK  status: ('A' for Active; 'I' for Inactive)
REMARK    1  A    between atoms: C_1  and  C_2
REMARK    2  A    between atoms: C_2  and  C_3
REMARK    3  A    between atoms: C_2  and  C_4
REMARK    4  A    between atoms: C_2  and  C_15
REMARK    5  A    between atoms: C_4  and  O_5
REMARK    6  A    between atoms: O_5  and  C_6
REMARK    7  A    between atoms: C_9  and  C_10
REMARK    8  A    between atoms: C_20  and  O_21
REMARK    9  A    between atoms: O_21  and  C_22
REMARK                            x       y       z     vdW  Elec       q    Type
REMARK                         _______ _______ _______ _____ _____    ______ ____
ROOT
ATOM      1  C   UNL     1      42.921   5.236  12.821  0.00  0.00    +0.000 C 
ATOM      2  C   UNL     1      44.003   4.426  12.070  0.00  0.00    +0.000 C 
ATOM      3  C   UNL     1      43.876   2.960  12.548  0.00  0.00    +0.000 C 
ENDROOT
BRANCH   2   4
ATOM      4  C   UNL     1      45.382   5.058  12.365  0.00  0.00    +0.000 A 
ATOM      5  C   UNL     1      45.953   5.969  11.453  0.00  0.00    +0.000 A 
ATOM      6  C   UNL     1      47.157   6.619  11.733  0.00  0.00    +0.000 A 
ATOM      7  C   UNL     1      47.825   6.360  12.924  0.00  0.00    +0.000 A 
ATOM      8  F   UNL     1      48.956   7.035  13.172  0.00  0.00    +0.000 F 
ATOM      9  C   UNL     1      47.315   5.436  13.829  0.00  0.00    +0.000 A 
ATOM     10  C   UNL     1      46.099   4.797  13.547  0.00  0.00    +0.000 A 
BRANCH   9  11
ATOM     11  O   UNL     1      47.874   5.098  15.038  0.00  0.00    +0.000 OA
BRANCH  11  12
ATOM     12  C   UNL     1      47.207   4.121  15.869  0.00  0.00    +0.000 C 
ATOM     13  C   UNL     1      47.155   4.371  17.383  0.00  0.00    +0.000 C 
ATOM     14  O   UNL     1      47.789   3.101  17.666  0.00  0.00    +0.000 OA
ATOM     15  C   UNL     1      48.065   2.908  16.259  0.00  0.00    +0.000 C 
ENDBRANCH  11  12
ENDBRANCH   9  11
ENDBRANCH   2   4
BRANCH   2  16
ATOM     16  C   UNL     1      43.728   4.463  10.540  0.00  0.00    +0.000 C 
BRANCH  16  17
ATOM     17  O   UNL     1      43.615   3.138   9.997  0.00  0.00    +0.000 OA
BRANCH  17  18
ATOM     18  C   UNL     1      44.633   2.846   9.112  0.00  0.00    +0.000 A 
ATOM     19  C   UNL     1      45.125   3.887   8.340  0.00  0.00    +0.000 A 
ATOM     20  C   UNL     1      46.170   3.616   7.454  0.00  0.00    +0.000 A 
ATOM     21  C   UNL     1      46.691   2.321   7.368  0.00  0.00    +0.000 A 
ATOM     22  C   UNL     1      46.121   1.352   8.180  0.00  0.00    +0.000 A 
ATOM     23  N   UNL     1      45.107   1.585   9.047  0.00  0.00    +0.000 NA
BRANCH  21  24
ATOM     24  C   UNL     1      47.809   2.040   6.437  0.00  0.00    +0.000 C 
ATOM     25  N   UNL     1      48.870   2.906   6.394  0.00  0.00    +0.000 N 
ATOM     26  O   UNL     1      47.791   1.057   5.706  0.00  0.00    +0.000 OA
ATOM     27  H   UNL     1      48.986   3.747   6.933  0.00  0.00    +0.000 HD
ATOM     28  H   UNL     1      49.604   2.679   5.735  0.00  0.00    +0.000 HD
ENDBRANCH  21  24
ENDBRANCH  17  18
ENDBRANCH  16  17
ENDBRANCH   2  16
TORSDOF 7
ENDMDL
MODEL 2
REMARK VINA RESULT:    -7.374      2.064      3.600
REMARK INTER + INTRA:         -11.517
REMARK INTER:                 -10.526
REMARK INTRA:                  -0.990
REMARK UNBOUND:                -1.125
REMARK  Name = 
REMARK  9 active torsions:
REMARK  status: ('A' for Active; 'I' for Inactive)
REMARK    1  A    between atoms: C_1  and  C_2
REMARK    2  A    between atoms: C_2  and  C_3
REMARK    3  A    between atoms: C_2  and  C_4
REMARK    4  A    between atoms: C_2  and  C_15
REMARK    5  A    between atoms: C_4  and  O_5
REMARK    6  A    between atoms: O_5  and  C_6
REMARK    7  A    between atoms: C_9  and  C_10
REMARK    8  A    between atoms: C_20  and  O_21
REMARK    9  A    between atoms: O_21  and  C_22
REMARK                            x       y       z     vdW  Elec       q    Type
REMARK                         _______ _______ _______ _____ _____    ______ ____
ROOT
ATOM      1  C   UNL     1      43.646   5.700  10.976  0.00  0.00    +0.000 C 
ATOM      2  C   UNL     1      44.218   4.718  12.026  0.00  0.00    +0.000 C 
ATOM      3  C   UNL     1      43.111   4.502  13.085  0.00  0.00    +0.000 C 
ENDROOT
BRANCH   2   4
ATOM      4  C   UNL     1      45.520   5.321  12.602  0.00  0.00    +0.000 A 
ATOM      5  C   UNL     1      46.067   4.815  13.798  0.00  0.00    +0.000 A 
ATOM      6  C   UNL     1      47.285   5.284  14.295  0.00  0.00    +0.000 A 
ATOM      7  C   UNL     1      47.974   6.281  13.617  0.00  0.00    +0.000 A 
ATOM      8  F   UNL     1      49.159   6.674  14.105  0.00  0.00    +0.000 F 
ATOM      9  C   UNL     1      47.446   6.835  12.456  0.00  0.00    +0.000 A 
ATOM     10  C   UNL     1      46.229   6.351  11.956  0.00  0.00    +0.000 A 
BRANCH   9  11
ATOM     11  O   UNL     1      48.029   7.818  11.693  0.00  0.00    +0.000 OA
BRANCH  11  12
ATOM     12  C   UNL     1      48.057   9.172  12.198  0.00  0.00    +0.000 C 
ATOM     13  C   UNL     1      46.773  10.009  12.101  0.00  0.00    +0.000 C 
ATOM     14  O   UNL     1      47.447  11.051  11.355  0.00  0.00    +0.000 OA
ATOM     15  C   UNL     1      48.621  10.216  11.223  0.00  0.00    +0.000 C 
ENDBRANCH  11  12
ENDBRANCH   9  11
ENDBRANCH   2   4
BRANCH   2  16
ATOM     16  C   UNL     1      44.528   3.348  11.359  0.00  0.00    +0.000 C 
BRANCH  16  17
ATOM     17  O   UNL     1      43.989   3.282  10.029  0.00  0.00    +0.000 OA
BRANCH  17  18
ATOM     18  C   UNL     1      44.946   2.946   9.093  0.00  0.00    +0.000 A 
ATOM     19  C   UNL     1      45.452   3.966   8.303  0.00  0.00    +0.000 A 
ATOM     20  C   UNL     1      46.438   3.649   7.366  0.00  0.00    +0.000 A 
ATOM     21  C   UNL     1      46.887   2.329   7.248  0.00  0.00    +0.000 A 
ATOM     22  C   UNL     1      46.308   1.384   8.082  0.00  0.00    +0.000 A 
ATOM     23  N   UNL     1      45.352   1.663   8.999  0.00  0.00    +0.000 NA
BRANCH  21  24
ATOM     24  C   UNL     1      47.942   1.998   6.262  0.00  0.00    +0.000 C 
ATOM     25  N   UNL     1      49.032   2.821   6.155  0.00  0.00    +0.000 N 
ATOM     26  O   UNL     1      47.848   1.012   5.541  0.00  0.00    +0.000 OA
ATOM     27  H   UNL     1      49.209   3.661   6.680  0.00  0.00    +0.000 HD
ATOM     28  H   UNL     1      49.721   2.562   5.460  0.00  0.00    +0.000 HD
ENDBRANCH  21  24
ENDBRANCH  17  18
ENDBRANCH  16  17
ENDBRANCH   2  16
TORSDOF 7
ENDMDL
MODEL 3
REMARK VINA RESULT:    -7.102      3.026      4.618
REMARK INTER + INTRA:         -11.133
REMARK INTER:                 -10.266
REMARK INTRA:                  -0.867
REMARK UNBOUND:                -1.125
REMARK  Name = 
REMARK  9 active torsions:
REMARK  status: ('A' for Active; 'I' for Inactive)
REMARK    1  A    between atoms: C_1  and  C_2
REMARK    2  A    between atoms: C_2  and  C_3
REMARK    3  A    between atoms: C_2  and  C_4
REMARK    4  A    between atoms: C_2  and  C_15
REMARK    5  A    between atoms: C_4  and  O_5
REMARK    6  A    between atoms: O_5  and  C_6
REMARK    7  A    between atoms: C_9  and  C_10
REMARK    8  A    between atoms: C_20  and  O_21
REMARK    9  A    between atoms: O_21  and  C_22
REMARK                            x       y       z     vdW  Elec       q    Type
REMARK                         _______ _______ _______ _____ _____    ______ ____
ROOT
ATOM      1  C   UNL     1      42.910   4.910  13.103  0.00  0.00    +0.000 C 
ATOM      2  C   UNL     1      44.132   4.611  12.203  0.00  0.00    +0.000 C 
ATOM      3  C   UNL     1      44.810   3.343  12.776  0.00  0.00    +0.000 C 
ENDROOT
BRANCH   2   4
ATOM      4  C   UNL     1      45.048   5.855  12.192  0.00  0.00    +0.000 A 
ATOM      5  C   UNL     1      46.449   5.703  12.160  0.00  0.00    +0.000 A 
ATOM      6  C   UNL     1      47.298   6.809  12.066  0.00  0.00    +0.000 A 
ATOM      7  C   UNL     1      46.765   8.091  12.018  0.00  0.00    +0.000 A 
ATOM      8  F   UNL     1      47.611   9.121  11.886  0.00  0.00    +0.000 F 
ATOM      9  C   UNL     1      45.390   8.283  12.090  0.00  0.00    +0.000 A 
ATOM     10  C   UNL     1      44.543   7.168  12.172  0.00  0.00    +0.000 A 
BRANCH   9  11
ATOM     11  O   UNL     1      44.741   9.494  12.047  0.00  0.00    +0.000 OA
BRANCH  11  12
ATOM     12  C   UNL     1      44.120   9.912  10.811  0.00  0.00    +0.000 C 
ATOM     13  C   UNL     1      44.586  11.228  10.173  0.00  0.00    +0.000 C 
ATOM     14  O   UNL     1      43.241  11.766  10.178  0.00  0.00    +0.000 OA
ATOM     15  C   UNL     1      42.782  10.648  10.974  0.00  0.00    +0.000 C 
ENDBRANCH  11  12
ENDBRANCH   9  11
ENDBRANCH   2   4
BRANCH   2  16
ATOM     16  C   UNL     1      43.661   4.297  10.755  0.00  0.00    +0.000 C 
BRANCH  16  17
ATOM     17  O   UNL     1      44.439   5.017   9.785  0.00  0.00    +0.000 OA
BRANCH  17  18
ATOM     18  C   UNL     1      45.204   4.178   9.000  0.00  0.00    +0.000 A 
ATOM     19  C   UNL     1      45.078   2.815   9.213  0.00  0.00    +0.000 A 
ATOM     20  C   UNL     1      45.827   1.949   8.413  0.00  0.00    +0.000 A 
ATOM     21  C   UNL     1      46.673   2.469   7.427  0.00  0.00    +0.000 A 
ATOM     22  C   UNL     1      46.730   3.849   7.303  0.00  0.00    +0.000 A 
ATOM     23  N   UNL     1      46.016   4.712   8.065  0.00  0.00    +0.000 NA
BRANCH  21  24
ATOM     24  C   UNL     1      47.456   1.547   6.571  0.00  0.00    +0.000 C 
ATOM     25  N   UNL     1      48.621   1.994   6.007  0.00  0.00    +0.000 N 
ATOM     26  O   UNL     1      47.072   0.403   6.358  0.00  0.00    +0.000 OA
ATOM     27  H   UNL     1      49.024   2.911   6.098  0.00  0.00    +0.000 HD
ATOM     28  H   UNL     1      49.115   1.333   5.420  0.00  0.00    +0.000 HD
ENDBRANCH  21  24
ENDBRANCH  17  18
ENDBRANCH  16  17
ENDBRANCH   2  16
TORSDOF 7
ENDMDL
MODEL 4
REMARK VINA RESULT:    -6.788      2.620      3.726
REMARK INTER + INTRA:         -10.691
REMARK INTER:                  -9.781
REMARK INTRA:                  -0.910
REMARK UNBOUND:                -1.125
REMARK  Name = 
REMARK  9 active torsions:
REMARK  status: ('A' for Active; 'I' for Inactive)
REMARK    1  A    between atoms: C_1  and  C_2
REMARK    2  A    between atoms: C_2  and  C_3
REMARK    3  A    between atoms: C_2  and  C_4
REMARK    4  A    between atoms: C_2  and  C_15
REMARK    5  A    between atoms: C_4  and  O_5
REMARK    6  A    between atoms: O_5  and  C_6
REMARK    7  A    between atoms: C_9  and  C_10
REMARK    8  A    between atoms: C_20  and  O_21
REMARK    9  A    between atoms: O_21  and  C_22
REMARK                            x       y       z     vdW  Elec       q    Type
REMARK                         _______ _______ _______ _____ _____    ______ ____
ROOT
ATOM      1  C   UNL     1      43.206   4.932  13.160  0.00  0.00    +0.000 C 
ATOM      2  C   UNL     1      44.372   4.842  12.148  0.00  0.00    +0.000 C 
ATOM      3  C   UNL     1      45.332   3.745  12.669  0.00  0.00    +0.000 C 
ENDROOT
BRANCH   2   4
ATOM      4  C   UNL     1      45.028   6.236  12.030  0.00  0.00    +0.000 A 
ATOM      5  C   UNL     1      44.238   7.369  11.744  0.00  0.00    +0.000 A 
ATOM      6  C   UNL     1      44.791   8.651  11.715  0.00  0.00    +0.000 A 
ATOM      7  C   UNL     1      46.148   8.828  11.954  0.00  0.00    +0.000 A 
ATOM      8  F   UNL     1      46.630  10.078  11.957  0.00  0.00    +0.000 F 
ATOM      9  C   UNL     1      46.967   7.731  12.197  0.00  0.00    +0.000 A 
ATOM     10  C   UNL     1      46.403   6.448  12.238  0.00  0.00    +0.000 A 
BRANCH   9  11
ATOM     11  O   UNL     1      48.316   7.773  12.454  0.00  0.00    +0.000 OA
BRANCH  11  12
ATOM     12  C   UNL     1      49.212   8.226  11.413  0.00  0.00    +0.000 C 
ATOM     13  C   UNL     1      50.636   7.652  11.382  0.00  0.00    +0.000 C 
ATOM     14  O   UNL     1      51.225   8.972  11.451  0.00  0.00    +0.000 OA
ATOM     15  C   UNL     1      49.926   9.554  11.704  0.00  0.00    +0.000 C 
ENDBRANCH  11  12
ENDBRANCH   9  11
ENDBRANCH   2   4
BRANCH   2  16
ATOM     16  C   UNL     1      43.835   4.398  10.758  0.00  0.00    +0.000 C 
BRANCH  16  17
ATOM     17  O   UNL     1      44.557   5.036   9.692  0.00  0.00    +0.000 OA
BRANCH  17  18
ATOM     18  C   UNL     1      45.271   4.134   8.930  0.00  0.00    +0.000 A 
ATOM     19  C   UNL     1      45.070   2.787   9.181  0.00  0.00    +0.000 A 
ATOM     20  C   UNL     1      45.767   1.858   8.405  0.00  0.00    +0.000 A 
ATOM     21  C   UNL     1      46.639   2.302   7.404  0.00  0.00    +0.000 A 
ATOM     22  C   UNL     1      46.772   3.673   7.241  0.00  0.00    +0.000 A 
ATOM     23  N   UNL     1      46.110   4.595   7.979  0.00  0.00    +0.000 NA
BRANCH  21  24
ATOM     24  C   UNL     1      47.366   1.315   6.573  0.00  0.00    +0.000 C 
ATOM     25  N   UNL     1      48.348   1.756   5.725  0.00  0.00    +0.000 N 
ATOM     26  O   UNL     1      47.096   0.121   6.628  0.00  0.00    +0.000 OA
ATOM     27  H   UNL     1      48.644   2.707   5.586  0.00  0.00    +0.000 HD
ATOM     28  H   UNL     1      48.810   1.046   5.170  0.00  0.00    +0.000 HD
ENDBRANCH  21  24
ENDBRANCH  17  18
ENDBRANCH  16  17
ENDBRANCH   2  16
TORSDOF 7
ENDMDL
MODEL 5
REMARK VINA RESULT:    -6.722      3.973      5.707
REMARK INTER + INTRA:         -10.598
REMARK INTER:                  -9.822
REMARK INTRA:                  -0.776
REMARK UNBOUND:                -1.125
REMARK  Name = 
REMARK  9 active torsions:
REMARK  status: ('A' for Active; 'I' for Inactive)
REMARK    1  A    between atoms: C_1  and  C_2
REMARK    2  A    between atoms: C_2  and  C_3
REMARK    3  A    between atoms: C_2  and  C_4
REMARK    4  A    between atoms: C_2  and  C_15
REMARK    5  A    between atoms: C_4  and  O_5
REMARK    6  A    between atoms: O_5  and  C_6
REMARK    7  A    between atoms: C_9  and  C_10
REMARK    8  A    between atoms: C_20  and  O_21
REMARK    9  A    between atoms: O_21  and  C_22
REMARK                            x       y       z     vdW  Elec       q    Type
REMARK                         _______ _______ _______ _____ _____    ______ ____
ROOT
ATOM      1  C   UNL     1      43.237   5.974  11.759  0.00  0.00    +0.000 C 
ATOM      2  C   UNL     1      44.738   6.345  11.765  0.00  0.00    +0.000 C 
ATOM      3  C   UNL     1      45.353   5.702  13.031  0.00  0.00    +0.000 C 
ENDROOT
BRANCH   2   4
ATOM      4  C   UNL     1      44.863   7.885  11.727  0.00  0.00    +0.000 A 
ATOM      5  C   UNL     1      46.020   8.515  12.228  0.00  0.00    +0.000 A 
ATOM      6  C   UNL     1      46.194   9.897  12.131  0.00  0.00    +0.000 A 
ATOM      7  C   UNL     1      45.209  10.682  11.545  0.00  0.00    +0.000 A 
ATOM      8  F   UNL     1      45.433  11.999  11.435  0.00  0.00    +0.000 F 
ATOM      9  C   UNL     1      44.034  10.102  11.078  0.00  0.00    +0.000 A 
ATOM     10  C   UNL     1      43.872   8.712  11.168  0.00  0.00    +0.000 A 
BRANCH   9  11
ATOM     11  O   UNL     1      42.992  10.765  10.477  0.00  0.00    +0.000 OA
BRANCH  11  12
ATOM     12  C   UNL     1      41.640  10.475  10.901  0.00  0.00    +0.000 C 
ATOM     13  C   UNL     1      40.482  11.054  10.077  0.00  0.00    +0.000 C 
ATOM     14  O   UNL     1      39.923  11.719  11.235  0.00  0.00    +0.000 OA
ATOM     15  C   UNL     1      41.098  11.388  12.010  0.00  0.00    +0.000 C 
ENDBRANCH  11  12
ENDBRANCH   9  11
ENDBRANCH   2   4
BRANCH   2  16
ATOM     16  C   UNL     1      45.441   5.734  10.519  0.00  0.00    +0.000 C 
BRANCH  16  17
ATOM     17  O   UNL     1      44.585   4.798   9.845  0.00  0.00    +0.000 OA
BRANCH  17  18
ATOM     18  C   UNL     1      45.289   3.949   9.016  0.00  0.00    +0.000 A 
ATOM     19  C   UNL     1      45.188   2.589   9.260  0.00  0.00    +0.000 A 
ATOM     20  C   UNL     1      45.876   1.712   8.418  0.00  0.00    +0.000 A 
ATOM     21  C   UNL     1      46.638   2.219   7.359  0.00  0.00    +0.000 A 
ATOM     22  C   UNL     1      46.677   3.597   7.208  0.00  0.00    +0.000 A 
ATOM     23  N   UNL     1      46.022   4.469   8.009  0.00  0.00    +0.000 NA
BRANCH  21  24
ATOM     24  C   UNL     1      47.355   1.286   6.459  0.00  0.00    +0.000 C 
ATOM     25  N   UNL     1      48.400   1.758   5.710  0.00  0.00    +0.000 N 
ATOM     26  O   UNL     1      47.021   0.110   6.372  0.00  0.00    +0.000 OA
ATOM     27  H   UNL     1      48.751   2.700   5.688  0.00  0.00    +0.000 HD
ATOM     28  H   UNL     1      48.852   1.087   5.101  0.00  0.00    +0.000 HD
ENDBRANCH  21  24
ENDBRANCH  17  18
ENDBRANCH  16  17
ENDBRANCH   2  16
TORSDOF 7
ENDMDL
MODEL 6
REMARK VINA RESULT:    -6.352      4.057      7.513
REMARK INTER + INTRA:         -10.077
REMARK INTER:                  -8.980
REMARK INTRA:                  -1.098
REMARK UNBOUND:                -1.125
REMARK  Name = 
REMARK  9 active torsions:
REMARK  status: ('A' for Active; 'I' for Inactive)
REMARK    1  A    between atoms: C_1  and  C_2
REMARK    2  A    between atoms: C_2  and  C_3
REMARK    3  A    between atoms: C_2  and  C_4
REMARK    4  A    between atoms: C_2  and  C_15
REMARK    5  A    between atoms: C_4  and  O_5
REMARK    6  A    between atoms: O_5  and  C_6
REMARK    7  A    between atoms: C_9  and  C_10
REMARK    8  A    between atoms: C_20  and  O_21
REMARK    9  A    between atoms: O_21  and  C_22
REMARK                            x       y       z     vdW  Elec       q    Type
REMARK                         _______ _______ _______ _____ _____    ______ ____
ROOT
ATOM      1  C   UNL     1      48.906  10.094  11.824  0.00  0.00    +0.000 C 
ATOM      2  C   UNL     1      48.468   8.706  12.349  0.00  0.00    +0.000 C 
ATOM      3  C   UNL     1      49.371   7.660  11.654  0.00  0.00    +0.000 C 
ENDROOT
BRANCH   2   4
ATOM      4  C   UNL     1      46.962   8.523  12.052  0.00  0.00    +0.000 A 
ATOM      5  C   UNL     1      46.128   9.650  11.902  0.00  0.00    +0.000 A 
ATOM      6  C   UNL     1      44.783   9.515  11.551  0.00  0.00    +0.000 A 
ATOM      7  C   UNL     1      44.238   8.252  11.360  0.00  0.00    +0.000 A 
ATOM      8  F   UNL     1      42.954   8.168  10.985  0.00  0.00    +0.000 F 
ATOM      9  C   UNL     1      45.018   7.115  11.542  0.00  0.00    +0.000 A 
ATOM     10  C   UNL     1      46.371   7.258  11.881  0.00  0.00    +0.000 A 
BRANCH   9  11
ATOM     11  O   UNL     1      44.601   5.816  11.378  0.00  0.00    +0.000 OA
BRANCH  11  12
ATOM     12  C   UNL     1      44.720   4.898  12.488  0.00  0.00    +0.000 C 
ATOM     13  C   UNL     1      45.142   3.452  12.192  0.00  0.00    +0.000 C 
ATOM     14  O   UNL     1      43.955   2.921  12.828  0.00  0.00    +0.000 OA
ATOM     15  C   UNL     1      43.401   4.252  12.939  0.00  0.00    +0.000 C 
ENDBRANCH  11  12
ENDBRANCH   9  11
ENDBRANCH   2   4
BRANCH   2  16
ATOM     16  C   UNL     1      48.712   8.618  13.882  0.00  0.00    +0.000 C 
BRANCH  16  17
ATOM     17  O   UNL     1      49.654   7.580  14.201  0.00  0.00    +0.000 OA
BRANCH  17  18
ATOM     18  C   UNL     1      49.113   6.621  15.033  0.00  0.00    +0.000 A 
ATOM     19  C   UNL     1      49.654   6.499  16.302  0.00  0.00    +0.000 A 
ATOM     20  C   UNL     1      49.105   5.548  17.166  0.00  0.00    +0.000 A 
ATOM     21  C   UNL     1      48.036   4.754  16.738  0.00  0.00    +0.000 A 
ATOM     22  C   UNL     1      47.576   4.953  15.445  0.00  0.00    +0.000 A 
ATOM     23  N   UNL     1      48.088   5.865  14.587  0.00  0.00    +0.000 NA
BRANCH  21  24
ATOM     24  C   UNL     1      47.447   3.756  17.662  0.00  0.00    +0.000 C 
ATOM     25  N   UNL     1      47.997   3.599  18.907  0.00  0.00    +0.000 N 
ATOM     26  O   UNL     1      46.489   3.071  17.325  0.00  0.00    +0.000 OA
ATOM     27  H   UNL     1      48.788   4.092  19.285  0.00  0.00    +0.000 HD
ATOM     28  H   UNL     1      47.568   2.898  19.499  0.00  0.00    +0.000 HD
ENDBRANCH  21  24
ENDBRANCH  17  18
ENDBRANCH  16  17
ENDBRANCH   2  16
TORSDOF 7
ENDMDL
MODEL 7
REMARK VINA RESULT:    -6.293      2.220      3.191
REMARK INTER + INTRA:          -9.993
REMARK INTER:                  -9.288
REMARK INTRA:                  -0.705
REMARK UNBOUND:                -1.125
REMARK  Name = 
REMARK  9 active torsions:
REMARK  status: ('A' for Active; 'I' for Inactive)
REMARK    1  A    between atoms: C_1  and  C_2
REMARK    2  A    between atoms: C_2  and  C_3
REMARK    3  A    between atoms: C_2  and  C_4
REMARK    4  A    between atoms: C_2  and  C_15
REMARK    5  A    between atoms: C_4  and  O_5
REMARK    6  A    between atoms: O_5  and  C_6
REMARK    7  A    between atoms: C_9  and  C_10
REMARK    8  A    between atoms: C_20  and  O_21
REMARK    9  A    between atoms: O_21  and  C_22
REMARK                            x       y       z     vdW  Elec       q    Type
REMARK                         _______ _______ _______ _____ _____    ______ ____
ROOT
ATOM      1  C   UNL     1      45.746   6.509  10.987  0.00  0.00    +0.000 C 
ATOM      2  C   UNL     1      45.213   5.493  12.025  0.00  0.00    +0.000 C 
ATOM      3  C   UNL     1      43.777   5.940  12.391  0.00  0.00    +0.000 C 
ENDROOT
BRANCH   2   4
ATOM      4  C   UNL     1      46.182   5.467  13.228  0.00  0.00    +0.000 A 
ATOM      5  C   UNL     1      46.133   4.406  14.155  0.00  0.00    +0.000 A 
ATOM      6  C   UNL     1      47.051   4.314  15.203  0.00  0.00    +0.000 A 
ATOM      7  C   UNL     1      48.028   5.289  15.358  0.00  0.00    +0.000 A 
ATOM      8  F   UNL     1      48.915   5.143  16.352  0.00  0.00    +0.000 F 
ATOM      9  C   UNL     1      48.081   6.374  14.489  0.00  0.00    +0.000 A 
ATOM     10  C   UNL     1      47.165   6.453  13.431  0.00  0.00    +0.000 A 
BRANCH   9  11
ATOM     11  O   UNL     1      48.998   7.397  14.532  0.00  0.00    +0.000 OA
BRANCH  11  12
ATOM     12  C   UNL     1      48.691   8.580  15.304  0.00  0.00    +0.000 C 
ATOM     13  C   UNL     1      49.647   9.777  15.207  0.00  0.00    +0.000 C 
ATOM     14  O   UNL     1      49.860   9.789  16.639  0.00  0.00    +0.000 OA
ATOM     15  C   UNL     1      49.150   8.535  16.769  0.00  0.00    +0.000 C 
ENDBRANCH  11  12
ENDBRANCH   9  11
ENDBRANCH   2   4
BRANCH   2  16
ATOM     16  C   UNL     1      45.133   4.076  11.388  0.00  0.00    +0.000 C 
BRANCH  16  17
ATOM     17  O   UNL     1      44.481   4.115  10.109  0.00  0.00    +0.000 OA
BRANCH  17  18
ATOM     18  C   UNL     1      45.266   3.588   9.104  0.00  0.00    +0.000 A 
ATOM     19  C   UNL     1      45.406   2.211   9.060  0.00  0.00    +0.000 A 
ATOM     20  C   UNL     1      46.179   1.657   8.037  0.00  0.00    +0.000 A 
ATOM     21  C   UNL     1      46.784   2.493   7.092  0.00  0.00    +0.000 A 
ATOM     22  C   UNL     1      46.585   3.858   7.232  0.00  0.00    +0.000 A 
ATOM     23  N   UNL     1      45.843   4.422   8.214  0.00  0.00    +0.000 NA
BRANCH  21  24
ATOM     24  C   UNL     1      47.592   1.902   6.000  0.00  0.00    +0.000 C 
ATOM     25  N   UNL     1      48.239   2.736   5.126  0.00  0.00    +0.000 N 
ATOM     26  O   UNL     1      47.681   0.687   5.865  0.00  0.00    +0.000 OA
ATOM     27  H   UNL     1      48.226   3.742   5.129  0.00  0.00    +0.000 HD
ATOM     28  H   UNL     1      48.769   2.287   4.390  0.00  0.00    +0.000 HD
ENDBRANCH  21  24
ENDBRANCH  17  18
ENDBRANCH  16  17
ENDBRANCH   2  16
TORSDOF 7
ENDMDL
MODEL 8
REMARK VINA RESULT:    -6.288      3.075      5.034
REMARK INTER + INTRA:          -9.987
REMARK INTER:                  -9.056
REMARK INTRA:                  -0.931
REMARK UNBOUND:                -1.125
REMARK  Name = 
REMARK  9 active torsions:
REMARK  status: ('A' for Active; 'I' for Inactive)
REMARK    1  A    between atoms: C_1  and  C_2
REMARK    2  A    between atoms: C_2  and  C_3
REMARK    3  A    between atoms: C_2  and  C_4
REMARK    4  A    between atoms: C_2  and  C_15
REMARK    5  A    between atoms: C_4  and  O_5
REMARK    6  A    between atoms: O_5  and  C_6
REMARK    7  A    between atoms: C_9  and  C_10
REMARK    8  A    between atoms: C_20  and  O_21
REMARK    9  A    between atoms: O_21  and  C_22
REMARK                            x       y       z     vdW  Elec       q    Type
REMARK                         _______ _______ _______ _____ _____    ______ ____
ROOT
ATOM      1  C   UNL     1      49.502   7.637  11.694  0.00  0.00    +0.000 C 
ATOM      2  C   UNL     1      48.491   8.542  12.437  0.00  0.00    +0.000 C 
ATOM      3  C   UNL     1      48.777   9.995  11.986  0.00  0.00    +0.000 C 
ENDROOT
BRANCH   2   4
ATOM      4  C   UNL     1      48.658   8.319  13.957  0.00  0.00    +0.000 A 
ATOM      5  C   UNL     1      48.473   9.389  14.855  0.00  0.00    +0.000 A 
ATOM      6  C   UNL     1      48.535   9.197  16.237  0.00  0.00    +0.000 A 
ATOM      7  C   UNL     1      48.799   7.933  16.751  0.00  0.00    +0.000 A 
ATOM      8  F   UNL     1      48.810   7.783  18.082  0.00  0.00    +0.000 F 
ATOM      9  C   UNL     1      49.030   6.861  15.896  0.00  0.00    +0.000 A 
ATOM     10  C   UNL     1      48.953   7.059  14.510  0.00  0.00    +0.000 A 
BRANCH   9  11
ATOM     11  O   UNL     1      49.294   5.568  16.277  0.00  0.00    +0.000 OA
BRANCH  11  12
ATOM     12  C   UNL     1      48.263   4.812  16.952  0.00  0.00    +0.000 C 
ATOM     13  C   UNL     1      48.568   3.360  17.347  0.00  0.00    +0.000 C 
ATOM     14  O   UNL     1      47.426   2.865  16.608  0.00  0.00    +0.000 OA
ATOM     15  C   UNL     1      47.217   4.173  16.027  0.00  0.00    +0.000 C 
ENDBRANCH  11  12
ENDBRANCH   9  11
ENDBRANCH   2   4
BRANCH   2  16
ATOM     16  C   UNL     1      47.041   8.178  12.011  0.00  0.00    +0.000 C 
BRANCH  16  17
ATOM     17  O   UNL     1      46.364   7.440  13.042  0.00  0.00    +0.000 OA
BRANCH  17  18
ATOM     18  C   UNL     1      45.737   6.313  12.553  0.00  0.00    +0.000 A 
ATOM     19  C   UNL     1      45.834   6.067  11.193  0.00  0.00    +0.000 A 
ATOM     20  C   UNL     1      45.224   4.919  10.684  0.00  0.00    +0.000 A 
ATOM     21  C   UNL     1      44.540   4.053  11.545  0.00  0.00    +0.000 A 
ATOM     22  C   UNL     1      44.497   4.397  12.887  0.00  0.00    +0.000 A 
ATOM     23  N   UNL     1      45.078   5.503  13.409  0.00  0.00    +0.000 NA
BRANCH  21  24
ATOM     24  C   UNL     1      43.906   2.829  11.003  0.00  0.00    +0.000 C 
ATOM     25  N   UNL     1      44.417   2.266   9.863  0.00  0.00    +0.000 N 
ATOM     26  O   UNL     1      42.934   2.324  11.552  0.00  0.00    +0.000 OA
ATOM     27  H   UNL     1      45.197   2.598   9.322  0.00  0.00    +0.000 HD
ATOM     28  H   UNL     1      43.944   1.437   9.524  0.00  0.00    +0.000 HD
ENDBRANCH  21  24
ENDBRANCH  17  18
ENDBRANCH  16  17
ENDBRANCH   2  16
TORSDOF 7
ENDMDL
MODEL 9
REMARK VINA RESULT:    -6.191      3.389      8.119
REMARK INTER + INTRA:          -9.850
REMARK INTER:                  -8.956
REMARK INTRA:                  -0.894
REMARK UNBOUND:                -1.125
REMARK  Name = 
REMARK  9 active torsions:
REMARK  status: ('A' for Active; 'I' for Inactive)
REMARK    1  A    between atoms: C_1  and  C_2
REMARK    2  A    between atoms: C_2  and  C_3
REMARK    3  A    between atoms: C_2  and  C_4
REMARK    4  A    between atoms: C_2  and  C_15
REMARK    5  A    between atoms: C_4  and  O_5
REMARK    6  A    between atoms: O_5  and  C_6
REMARK    7  A    between atoms: C_9  and  C_10
REMARK    8  A    between atoms: C_20  and  O_21
REMARK    9  A    between atoms: O_21  and  C_22
REMARK                            x       y       z     vdW  Elec       q    Type
REMARK                         _______ _______ _______ _____ _____    ______ ____
ROOT
ATOM      1  C   UNL     1      45.258   8.037  11.885  0.00  0.00    +0.000 C 
ATOM      2  C   UNL     1      46.156   6.817  12.197  0.00  0.00    +0.000 C 
ATOM      3  C   UNL     1      47.377   6.907  11.251  0.00  0.00    +0.000 C 
ENDROOT
BRANCH   2   4
ATOM      4  C   UNL     1      45.319   5.532  12.012  0.00  0.00    +0.000 A 
ATOM      5  C   UNL     1      44.511   5.055  13.064  0.00  0.00    +0.000 A 
ATOM      6  C   UNL     1      43.680   3.944  12.896  0.00  0.00    +0.000 A 
ATOM      7  C   UNL     1      43.652   3.276  11.678  0.00  0.00    +0.000 A 
ATOM      8  F   UNL     1      42.812   2.241  11.545  0.00  0.00    +0.000 F 
ATOM      9  C   UNL     1      44.467   3.691  10.630  0.00  0.00    +0.000 A 
ATOM     10  C   UNL     1      45.288   4.815  10.802  0.00  0.00    +0.000 A 
BRANCH   9  11
ATOM     11  O   UNL     1      44.526   3.122   9.381  0.00  0.00    +0.000 OA
BRANCH  11  12
ATOM     12  C   UNL     1      45.812   2.984   8.735  0.00  0.00    +0.000 C 
ATOM     13  C   UNL     1      45.926   3.373   7.254  0.00  0.00    +0.000 C 
ATOM     14  O   UNL     1      46.424   2.062   6.895  0.00  0.00    +0.000 OA
ATOM     15  C   UNL     1      46.133   1.571   8.224  0.00  0.00    +0.000 C 
ENDBRANCH  11  12
ENDBRANCH   9  11
ENDBRANCH   2   4
BRANCH   2  16
ATOM     16  C   UNL     1      46.670   6.898  13.662  0.00  0.00    +0.000 C 
BRANCH  16  17
ATOM     17  O   UNL     1      47.947   6.255  13.804  0.00  0.00    +0.000 OA
BRANCH  17  18
ATOM     18  C   UNL     1      48.143   5.754  15.075  0.00  0.00    +0.000 A 
ATOM     19  C   UNL     1      48.944   6.490  15.934  0.00  0.00    +0.000 A 
ATOM     20  C   UNL     1      49.136   6.011  17.232  0.00  0.00    +0.000 A 
ATOM     21  C   UNL     1      48.522   4.818  17.631  0.00  0.00    +0.000 A 
ATOM     22  C   UNL     1      47.747   4.158  16.690  0.00  0.00    +0.000 A 
ATOM     23  N   UNL     1      47.544   4.598  15.426  0.00  0.00    +0.000 NA
BRANCH  21  24
ATOM     24  C   UNL     1      48.717   4.320  19.013  0.00  0.00    +0.000 C 
ATOM     25  N   UNL     1      48.351   3.034  19.312  0.00  0.00    +0.000 N 
ATOM     26  O   UNL     1      49.188   5.041  19.884  0.00  0.00    +0.000 OA
ATOM     27  H   UNL     1      47.943   2.361  18.687  0.00  0.00    +0.000 HD
ATOM     28  H   UNL     1      48.492   2.742  20.272  0.00  0.00    +0.000 HD
ENDBRANCH  21  24
ENDBRANCH  17  18
ENDBRANCH  16  17
ENDBRANCH   2  16
TORSDOF 7
ENDMDL
