MODEL 1
REMARK VINA RESULT:    -7.704      0.000      0.000
REMARK INTER + INTRA:         -10.885
REMARK INTER:                 -11.082
REMARK INTRA:                   0.198
REMARK UNBOUND:                 0.198
REMARK  Name = 
REMARK  10 active torsions:
REMARK  status: ('A' for Active; 'I' for Inactive)
REMARK    1  A    between atoms: C_1  and  C_2
REMARK    2  A    between atoms: C_2  and  C_3
REMARK    3  A    between atoms: C_2  and  N_4
REMARK    4  A    between atoms: C_2  and  C_17
REMARK    5  A    between atoms: C_5  and  C_7
REMARK    6  A    between atoms: C_20  and  C_21
REMARK    7  A    between atoms: C_21  and  N_22
REMARK    8  A    between atoms: N_25  and  C_26
REMARK    9  A    between atoms: C_26  and  C_27
REMARK   10  A    between atoms: C_27  and  O_28
REMARK                            x       y       z     vdW  Elec       q    Type
REMARK                         _______ _______ _______ _____ _____    ______ ____
ROOT
ATOM      1  C   UNL     1      45.949   9.175  12.964  0.00  0.00    +0.000 C 
ATOM      2  C   UNL     1      46.895   7.954  13.043  0.00  0.00    +0.000 C 
ATOM      3  C   UNL     1      48.116   8.256  12.139  0.00  0.00    +0.000 C 
ENDROOT
BRANCH   2   4
ATOM      4  C   UNL     1      46.116   6.697  12.571  0.00  0.00    +0.000 A 
ATOM      5  C   UNL     1      46.637   5.404  12.753  0.00  0.00    +0.000 A 
ATOM      6  C   UNL     1      45.990   4.272  12.257  0.00  0.00    +0.000 A 
ATOM      7  C   UNL     1      44.765   4.363  11.595  0.00  0.00    +0.000 A 
ATOM      8  C   UNL     1      44.206   5.638  11.434  0.00  0.00    +0.000 A 
ATOM      9  C   UNL     1      44.874   6.787  11.916  0.00  0.00    +0.000 A 
BRANCH   7  10
ATOM     10  C   UNL     1      44.155   3.111  10.993  0.00  0.00    +0.000 C 
BRANCH  10  11
ATOM     11  N   UNL     1      43.974   3.001   9.541  0.00  0.00    +0.000 NA
ATOM     12  C   UNL     1      44.457   1.772   8.921  0.00  0.00    +0.000 C 
ATOM     13  C   UNL     1      45.949   1.780   8.527  0.00  0.00    +0.000 C 
ATOM     14  N   UNL     1      46.449   2.965   7.800  0.00  0.00    +0.000 NA
ATOM     15  C   UNL     1      45.810   4.215   8.246  0.00  0.00    +0.000 C 
ATOM     16  C   UNL     1      44.342   4.157   8.728  0.00  0.00    +0.000 C 
BRANCH  14  17
ATOM     17  C   UNL     1      46.480   2.758   6.344  0.00  0.00    +0.000 C 
BRANCH  17  18
ATOM     18  C   UNL     1      47.751   2.034   5.854  0.00  0.00    +0.000 C 
BRANCH  18  19
ATOM     19  O   UNL     1      48.920   2.685   6.355  0.00  0.00    +0.000 OA
ATOM     20  H   UNL     1      49.185   3.306   5.645  0.00  0.00    +0.000 HD
ENDBRANCH  18  19
ENDBRANCH  17  18
ENDBRANCH  14  17
ENDBRANCH  10  11
ENDBRANCH   7  10
ENDBRANCH   2   4
BRANCH   2  21
ATOM     21  N   UNL     1      47.368   7.724  14.419  0.00  0.00    +0.000 N 
ATOM     22  C   UNL     1      48.575   7.130  14.730  0.00  0.00    +0.000 C 
ATOM     23  O   UNL     1      49.400   6.823  13.881  0.00  0.00    +0.000 OA
ATOM     24  H   UNL     1      46.648   7.732  15.136  0.00  0.00    +0.000 HD
BRANCH  22  25
ATOM     25  C   UNL     1      48.872   6.918  16.155  0.00  0.00    +0.000 A 
ATOM     26  C   UNL     1      49.463   7.947  16.876  0.00  0.00    +0.000 A 
ATOM     27  S   UNL     1      49.721   7.575  18.519  0.00  0.00    +0.000 S 
ATOM     28  C   UNL     1      49.109   6.002  18.312  0.00  0.00    +0.000 A 
ATOM     29  N   UNL     1      49.076   5.125  19.350  0.00  0.00    +0.000 NA
ATOM     30  C   UNL     1      48.631   3.952  19.042  0.00  0.00    +0.000 A 
ATOM     31  N   UNL     1      48.207   3.581  17.793  0.00  0.00    +0.000 N 
ATOM     32  C   UNL     1      48.186   4.445  16.723  0.00  0.00    +0.000 A 
ATOM     33  O   UNL     1      47.756   4.104  15.626  0.00  0.00    +0.000 OA
ATOM     34  C   UNL     1      48.693   5.771  17.010  0.00  0.00    +0.000 A 
ATOM     35  H   UNL     1      47.869   2.645  17.619  0.00  0.00    +0.000 HD
ENDBRANCH  22  25
ENDBRANCH   2  21
TORSDOF 8
ENDMDL
MODEL 2
REMARK VINA RESULT:    -7.504      2.687      8.155
REMARK INTER + INTRA:         -10.597
REMARK INTER:                 -10.120
REMARK INTRA:                  -0.477
REMARK UNBOUND:                 0.198
REMARK  Name = 
REMARK  10 active torsions:
REMARK  status: ('A' for Active; 'I' for Inactive)
REMARK    1  A    between atoms: C_1  and  C_2
REMARK    2  A    between atoms: C_2  and  C_3
REMARK    3  A    between atoms: C_2  and  N_4
REMARK    4  A    between atoms: C_2  and  C_17
REMARK    5  A    between atoms: C_5  and  C_7
REMARK    6  A    between atoms: C_20  and  C_21
REMARK    7  A    between atoms: C_21  and  N_22
REMARK    8  A    between atoms: N_25  and  C_26
REMARK    9  A    between atoms: C_26  and  C_27
REMARK   10  A    between atoms: C_27  and  O_28
REMARK                            x       y       z     vdW  Elec       q    Type
REMARK                         _______ _______ _______ _____ _____    ______ ____
ROOT
ATOM      1  C   UNL     1      49.461   8.018  11.258  0.00  0.00    +0.000 C 
ATOM      2  C   UNL     1      48.210   8.180  12.153  0.00  0.00    +0.000 C 
ATOM      3  C   UNL     1      47.478   9.466  11.696  0.00  0.00    +0.000 C 
ENDROOT
BRANCH   2   4
ATOM      4  C   UNL     1      48.673   8.266  13.633  0.00  0.00    +0.000 A 
ATOM      5  C   UNL     1      49.868   7.661  14.061  0.00  0.00    +0.000 A 
ATOM      6  C   UNL     1      50.251   7.655  15.402  0.00  0.00    +0.000 A 
ATOM      7  C   UNL     1      49.490   8.293  16.382  0.00  0.00    +0.000 A 
ATOM      8  C   UNL     1      48.313   8.937  15.975  0.00  0.00    +0.000 A 
ATOM      9  C   UNL     1      47.912   8.921  14.619  0.00  0.00    +0.000 A 
BRANCH   7  10
ATOM     10  C   UNL     1      49.905   8.173  17.836  0.00  0.00    +0.000 C 
BRANCH  10  11
ATOM     11  N   UNL     1      49.598   6.955  18.595  0.00  0.00    +0.000 NA
ATOM     12  C   UNL     1      50.651   5.949  18.655  0.00  0.00    +0.000 C 
ATOM     13  C   UNL     1      50.677   4.957  17.472  0.00  0.00    +0.000 C 
ATOM     14  N   UNL     1      49.391   4.348  17.073  0.00  0.00    +0.000 NA
ATOM     15  C   UNL     1      48.256   5.275  17.218  0.00  0.00    +0.000 C 
ATOM     16  C   UNL     1      48.304   6.322  18.355  0.00  0.00    +0.000 C 
BRANCH  14  17
ATOM     17  C   UNL     1      49.196   3.015  17.663  0.00  0.00    +0.000 C 
BRANCH  17  18
ATOM     18  C   UNL     1      50.218   1.970  17.171  0.00  0.00    +0.000 C 
BRANCH  18  19
ATOM     19  O   UNL     1      49.941   1.598  15.820  0.00  0.00    +0.000 OA
ATOM     20  H   UNL     1      49.075   1.140  15.859  0.00  0.00    +0.000 HD
ENDBRANCH  18  19
ENDBRANCH  17  18
ENDBRANCH  14  17
ENDBRANCH  10  11
ENDBRANCH   7  10
ENDBRANCH   2   4
BRANCH   2  21
ATOM     21  N   UNL     1      47.294   7.035  12.015  0.00  0.00    +0.000 N 
ATOM     22  C   UNL     1      45.920   7.133  12.108  0.00  0.00    +0.000 C 
ATOM     23  O   UNL     1      45.339   8.203  12.227  0.00  0.00    +0.000 OA
ATOM     24  H   UNL     1      47.712   6.120  12.155  0.00  0.00    +0.000 HD
BRANCH  22  25
ATOM     25  C   UNL     1      45.149   5.884  12.006  0.00  0.00    +0.000 A 
ATOM     26  C   UNL     1      44.449   5.436  13.119  0.00  0.00    +0.000 A 
ATOM     27  S   UNL     1      43.578   3.997  12.848  0.00  0.00    +0.000 S 
ATOM     28  C   UNL     1      44.154   3.887  11.252  0.00  0.00    +0.000 A 
ATOM     29  N   UNL     1      43.805   2.841  10.456  0.00  0.00    +0.000 NA
ATOM     30  C   UNL     1      44.350   2.858   9.286  0.00  0.00    +0.000 A 
ATOM     31  N   UNL     1      45.205   3.831   8.836  0.00  0.00    +0.000 N 
ATOM     32  C   UNL     1      45.555   4.925   9.592  0.00  0.00    +0.000 A 
ATOM     33  O   UNL     1      46.283   5.809   9.150  0.00  0.00    +0.000 OA
ATOM     34  C   UNL     1      44.984   4.946  10.923  0.00  0.00    +0.000 A 
ATOM     35  H   UNL     1      45.597   3.784   7.906  0.00  0.00    +0.000 HD
ENDBRANCH  22  25
ENDBRANCH   2  21
TORSDOF 8
ENDMDL
MODEL 3
REMARK VINA RESULT:    -7.358      3.445      7.866
REMARK INTER + INTRA:         -10.386
REMARK INTER:                 -10.133
REMARK INTRA:                  -0.254
REMARK UNBOUND:                 0.198
REMARK  Name = 
REMARK  10 active torsions:
REMARK  status: ('A' for Active; 'I' for Inactive)
REMARK    1  A    between atoms: C_1  and  C_2
REMARK    2  A    between atoms: C_2  and  C_3
REMARK    3  A    between atoms: C_2  and  N_4
REMARK    4  A    between atoms: C_2  and  C_17
REMARK    5  A    between atoms: C_5  and  C_7
REMARK    6  A    between atoms: C_20  and  C_21
REMARK    7  A    between atoms: C_21  and  N_22
REMARK    8  A    between atoms: N_25  and  C_26
REMARK    9  A    between atoms: C_26  and  C_27
REMARK   10  A    between atoms: C_27  and  O_28
REMARK                            x       y       z     vdW  Elec       q    Type
REMARK                         _______ _______ _______ _____ _____    ______ ____
ROOT
ATOM      1  C   UNL     1      50.033   7.614  11.492  0.00  0.00    +0.000 C 
ATOM      2  C   UNL     1      48.921   8.448  12.171  0.00  0.00    +0.000 C 
ATOM      3  C   UNL     1      48.945   9.858  11.531  0.00  0.00    +0.000 C 
ENDROOT
BRANCH   2   4
ATOM      4  C   UNL     1      49.204   8.494  13.697  0.00  0.00    +0.000 A 
ATOM      5  C   UNL     1      50.385   7.956  14.238  0.00  0.00    +0.000 A 
ATOM      6  C   UNL     1      50.612   7.912  15.614  0.00  0.00    +0.000 A 
ATOM      7  C   UNL     1      49.698   8.445  16.522  0.00  0.00    +0.000 A 
ATOM      8  C   UNL     1      48.529   9.022  16.006  0.00  0.00    +0.000 A 
ATOM      9  C   UNL     1      48.288   9.045  14.613  0.00  0.00    +0.000 A 
BRANCH   7  10
ATOM     10  C   UNL     1      49.952   8.284  18.008  0.00  0.00    +0.000 C 
BRANCH  10  11
ATOM     11  N   UNL     1      49.546   7.055  18.700  0.00  0.00    +0.000 NA
ATOM     12  C   UNL     1      50.611   6.111  19.018  0.00  0.00    +0.000 C 
ATOM     13  C   UNL     1      50.962   5.116  17.891  0.00  0.00    +0.000 C 
ATOM     14  N   UNL     1      49.837   4.431  17.220  0.00  0.00    +0.000 NA
ATOM     15  C   UNL     1      48.650   5.293  17.084  0.00  0.00    +0.000 C 
ATOM     16  C   UNL     1      48.379   6.347  18.182  0.00  0.00    +0.000 C 
BRANCH  14  17
ATOM     17  C   UNL     1      49.584   3.093  17.775  0.00  0.00    +0.000 C 
BRANCH  17  18
ATOM     18  C   UNL     1      50.350   1.971  17.043  0.00  0.00    +0.000 C 
BRANCH  18  19
ATOM     19  O   UNL     1      49.655   1.584  15.857  0.00  0.00    +0.000 OA
ATOM     20  H   UNL     1      48.801   2.061  15.900  0.00  0.00    +0.000 HD
ENDBRANCH  18  19
ENDBRANCH  17  18
ENDBRANCH  14  17
ENDBRANCH  10  11
ENDBRANCH   7  10
ENDBRANCH   2   4
BRANCH   2  21
ATOM     21  N   UNL     1      47.591   7.850  11.959  0.00  0.00    +0.000 N 
ATOM     22  C   UNL     1      47.253   6.568  12.340  0.00  0.00    +0.000 C 
ATOM     23  O   UNL     1      48.011   5.843  12.971  0.00  0.00    +0.000 OA
ATOM     24  H   UNL     1      47.020   8.298  11.247  0.00  0.00    +0.000 HD
BRANCH  22  25
ATOM     25  C   UNL     1      45.901   6.101  12.001  0.00  0.00    +0.000 A 
ATOM     26  C   UNL     1      44.984   7.014  11.496  0.00  0.00    +0.000 A 
ATOM     27  S   UNL     1      43.469   6.330  11.118  0.00  0.00    +0.000 S 
ATOM     28  C   UNL     1      43.964   4.800  11.675  0.00  0.00    +0.000 A 
ATOM     29  N   UNL     1      43.107   3.744  11.662  0.00  0.00    +0.000 NA
ATOM     30  C   UNL     1      43.598   2.656  12.156  0.00  0.00    +0.000 A 
ATOM     31  N   UNL     1      44.869   2.527  12.653  0.00  0.00    +0.000 N 
ATOM     32  C   UNL     1      45.780   3.556  12.652  0.00  0.00    +0.000 A 
ATOM     33  O   UNL     1      46.928   3.403  13.057  0.00  0.00    +0.000 OA
ATOM     34  C   UNL     1      45.275   4.807  12.124  0.00  0.00    +0.000 A 
ATOM     35  H   UNL     1      45.190   1.644  13.026  0.00  0.00    +0.000 HD
ENDBRANCH  22  25
ENDBRANCH   2  21
TORSDOF 8
ENDMDL
MODEL 4
REMARK VINA RESULT:    -7.187      1.989      2.722
REMARK INTER + INTRA:         -10.141
REMARK INTER:                  -9.569
REMARK INTRA:                  -0.572
REMARK UNBOUND:                 0.198
REMARK  Name = 
REMARK  10 active torsions:
REMARK  status: ('A' for Active; 'I' for Inactive)
REMARK    1  A    between atoms: C_1  and  C_2
REMARK    2  A    between atoms: C_2  and  C_3
REMARK    3  A    between atoms: C_2  and  N_4
REMARK    4  A    between atoms: C_2  and  C_17
REMARK    5  A    between atoms: C_5  and  C_7
REMARK    6  A    between atoms: C_20  and  C_21
REMARK    7  A    between atoms: C_21  and  N_22
REMARK    8  A    between atoms: N_25  and  C_26
REMARK    9  A    between atoms: C_26  and  C_27
REMARK   10  A    between atoms: C_27  and  O_28
REMARK                            x       y       z     vdW  Elec       q    Type
REMARK                         _______ _______ _______ _____ _____    ______ ____
ROOT
ATOM      1  C   UNL     1      48.924   9.463  13.017  0.00  0.00    +0.000 C 
ATOM      2  C   UNL     1      49.125   7.960  12.715  0.00  0.00    +0.000 C 
ATOM      3  C   UNL     1      49.800   7.855  11.325  0.00  0.00    +0.000 C 
ENDROOT
BRANCH   2   4
ATOM      4  C   UNL     1      47.738   7.263  12.745  0.00  0.00    +0.000 A 
ATOM      5  C   UNL     1      46.577   7.926  12.309  0.00  0.00    +0.000 A 
ATOM      6  C   UNL     1      45.314   7.344  12.412  0.00  0.00    +0.000 A 
ATOM      7  C   UNL     1      45.143   6.053  12.910  0.00  0.00    +0.000 A 
ATOM      8  C   UNL     1      46.289   5.355  13.316  0.00  0.00    +0.000 A 
ATOM      9  C   UNL     1      47.567   5.954  13.234  0.00  0.00    +0.000 A 
BRANCH   7  10
ATOM     10  C   UNL     1      43.739   5.508  13.088  0.00  0.00    +0.000 C 
BRANCH  10  11
ATOM     11  N   UNL     1      43.166   4.596  12.090  0.00  0.00    +0.000 NA
ATOM     12  C   UNL     1      43.500   3.185  12.238  0.00  0.00    +0.000 C 
ATOM     13  C   UNL     1      44.824   2.751  11.572  0.00  0.00    +0.000 C 
ATOM     14  N   UNL     1      45.062   3.204  10.186  0.00  0.00    +0.000 NA
ATOM     15  C   UNL     1      44.530   4.554   9.931  0.00  0.00    +0.000 C 
ATOM     16  C   UNL     1      43.255   4.994  10.688  0.00  0.00    +0.000 C 
BRANCH  14  17
ATOM     17  C   UNL     1      44.696   2.184   9.192  0.00  0.00    +0.000 C 
BRANCH  17  18
ATOM     18  C   UNL     1      45.907   1.609   8.429  0.00  0.00    +0.000 C 
BRANCH  18  19
ATOM     19  O   UNL     1      46.471   2.600   7.569  0.00  0.00    +0.000 OA
ATOM     20  H   UNL     1      47.160   2.127   7.059  0.00  0.00    +0.000 HD
ENDBRANCH  18  19
ENDBRANCH  17  18
ENDBRANCH  14  17
ENDBRANCH  10  11
ENDBRANCH   7  10
ENDBRANCH   2   4
BRANCH   2  21
ATOM     21  N   UNL     1      49.994   7.318  13.716  0.00  0.00    +0.000 N 
ATOM     22  C   UNL     1      49.965   7.614  15.064  0.00  0.00    +0.000 C 
ATOM     23  O   UNL     1      49.146   8.378  15.557  0.00  0.00    +0.000 OA
ATOM     24  H   UNL     1      50.831   6.874  13.348  0.00  0.00    +0.000 HD
BRANCH  22  25
ATOM     25  C   UNL     1      50.941   6.927  15.924  0.00  0.00    +0.000 A 
ATOM     26  C   UNL     1      52.242   7.410  15.978  0.00  0.00    +0.000 A 
ATOM     27  S   UNL     1      53.254   6.538  17.036  0.00  0.00    +0.000 S 
ATOM     28  C   UNL     1      52.006   5.446  17.413  0.00  0.00    +0.000 A 
ATOM     29  N   UNL     1      52.224   4.405  18.261  0.00  0.00    +0.000 NA
ATOM     30  C   UNL     1      51.205   3.628  18.421  0.00  0.00    +0.000 A 
ATOM     31  N   UNL     1      49.986   3.802  17.818  0.00  0.00    +0.000 N 
ATOM     32  C   UNL     1      49.710   4.861  16.985  0.00  0.00    +0.000 A 
ATOM     33  O   UNL     1      48.596   5.024  16.496  0.00  0.00    +0.000 OA
ATOM     34  C   UNL     1      50.826   5.755  16.756  0.00  0.00    +0.000 A 
ATOM     35  H   UNL     1      49.229   3.156  17.989  0.00  0.00    +0.000 HD
ENDBRANCH  22  25
ENDBRANCH   2  21
TORSDOF 8
ENDMDL
MODEL 5
REMARK VINA RESULT:    -6.927      1.683      2.352
REMARK INTER + INTRA:          -9.767
REMARK INTER:                  -9.555
REMARK INTRA:                  -0.211
REMARK UNBOUND:                 0.198
REMARK  Name = 
REMARK  10 active torsions:
REMARK  status: ('A' for Active; 'I' for Inactive)
REMARK    1  A    between atoms: C_1  and  C_2
REMARK    2  A    between atoms: C_2  and  C_3
REMARK    3  A    between atoms: C_2  and  N_4
REMARK    4  A    between atoms: C_2  and  C_17
REMARK    5  A    between atoms: C_5  and  C_7
REMARK    6  A    between atoms: C_20  and  C_21
REMARK    7  A    between atoms: C_21  and  N_22
REMARK    8  A    between atoms: N_25  and  C_26
REMARK    9  A    between atoms: C_26  and  C_27
REMARK   10  A    between atoms: C_27  and  O_28
REMARK                            x       y       z     vdW  Elec       q    Type
REMARK                         _______ _______ _______ _____ _____    ______ ____
ROOT
ATOM      1  C   UNL     1      48.262   9.324  12.709  0.00  0.00    +0.000 C 
ATOM      2  C   UNL     1      48.371   7.985  13.475  0.00  0.00    +0.000 C 
ATOM      3  C   UNL     1      49.628   7.252  12.945  0.00  0.00    +0.000 C 
ENDROOT
BRANCH   2   4
ATOM      4  C   UNL     1      47.073   7.171  13.229  0.00  0.00    +0.000 A 
ATOM      5  C   UNL     1      45.900   7.790  12.761  0.00  0.00    +0.000 A 
ATOM      6  C   UNL     1      44.703   7.087  12.619  0.00  0.00    +0.000 A 
ATOM      7  C   UNL     1      44.621   5.722  12.889  0.00  0.00    +0.000 A 
ATOM      8  C   UNL     1      45.786   5.073  13.322  0.00  0.00    +0.000 A 
ATOM      9  C   UNL     1      46.993   5.790  13.489  0.00  0.00    +0.000 A 
BRANCH   7  10
ATOM     10  C   UNL     1      43.273   5.031  12.809  0.00  0.00    +0.000 C 
BRANCH  10  11
ATOM     11  N   UNL     1      42.908   4.256  11.618  0.00  0.00    +0.000 NA
ATOM     12  C   UNL     1      43.222   2.833  11.652  0.00  0.00    +0.000 C 
ATOM     13  C   UNL     1      44.651   2.466  11.200  0.00  0.00    +0.000 C 
ATOM     14  N   UNL     1      45.142   3.080   9.950  0.00  0.00    +0.000 NA
ATOM     15  C   UNL     1      44.654   4.458   9.766  0.00  0.00    +0.000 C 
ATOM     16  C   UNL     1      43.256   4.820  10.317  0.00  0.00    +0.000 C 
BRANCH  14  17
ATOM     17  C   UNL     1      44.980   2.194   8.788  0.00  0.00    +0.000 C 
BRANCH  17  18
ATOM     18  C   UNL     1      46.301   1.908   8.045  0.00  0.00    +0.000 C 
BRANCH  18  19
ATOM     19  O   UNL     1      46.570   0.505   8.027  0.00  0.00    +0.000 OA
ATOM     20  H   UNL     1      47.479   0.428   7.671  0.00  0.00    +0.000 HD
ENDBRANCH  18  19
ENDBRANCH  17  18
ENDBRANCH  14  17
ENDBRANCH  10  11
ENDBRANCH   7  10
ENDBRANCH   2   4
BRANCH   2  21
ATOM     21  N   UNL     1      48.522   8.202  14.924  0.00  0.00    +0.000 N 
ATOM     22  C   UNL     1      49.087   7.283  15.785  0.00  0.00    +0.000 C 
ATOM     23  O   UNL     1      49.595   6.239  15.399  0.00  0.00    +0.000 OA
ATOM     24  H   UNL     1      47.919   8.915  15.325  0.00  0.00    +0.000 HD
BRANCH  22  25
ATOM     25  C   UNL     1      49.108   7.626  17.215  0.00  0.00    +0.000 A 
ATOM     26  C   UNL     1      49.816   8.749  17.624  0.00  0.00    +0.000 A 
ATOM     27  S   UNL     1      49.729   9.045  19.300  0.00  0.00    +0.000 S 
ATOM     28  C   UNL     1      48.792   7.647  19.549  0.00  0.00    +0.000 A 
ATOM     29  N   UNL     1      48.395   7.289  20.799  0.00  0.00    +0.000 NA
ATOM     30  C   UNL     1      47.731   6.182  20.849  0.00  0.00    +0.000 A 
ATOM     31  N   UNL     1      47.421   5.407  19.762  0.00  0.00    +0.000 N 
ATOM     32  C   UNL     1      47.769   5.749  18.477  0.00  0.00    +0.000 A 
ATOM     33  O   UNL     1      47.437   5.064  17.514  0.00  0.00    +0.000 OA
ATOM     34  C   UNL     1      48.533   6.975  18.366  0.00  0.00    +0.000 A 
ATOM     35  H   UNL     1      46.896   4.550  19.872  0.00  0.00    +0.000 HD
ENDBRANCH  22  25
ENDBRANCH   2  21
TORSDOF 8
ENDMDL
MODEL 6
REMARK VINA RESULT:    -6.848      4.311      7.142
REMARK INTER + INTRA:          -9.653
REMARK INTER:                  -9.559
REMARK INTRA:                  -0.094
REMARK UNBOUND:                 0.198
REMARK  Name = 
REMARK  10 active torsions:
REMARK  status: ('A' for Active; 'I' for Inactive)
REMARK    1  A    between atoms: C_1  and  C_2
REMARK    2  A    between atoms: C_2  and  C_3
REMARK    3  A    between atoms: C_2  and  N_4
REMARK    4  A    between atoms: C_2  and  C_17
REMARK    5  A    between atoms: C_5  and  C_7
REMARK    6  A    between atoms: C_20  and  C_21
REMARK    7  A    between atoms: C_21  and  N_22
REMARK    8  A    between atoms: N_25  and  C_26
REMARK    9  A    between atoms: C_26  and  C_27
REMARK   10  A    between atoms: C_27  and  O_28
REMARK                            x       y       z     vdW  Elec       q    Type
REMARK                         _______ _______ _______ _____ _____    ______ ____
ROOT
ATOM      1  C   UNL     1      48.303   9.133  15.642  0.00  0.00    +0.000 C 
ATOM      2  C   UNL     1      48.558   7.905  14.738  0.00  0.00    +0.000 C 
ATOM      3  C   UNL     1      49.040   6.751  15.652  0.00  0.00    +0.000 C 
ENDROOT
BRANCH   2   4
ATOM      4  C   UNL     1      49.620   8.290  13.673  0.00  0.00    +0.000 A 
ATOM      5  C   UNL     1      50.995   8.242  13.963  0.00  0.00    +0.000 A 
ATOM      6  C   UNL     1      51.957   8.668  13.047  0.00  0.00    +0.000 A 
ATOM      7  C   UNL     1      51.604   9.119  11.775  0.00  0.00    +0.000 A 
ATOM      8  C   UNL     1      50.241   9.141  11.447  0.00  0.00    +0.000 A 
ATOM      9  C   UNL     1      49.266   8.732  12.385  0.00  0.00    +0.000 A 
BRANCH   7  10
ATOM     10  C   UNL     1      52.683   9.659  10.856  0.00  0.00    +0.000 C 
BRANCH  10  11
ATOM     11  N   UNL     1      53.647   8.747  10.230  0.00  0.00    +0.000 NA
ATOM     12  C   UNL     1      54.228   9.187   8.967  0.00  0.00    +0.000 C 
ATOM     13  C   UNL     1      53.400   8.845   7.710  0.00  0.00    +0.000 C 
ATOM     14  N   UNL     1      52.885   7.464   7.597  0.00  0.00    +0.000 NA
ATOM     15  C   UNL     1      52.496   6.896   8.899  0.00  0.00    +0.000 C 
ATOM     16  C   UNL     1      53.284   7.334  10.155  0.00  0.00    +0.000 C 
BRANCH  14  17
ATOM     17  C   UNL     1      53.749   6.610   6.769  0.00  0.00    +0.000 C 
BRANCH  17  18
ATOM     18  C   UNL     1      53.624   5.108   7.099  0.00  0.00    +0.000 C 
BRANCH  18  19
ATOM     19  O   UNL     1      52.518   4.534   6.401  0.00  0.00    +0.000 OA
ATOM     20  H   UNL     1      52.844   4.392   5.488  0.00  0.00    +0.000 HD
ENDBRANCH  18  19
ENDBRANCH  17  18
ENDBRANCH  14  17
ENDBRANCH  10  11
ENDBRANCH   7  10
ENDBRANCH   2   4
BRANCH   2  21
ATOM     21  N   UNL     1      47.330   7.481  14.042  0.00  0.00    +0.000 N 
ATOM     22  C   UNL     1      47.223   6.314  13.312  0.00  0.00    +0.000 C 
ATOM     23  O   UNL     1      48.120   5.485  13.253  0.00  0.00    +0.000 OA
ATOM     24  H   UNL     1      46.656   8.218  13.857  0.00  0.00    +0.000 HD
BRANCH  22  25
ATOM     25  C   UNL     1      45.945   6.065  12.628  0.00  0.00    +0.000 A 
ATOM     26  C   UNL     1      45.242   7.145  12.108  0.00  0.00    +0.000 A 
ATOM     27  S   UNL     1      43.797   6.707  11.317  0.00  0.00    +0.000 S 
ATOM     28  C   UNL     1      44.027   5.065  11.696  0.00  0.00    +0.000 A 
ATOM     29  N   UNL     1      43.110   4.131  11.327  0.00  0.00    +0.000 NA
ATOM     30  C   UNL     1      43.386   2.931  11.719  0.00  0.00    +0.000 A 
ATOM     31  N   UNL     1      44.500   2.581  12.438  0.00  0.00    +0.000 N 
ATOM     32  C   UNL     1      45.471   3.485  12.798  0.00  0.00    +0.000 A 
ATOM     33  O   UNL     1      46.485   3.139  13.398  0.00  0.00    +0.000 OA
ATOM     34  C   UNL     1      45.202   4.851  12.398  0.00  0.00    +0.000 A 
ATOM     35  H   UNL     1      44.656   1.621  12.713  0.00  0.00    +0.000 HD
ENDBRANCH  22  25
ENDBRANCH   2  21
TORSDOF 8
ENDMDL
MODEL 7
REMARK VINA RESULT:    -6.794      2.627      4.821
REMARK INTER + INTRA:          -9.575
REMARK INTER:                  -9.169
REMARK INTRA:                  -0.406
REMARK UNBOUND:                 0.198
REMARK  Name = 
REMARK  10 active torsions:
REMARK  status: ('A' for Active; 'I' for Inactive)
REMARK    1  A    between atoms: C_1  and  C_2
REMARK    2  A    between atoms: C_2  and  C_3
REMARK    3  A    between atoms: C_2  and  N_4
REMARK    4  A    between atoms: C_2  and  C_17
REMARK    5  A    between atoms: C_5  and  C_7
REMARK    6  A    between atoms: C_20  and  C_21
REMARK    7  A    between atoms: C_21  and  N_22
REMARK    8  A    between atoms: N_25  and  C_26
REMARK    9  A    between atoms: C_26  and  C_27
REMARK   10  A    between atoms: C_27  and  O_28
REMARK                            x       y       z     vdW  Elec       q    Type
REMARK                         _______ _______ _______ _____ _____    ______ ____
ROOT
ATOM      1  C   UNL     1      43.590   2.795  12.406  0.00  0.00    +0.000 C 
ATOM      2  C   UNL     1      44.100   4.136  11.829  0.00  0.00    +0.000 C 
ATOM      3  C   UNL     1      42.882   5.087  11.725  0.00  0.00    +0.000 C 
ENDROOT
BRANCH   2   4
ATOM      4  C   UNL     1      44.747   3.861  10.445  0.00  0.00    +0.000 A 
ATOM      5  C   UNL     1      45.365   4.888   9.711  0.00  0.00    +0.000 A 
ATOM      6  C   UNL     1      45.872   4.675   8.429  0.00  0.00    +0.000 A 
ATOM      7  C   UNL     1      45.834   3.416   7.828  0.00  0.00    +0.000 A 
ATOM      8  C   UNL     1      45.256   2.366   8.556  0.00  0.00    +0.000 A 
ATOM      9  C   UNL     1      44.721   2.588   9.845  0.00  0.00    +0.000 A 
BRANCH   7  10
ATOM     10  C   UNL     1      46.313   3.265   6.398  0.00  0.00    +0.000 C 
BRANCH  10  11
ATOM     11  N   UNL     1      47.384   2.315   6.072  0.00  0.00    +0.000 NA
ATOM     12  C   UNL     1      47.702   2.160   4.658  0.00  0.00    +0.000 C 
ATOM     13  C   UNL     1      46.839   1.127   3.902  0.00  0.00    +0.000 C 
ATOM     14  N   UNL     1      46.645  -0.189   4.543  0.00  0.00    +0.000 NA
ATOM     15  C   UNL     1      46.546  -0.097   6.010  0.00  0.00    +0.000 C 
ATOM     16  C   UNL     1      47.349   1.012   6.730  0.00  0.00    +0.000 C 
BRANCH  14  17
ATOM     17  C   UNL     1      47.583  -1.203   4.037  0.00  0.00    +0.000 C 
BRANCH  17  18
ATOM     18  C   UNL     1      46.890  -2.366   3.298  0.00  0.00    +0.000 C 
BRANCH  18  19
ATOM     19  O   UNL     1      46.115  -3.146   4.210  0.00  0.00    +0.000 OA
ATOM     20  H   UNL     1      45.640  -2.490   4.761  0.00  0.00    +0.000 HD
ENDBRANCH  18  19
ENDBRANCH  17  18
ENDBRANCH  14  17
ENDBRANCH  10  11
ENDBRANCH   7  10
ENDBRANCH   2   4
BRANCH   2  21
ATOM     21  N   UNL     1      45.112   4.752  12.705  0.00  0.00    +0.000 N 
ATOM     22  C   UNL     1      46.114   4.046  13.339  0.00  0.00    +0.000 C 
ATOM     23  O   UNL     1      46.301   2.852  13.155  0.00  0.00    +0.000 OA
ATOM     24  H   UNL     1      44.868   5.666  13.079  0.00  0.00    +0.000 HD
BRANCH  22  25
ATOM     25  C   UNL     1      47.008   4.803  14.229  0.00  0.00    +0.000 A 
ATOM     26  C   UNL     1      47.206   4.346  15.526  0.00  0.00    +0.000 A 
ATOM     27  S   UNL     1      48.288   5.300  16.433  0.00  0.00    +0.000 S 
ATOM     28  C   UNL     1      48.484   6.393  15.145  0.00  0.00    +0.000 A 
ATOM     29  N   UNL     1      49.279   7.490  15.277  0.00  0.00    +0.000 NA
ATOM     30  C   UNL     1      49.300   8.259  14.239  0.00  0.00    +0.000 A 
ATOM     31  N   UNL     1      48.607   8.026  13.079  0.00  0.00    +0.000 N 
ATOM     32  C   UNL     1      47.823   6.912  12.888  0.00  0.00    +0.000 A 
ATOM     33  O   UNL     1      47.251   6.700  11.823  0.00  0.00    +0.000 OA
ATOM     34  C   UNL     1      47.750   6.023  14.030  0.00  0.00    +0.000 A 
ATOM     35  H   UNL     1      48.669   8.669  12.303  0.00  0.00    +0.000 HD
ENDBRANCH  22  25
ENDBRANCH   2  21
TORSDOF 8
ENDMDL
MODEL 8
REMARK VINA RESULT:    -6.763      3.623      5.979
REMARK INTER + INTRA:          -9.531
REMARK INTER:                  -9.074
REMARK INTRA:                  -0.457
REMARK UNBOUND:                 0.198
REMARK  Name = 
REMARK  10 active torsions:
REMARK  status: ('A' for Active; 'I' for Inactive)
REMARK    1  A    between atoms: C_1  and  C_2
REMARK    2  A    between atoms: C_2  and  C_3
REMARK    3  A    between atoms: C_2  and  N_4
REMARK    4  A    between atoms: C_2  and  C_17
REMARK    5  A    between atoms: C_5  and  C_7
REMARK    6  A    between atoms: C_20  and  C_21
REMARK    7  A    between atoms: C_21  and  N_22
REMARK    8  A    between atoms: N_25  and  C_26
REMARK    9  A    between atoms: C_26  and  C_27
REMARK   10  A    between atoms: C_27  and  O_28
REMARK                            x       y       z     vdW  Elec       q    Type
REMARK                         _______ _______ _______ _____ _____    ______ ____
ROOT
ATOM      1  C   UNL     1      48.148   5.309  19.922  0.00  0.00    +0.000 C 
ATOM      2  C   UNL     1      49.380   5.722  19.083  0.00  0.00    +0.000 C 
ATOM      3  C   UNL     1      49.830   7.119  19.581  0.00  0.00    +0.000 C 
ENDROOT
BRANCH   2   4
ATOM      4  C   UNL     1      48.972   5.739  17.586  0.00  0.00    +0.000 A 
ATOM      5  C   UNL     1      49.293   6.826  16.753  0.00  0.00    +0.000 A 
ATOM      6  C   UNL     1      48.857   6.894  15.430  0.00  0.00    +0.000 A 
ATOM      7  C   UNL     1      48.120   5.862  14.850  0.00  0.00    +0.000 A 
ATOM      8  C   UNL     1      47.818   4.750  15.648  0.00  0.00    +0.000 A 
ATOM      9  C   UNL     1      48.239   4.692  16.996  0.00  0.00    +0.000 A 
BRANCH   7  10
ATOM     10  C   UNL     1      47.592   6.033  13.438  0.00  0.00    +0.000 C 
BRANCH  10  11
ATOM     11  N   UNL     1      46.155   6.215  13.202  0.00  0.00    +0.000 NA
ATOM     12  C   UNL     1      45.315   5.039  13.396  0.00  0.00    +0.000 C 
ATOM     13  C   UNL     1      45.190   4.113  12.167  0.00  0.00    +0.000 C 
ATOM     14  N   UNL     1      44.904   4.753  10.866  0.00  0.00    +0.000 NA
ATOM     15  C   UNL     1      45.560   6.064  10.723  0.00  0.00    +0.000 C 
ATOM     16  C   UNL     1      45.758   6.927  11.991  0.00  0.00    +0.000 C 
BRANCH  14  17
ATOM     17  C   UNL     1      43.473   4.724  10.530  0.00  0.00    +0.000 C 
BRANCH  17  18
ATOM     18  C   UNL     1      42.556   5.076  11.719  0.00  0.00    +0.000 C 
BRANCH  18  19
ATOM     19  O   UNL     1      42.167   6.449  11.659  0.00  0.00    +0.000 OA
ATOM     20  H   UNL     1      41.435   6.475  11.009  0.00  0.00    +0.000 HD
ENDBRANCH  18  19
ENDBRANCH  17  18
ENDBRANCH  14  17
ENDBRANCH  10  11
ENDBRANCH   7  10
ENDBRANCH   2   4
BRANCH   2  21
ATOM     21  N   UNL     1      50.494   4.774  19.255  0.00  0.00    +0.000 N 
ATOM     22  C   UNL     1      51.775   4.999  18.794  0.00  0.00    +0.000 C 
ATOM     23  O   UNL     1      52.117   6.054  18.276  0.00  0.00    +0.000 OA
ATOM     24  H   UNL     1      50.225   3.814  19.450  0.00  0.00    +0.000 HD
BRANCH  22  25
ATOM     25  C   UNL     1      52.760   3.925  18.993  0.00  0.00    +0.000 A 
ATOM     26  C   UNL     1      53.893   4.188  19.752  0.00  0.00    +0.000 A 
ATOM     27  S   UNL     1      54.929   2.846  19.926  0.00  0.00    +0.000 S 
ATOM     28  C   UNL     1      53.931   1.883  18.942  0.00  0.00    +0.000 A 
ATOM     29  N   UNL     1      54.270   0.597  18.654  0.00  0.00    +0.000 NA
ATOM     30  C   UNL     1      53.448  -0.003  17.858  0.00  0.00    +0.000 A 
ATOM     31  N   UNL     1      52.314   0.562  17.334  0.00  0.00    +0.000 N 
ATOM     32  C   UNL     1      51.914   1.844  17.628  0.00  0.00    +0.000 A 
ATOM     33  O   UNL     1      50.869   2.311  17.186  0.00  0.00    +0.000 OA
ATOM     34  C   UNL     1      52.811   2.570  18.504  0.00  0.00    +0.000 A 
ATOM     35  H   UNL     1      51.713   0.034  16.717  0.00  0.00    +0.000 HD
ENDBRANCH  22  25
ENDBRANCH   2  21
TORSDOF 8
ENDMDL
MODEL 9
REMARK VINA RESULT:    -6.715      3.550      8.227
REMARK INTER + INTRA:          -9.462
REMARK INTER:                  -9.184
REMARK INTRA:                  -0.278
REMARK UNBOUND:                 0.198
REMARK  Name = 
REMARK  10 active torsions:
REMARK  status: ('A' for Active; 'I' for Inactive)
REMARK    1  A    between atoms: C_1  and  C_2
REMARK    2  A    between atoms: C_2  and  C_3
REMARK    3  A    between atoms: C_2  and  N_4
REMARK    4  A    between atoms: C_2  and  C_17
REMARK    5  A    between atoms: C_5  and  C_7
REMARK    6  A    between atoms: C_20  and  C_21
REMARK    7  A    between atoms: C_21  and  N_22
REMARK    8  A    between atoms: N_25  and  C_26
REMARK    9  A    between atoms: C_26  and  C_27
REMARK   10  A    between atoms: C_27  and  O_28
REMARK                            x       y       z     vdW  Elec       q    Type
REMARK                         _______ _______ _______ _____ _____    ______ ____
ROOT
ATOM      1  C   UNL     1      50.081   7.685  11.576  0.00  0.00    +0.000 C 
ATOM      2  C   UNL     1      48.855   8.299  12.291  0.00  0.00    +0.000 C 
ATOM      3  C   UNL     1      48.525   9.634  11.577  0.00  0.00    +0.000 C 
ENDROOT
BRANCH   2   4
ATOM      4  C   UNL     1      49.212   8.510  13.786  0.00  0.00    +0.000 A 
ATOM      5  C   UNL     1      50.450   8.092  14.308  0.00  0.00    +0.000 A 
ATOM      6  C   UNL     1      50.749   8.196  15.666  0.00  0.00    +0.000 A 
ATOM      7  C   UNL     1      49.852   8.764  16.571  0.00  0.00    +0.000 A 
ATOM      8  C   UNL     1      48.626   9.223  16.070  0.00  0.00    +0.000 A 
ATOM      9  C   UNL     1      48.313   9.096  14.697  0.00  0.00    +0.000 A 
BRANCH   7  10
ATOM     10  C   UNL     1      50.192   8.763  18.049  0.00  0.00    +0.000 C 
BRANCH  10  11
ATOM     11  N   UNL     1      49.784   7.639  18.901  0.00  0.00    +0.000 NA
ATOM     12  C   UNL     1      50.658   6.472  18.893  0.00  0.00    +0.000 C 
ATOM     13  C   UNL     1      50.378   5.452  17.768  0.00  0.00    +0.000 C 
ATOM     14  N   UNL     1      48.971   5.056  17.552  0.00  0.00    +0.000 NA
ATOM     15  C   UNL     1      48.028   6.165  17.776  0.00  0.00    +0.000 C 
ATOM     16  C   UNL     1      48.385   7.226  18.844  0.00  0.00    +0.000 C 
BRANCH  14  17
ATOM     17  C   UNL     1      48.633   3.795  18.229  0.00  0.00    +0.000 C 
BRANCH  17  18
ATOM     18  C   UNL     1      47.858   2.806  17.334  0.00  0.00    +0.000 C 
BRANCH  18  19
ATOM     19  O   UNL     1      46.507   2.682  17.781  0.00  0.00    +0.000 OA
ATOM     20  H   UNL     1      45.968   3.075  17.064  0.00  0.00    +0.000 HD
ENDBRANCH  18  19
ENDBRANCH  17  18
ENDBRANCH  14  17
ENDBRANCH  10  11
ENDBRANCH   7  10
ENDBRANCH   2   4
BRANCH   2  21
ATOM     21  N   UNL     1      47.681   7.413  12.209  0.00  0.00    +0.000 N 
ATOM     22  C   UNL     1      47.587   6.198  12.857  0.00  0.00    +0.000 C 
ATOM     23  O   UNL     1      48.444   5.792  13.630  0.00  0.00    +0.000 OA
ATOM     24  H   UNL     1      47.066   7.574  11.417  0.00  0.00    +0.000 HD
BRANCH  22  25
ATOM     25  C   UNL     1      46.371   5.404  12.624  0.00  0.00    +0.000 A 
ATOM     26  C   UNL     1      46.419   4.030  12.820  0.00  0.00    +0.000 A 
ATOM     27  S   UNL     1      44.933   3.244  12.544  0.00  0.00    +0.000 S 
ATOM     28  C   UNL     1      44.186   4.704  12.092  0.00  0.00    +0.000 A 
ATOM     29  N   UNL     1      42.885   4.727  11.697  0.00  0.00    +0.000 NA
ATOM     30  C   UNL     1      42.460   5.892  11.337  0.00  0.00    +0.000 A 
ATOM     31  N   UNL     1      43.214   7.037  11.345  0.00  0.00    +0.000 N 
ATOM     32  C   UNL     1      44.521   7.066  11.772  0.00  0.00    +0.000 A 
ATOM     33  O   UNL     1      45.161   8.113  11.817  0.00  0.00    +0.000 OA
ATOM     34  C   UNL     1      45.054   5.780  12.171  0.00  0.00    +0.000 A 
ATOM     35  H   UNL     1      42.818   7.918  11.050  0.00  0.00    +0.000 HD
ENDBRANCH  22  25
ENDBRANCH   2  21
TORSDOF 8
ENDMDL
