MODEL 1
REMARK VINA RESULT:    -8.343      0.000      0.000
REMARK INTER + INTRA:         -13.600
REMARK INTER:                 -12.245
REMARK INTRA:                  -1.354
REMARK UNBOUND:                -1.354
REMARK  Name = 
REMARK  10 active torsions:
REMARK  status: ('A' for Active; 'I' for Inactive)
REMARK    1  A    between atoms: C_1  and  O_2
REMARK    2  A    between atoms: O_2  and  C_3
REMARK    3  A    between atoms: C_6  and  N_7
REMARK    4  A    between atoms: N_7  and  C_8
REMARK    5  A    between atoms: C_8  and  C_9
REMARK    6  A    between atoms: C_9  and  C_10
REMARK    7  A    between atoms: C_13  and  C_14
REMARK    8  A    between atoms: C_21  and  O_22
REMARK    9  A    between atoms: O_22  and  C_23
REMARK   10  A    between atoms: N_25  and  C_26
REMARK                            x       y       z     vdW  Elec       q    Type
REMARK                         _______ _______ _______ _____ _____    ______ ____
ROOT
ATOM      1  N   UNL     1      43.482   5.638  12.352  0.00  0.00    +0.000 N 
ATOM      2  H   UNL     1      43.020   6.534  12.509  0.00  0.00    +0.000 HD
ENDROOT
BRANCH   1   6
ATOM      3  C   UNL     1      47.638   6.166  13.032  0.00  0.00    +0.000 A 
ATOM      4  C   UNL     1      46.899   7.029  12.205  0.00  0.00    +0.000 A 
ATOM      5  C   UNL     1      45.530   6.835  11.992  0.00  0.00    +0.000 A 
ATOM      6  C   UNL     1      44.846   5.797  12.621  0.00  0.00    +0.000 A 
ATOM      7  C   UNL     1      45.596   4.911  13.402  0.00  0.00    +0.000 A 
ATOM      8  C   UNL     1      46.971   5.084  13.620  0.00  0.00    +0.000 A 
BRANCH   3  10
ATOM      9  C   UNL     1      49.348   7.558  13.909  0.00  0.00    +0.000 C 
ATOM     10  O   UNL     1      48.973   6.332  13.284  0.00  0.00    +0.000 OA
ENDBRANCH   3  10
BRANCH   8  11
ATOM     11  O   UNL     1      47.468   4.160  14.508  0.00  0.00    +0.000 OA
BRANCH  11  12
ATOM     12  C   UNL     1      47.390   4.368  15.935  0.00  0.00    +0.000 C 
ATOM     13  C   UNL     1      48.476   5.208  16.635  0.00  0.00    +0.000 C 
ATOM     14  N   UNL     1      48.865   4.059  17.475  0.00  0.00    +0.000 NA
ATOM     15  C   UNL     1      48.425   4.246  18.856  0.00  0.00    +0.000 C 
ATOM     16  C   UNL     1      47.936   3.176  16.759  0.00  0.00    +0.000 C 
ENDBRANCH  11  12
ENDBRANCH   8  11
ENDBRANCH   1   6
BRANCH   1  17
ATOM     17  C   UNL     1      43.114   5.091  11.040  0.00  0.00    +0.000 C 
BRANCH  17  18
ATOM     18  C   UNL     1      43.504   3.610  10.932  0.00  0.00    +0.000 C 
BRANCH  18  19
ATOM     19  C   UNL     1      44.501   3.370   9.829  0.00  0.00    +0.000 A 
ATOM     20  C   UNL     1      45.095   4.444   9.158  0.00  0.00    +0.000 A 
ATOM     21  C   UNL     1      46.017   4.212   8.131  0.00  0.00    +0.000 A 
ATOM     22  C   UNL     1      46.353   2.900   7.763  0.00  0.00    +0.000 A 
ATOM     23  C   UNL     1      45.751   1.838   8.433  0.00  0.00    +0.000 A 
ATOM     24  F   UNL     1      46.033   0.564   8.119  0.00  0.00    +0.000 F 
ATOM     25  C   UNL     1      44.828   2.063   9.454  0.00  0.00    +0.000 A 
BRANCH  22  26
ATOM     26  C   UNL     1      47.343   2.707   6.673  0.00  0.00    +0.000 C 
ATOM     27  N   UNL     1      47.057   3.214   5.441  0.00  0.00    +0.000 N 
ATOM     28  O   UNL     1      48.396   2.109   6.865  0.00  0.00    +0.000 OA
ATOM     29  H   UNL     1      46.199   3.712   5.233  0.00  0.00    +0.000 HD
ATOM     30  H   UNL     1      47.731   3.075   4.701  0.00  0.00    +0.000 HD
ENDBRANCH  22  26
ENDBRANCH  18  19
ENDBRANCH  17  18
ENDBRANCH   1  17
TORSDOF 8
ENDMDL
MODEL 2
REMARK VINA RESULT:    -7.390      2.224      4.385
REMARK INTER + INTRA:         -12.200
REMARK INTER:                 -11.334
REMARK INTRA:                  -0.866
REMARK UNBOUND:                -1.354
REMARK  Name = 
REMARK  10 active torsions:
REMARK  status: ('A' for Active; 'I' for Inactive)
REMARK    1  A    between atoms: C_1  and  O_2
REMARK    2  A    between atoms: O_2  and  C_3
REMARK    3  A    between atoms: C_6  and  N_7
REMARK    4  A    between atoms: N_7  and  C_8
REMARK    5  A    between atoms: C_8  and  C_9
REMARK    6  A    between atoms: C_9  and  C_10
REMARK    7  A    between atoms: C_13  and  C_14
REMARK    8  A    between atoms: C_21  and  O_22
REMARK    9  A    between atoms: O_22  and  C_23
REMARK   10  A    between atoms: N_25  and  C_26
REMARK                            x       y       z     vdW  Elec       q    Type
REMARK                         _______ _______ _______ _____ _____    ______ ____
ROOT
ATOM      1  N   UNL     1      44.021   4.268  12.784  0.00  0.00    +0.000 N 
ATOM      2  H   UNL     1      43.205   4.866  12.649  0.00  0.00    +0.000 HD
ENDROOT
BRANCH   1   6
ATOM      3  C   UNL     1      47.423   6.712  13.466  0.00  0.00    +0.000 A 
ATOM      4  C   UNL     1      47.295   5.432  14.032  0.00  0.00    +0.000 A 
ATOM      5  C   UNL     1      46.163   4.644  13.796  0.00  0.00    +0.000 A 
ATOM      6  C   UNL     1      45.139   5.090  12.964  0.00  0.00    +0.000 A 
ATOM      7  C   UNL     1      45.248   6.384  12.445  0.00  0.00    +0.000 A 
ATOM      8  C   UNL     1      46.371   7.193  12.677  0.00  0.00    +0.000 A 
BRANCH   3  10
ATOM      9  C   UNL     1      49.548   7.406  12.667  0.00  0.00    +0.000 C 
ATOM     10  O   UNL     1      48.522   7.506  13.654  0.00  0.00    +0.000 OA
ENDBRANCH   3  10
BRANCH   8  11
ATOM     11  O   UNL     1      46.306   8.373  11.975  0.00  0.00    +0.000 OA
BRANCH  11  12
ATOM     12  C   UNL     1      45.187   9.275  12.118  0.00  0.00    +0.000 C 
ATOM     13  C   UNL     1      44.159   9.386  10.976  0.00  0.00    +0.000 C 
ATOM     14  N   UNL     1      44.462  10.821  10.804  0.00  0.00    +0.000 NA
ATOM     15  C   UNL     1      43.368  11.652  11.306  0.00  0.00    +0.000 C 
ATOM     16  C   UNL     1      45.541  10.747  11.797  0.00  0.00    +0.000 C 
ENDBRANCH  11  12
ENDBRANCH   8  11
ENDBRANCH   1   6
BRANCH   1  17
ATOM     17  C   UNL     1      44.097   3.252  11.728  0.00  0.00    +0.000 C 
BRANCH  17  18
ATOM     18  C   UNL     1      43.829   3.869  10.348  0.00  0.00    +0.000 C 
BRANCH  18  19
ATOM     19  C   UNL     1      44.802   3.373   9.311  0.00  0.00    +0.000 A 
ATOM     20  C   UNL     1      45.430   4.265   8.436  0.00  0.00    +0.000 A 
ATOM     21  C   UNL     1      46.328   3.795   7.472  0.00  0.00    +0.000 A 
ATOM     22  C   UNL     1      46.607   2.423   7.372  0.00  0.00    +0.000 A 
ATOM     23  C   UNL     1      45.971   1.541   8.244  0.00  0.00    +0.000 A 
ATOM     24  F   UNL     1      46.198   0.220   8.190  0.00  0.00    +0.000 F 
ATOM     25  C   UNL     1      45.071   2.004   9.203  0.00  0.00    +0.000 A 
BRANCH  22  26
ATOM     26  C   UNL     1      47.574   1.974   6.339  0.00  0.00    +0.000 C 
ATOM     27  N   UNL     1      48.818   2.532   6.332  0.00  0.00    +0.000 N 
ATOM     28  O   UNL     1      47.275   1.123   5.510  0.00  0.00    +0.000 OA
ATOM     29  H   UNL     1      49.111   3.241   6.994  0.00  0.00    +0.000 HD
ATOM     30  H   UNL     1      49.472   2.227   5.623  0.00  0.00    +0.000 HD
ENDBRANCH  22  26
ENDBRANCH  18  19
ENDBRANCH  17  18
ENDBRANCH   1  17
TORSDOF 8
ENDMDL
MODEL 3
REMARK VINA RESULT:    -6.781      2.065      3.617
REMARK INTER + INTRA:         -11.307
REMARK INTER:                 -10.406
REMARK INTRA:                  -0.901
REMARK UNBOUND:                -1.354
REMARK  Name = 
REMARK  10 active torsions:
REMARK  status: ('A' for Active; 'I' for Inactive)
REMARK    1  A    between atoms: C_1  and  O_2
REMARK    2  A    between atoms: O_2  and  C_3
REMARK    3  A    between atoms: C_6  and  N_7
REMARK    4  A    between atoms: N_7  and  C_8
REMARK    5  A    between atoms: C_8  and  C_9
REMARK    6  A    between atoms: C_9  and  C_10
REMARK    7  A    between atoms: C_13  and  C_14
REMARK    8  A    between atoms: C_21  and  O_22
REMARK    9  A    between atoms: O_22  and  C_23
REMARK   10  A    between atoms: N_25  and  C_26
REMARK                            x       y       z     vdW  Elec       q    Type
REMARK                         _______ _______ _______ _____ _____    ______ ____
ROOT
ATOM      1  N   UNL     1      44.671   5.171  12.051  0.00  0.00    +0.000 N 
ATOM      2  H   UNL     1      44.706   5.651  11.151  0.00  0.00    +0.000 HD
ENDROOT
BRANCH   1   6
ATOM      3  C   UNL     1      48.006   6.283  14.428  0.00  0.00    +0.000 A 
ATOM      4  C   UNL     1      47.436   5.001  14.493  0.00  0.00    +0.000 A 
ATOM      5  C   UNL     1      46.334   4.656  13.702  0.00  0.00    +0.000 A 
ATOM      6  C   UNL     1      45.787   5.565  12.799  0.00  0.00    +0.000 A 
ATOM      7  C   UNL     1      46.327   6.854  12.775  0.00  0.00    +0.000 A 
ATOM      8  C   UNL     1      47.425   7.222  13.567  0.00  0.00    +0.000 A 
BRANCH   3  10
ATOM      9  C   UNL     1      49.175   6.117  16.487  0.00  0.00    +0.000 C 
ATOM     10  O   UNL     1      49.097   6.655  15.168  0.00  0.00    +0.000 OA
ENDBRANCH   3  10
BRANCH   8  11
ATOM     11  O   UNL     1      47.850   8.500  13.292  0.00  0.00    +0.000 OA
BRANCH  11  12
ATOM     12  C   UNL     1      48.798   8.770  12.237  0.00  0.00    +0.000 C 
ATOM     13  C   UNL     1      49.680   7.623  11.705  0.00  0.00    +0.000 C 
ATOM     14  N   UNL     1      50.906   8.340  12.109  0.00  0.00    +0.000 NA
ATOM     15  C   UNL     1      51.615   8.863  10.943  0.00  0.00    +0.000 C 
ATOM     16  C   UNL     1      50.117   9.402  12.745  0.00  0.00    +0.000 C 
ENDBRANCH  11  12
ENDBRANCH   8  11
ENDBRANCH   1   6
BRANCH   1  17
ATOM     17  C   UNL     1      44.463   3.731  11.861  0.00  0.00    +0.000 C 
BRANCH  17  18
ATOM     18  C   UNL     1      43.733   3.448  10.541  0.00  0.00    +0.000 C 
BRANCH  18  19
ATOM     19  C   UNL     1      44.695   3.184   9.412  0.00  0.00    +0.000 A 
ATOM     20  C   UNL     1      45.134   4.227   8.589  0.00  0.00    +0.000 A 
ATOM     21  C   UNL     1      46.024   3.972   7.540  0.00  0.00    +0.000 A 
ATOM     22  C   UNL     1      46.484   2.667   7.301  0.00  0.00    +0.000 A 
ATOM     23  C   UNL     1      46.035   1.635   8.121  0.00  0.00    +0.000 A 
ATOM     24  F   UNL     1      46.439   0.369   7.936  0.00  0.00    +0.000 F 
ATOM     25  C   UNL     1      45.145   1.882   9.166  0.00  0.00    +0.000 A 
BRANCH  22  26
ATOM     26  C   UNL     1      47.434   2.449   6.181  0.00  0.00    +0.000 C 
ATOM     27  N   UNL     1      48.770   2.491   6.449  0.00  0.00    +0.000 N 
ATOM     28  O   UNL     1      47.040   2.234   5.041  0.00  0.00    +0.000 OA
ATOM     29  H   UNL     1      49.144   2.669   7.374  0.00  0.00    +0.000 HD
ATOM     30  H   UNL     1      49.414   2.347   5.682  0.00  0.00    +0.000 HD
ENDBRANCH  22  26
ENDBRANCH  18  19
ENDBRANCH  17  18
ENDBRANCH   1  17
TORSDOF 8
ENDMDL
MODEL 4
REMARK VINA RESULT:    -6.428      3.204      3.969
REMARK INTER + INTRA:         -10.788
REMARK INTER:                  -9.939
REMARK INTRA:                  -0.850
REMARK UNBOUND:                -1.354
REMARK  Name = 
REMARK  10 active torsions:
REMARK  status: ('A' for Active; 'I' for Inactive)
REMARK    1  A    between atoms: C_1  and  O_2
REMARK    2  A    between atoms: O_2  and  C_3
REMARK    3  A    between atoms: C_6  and  N_7
REMARK    4  A    between atoms: N_7  and  C_8
REMARK    5  A    between atoms: C_8  and  C_9
REMARK    6  A    between atoms: C_9  and  C_10
REMARK    7  A    between atoms: C_13  and  C_14
REMARK    8  A    between atoms: C_21  and  O_22
REMARK    9  A    between atoms: O_22  and  C_23
REMARK   10  A    between atoms: N_25  and  C_26
REMARK                            x       y       z     vdW  Elec       q    Type
REMARK                         _______ _______ _______ _____ _____    ______ ____
ROOT
ATOM      1  N   UNL     1      43.962   6.706  11.132  0.00  0.00    +0.000 N 
ATOM      2  H   UNL     1      43.589   6.852  10.194  0.00  0.00    +0.000 HD
ENDROOT
BRANCH   1   6
ATOM      3  C   UNL     1      46.258  10.157  12.045  0.00  0.00    +0.000 A 
ATOM      4  C   UNL     1      45.042  10.230  11.344  0.00  0.00    +0.000 A 
ATOM      5  C   UNL     1      44.302   9.079  11.051  0.00  0.00    +0.000 A 
ATOM      6  C   UNL     1      44.732   7.824  11.474  0.00  0.00    +0.000 A 
ATOM      7  C   UNL     1      45.967   7.751  12.127  0.00  0.00    +0.000 A 
ATOM      8  C   UNL     1      46.727   8.893  12.422  0.00  0.00    +0.000 A 
BRANCH   3  10
ATOM      9  C   UNL     1      47.732  11.863  11.304  0.00  0.00    +0.000 C 
ATOM     10  O   UNL     1      47.001  11.259  12.371  0.00  0.00    +0.000 OA
ENDBRANCH   3  10
BRANCH   8  11
ATOM     11  O   UNL     1      47.842   8.587  13.164  0.00  0.00    +0.000 OA
BRANCH  11  12
ATOM     12  C   UNL     1      49.002   7.970  12.565  0.00  0.00    +0.000 C 
ATOM     13  C   UNL     1      50.399   8.277  13.137  0.00  0.00    +0.000 C 
ATOM     14  N   UNL     1      50.836   8.844  11.846  0.00  0.00    +0.000 NA
ATOM     15  C   UNL     1      51.771   7.948  11.169  0.00  0.00    +0.000 C 
ATOM     16  C   UNL     1      49.488   8.692  11.284  0.00  0.00    +0.000 C 
ENDBRANCH  11  12
ENDBRANCH   8  11
ENDBRANCH   1   6
BRANCH   1  17
ATOM     17  C   UNL     1      44.605   5.390  11.234  0.00  0.00    +0.000 C 
BRANCH  17  18
ATOM     18  C   UNL     1      43.893   4.359  10.348  0.00  0.00    +0.000 C 
BRANCH  18  19
ATOM     19  C   UNL     1      44.828   3.743   9.340  0.00  0.00    +0.000 A 
ATOM     20  C   UNL     1      45.565   4.547   8.465  0.00  0.00    +0.000 A 
ATOM     21  C   UNL     1      46.427   3.966   7.528  0.00  0.00    +0.000 A 
ATOM     22  C   UNL     1      46.560   2.571   7.456  0.00  0.00    +0.000 A 
ATOM     23  C   UNL     1      45.816   1.778   8.327  0.00  0.00    +0.000 A 
ATOM     24  F   UNL     1      45.901   0.439   8.299  0.00  0.00    +0.000 F 
ATOM     25  C   UNL     1      44.951   2.351   9.260  0.00  0.00    +0.000 A 
BRANCH  22  26
ATOM     26  C   UNL     1      47.494   2.003   6.452  0.00  0.00    +0.000 C 
ATOM     27  N   UNL     1      48.770   2.483   6.410  0.00  0.00    +0.000 N 
ATOM     28  O   UNL     1      47.141   1.123   5.675  0.00  0.00    +0.000 OA
ATOM     29  H   UNL     1      49.107   3.212   7.029  0.00  0.00    +0.000 HD
ATOM     30  H   UNL     1      49.401   2.097   5.721  0.00  0.00    +0.000 HD
ENDBRANCH  22  26
ENDBRANCH  18  19
ENDBRANCH  17  18
ENDBRANCH   1  17
TORSDOF 8
ENDMDL
MODEL 5
REMARK VINA RESULT:    -6.137      3.597      8.378
REMARK INTER + INTRA:         -10.361
REMARK INTER:                  -9.894
REMARK INTRA:                  -0.467
REMARK UNBOUND:                -1.354
REMARK  Name = 
REMARK  10 active torsions:
REMARK  status: ('A' for Active; 'I' for Inactive)
REMARK    1  A    between atoms: C_1  and  O_2
REMARK    2  A    between atoms: O_2  and  C_3
REMARK    3  A    between atoms: C_6  and  N_7
REMARK    4  A    between atoms: N_7  and  C_8
REMARK    5  A    between atoms: C_8  and  C_9
REMARK    6  A    between atoms: C_9  and  C_10
REMARK    7  A    between atoms: C_13  and  C_14
REMARK    8  A    between atoms: C_21  and  O_22
REMARK    9  A    between atoms: O_22  and  C_23
REMARK   10  A    between atoms: N_25  and  C_26
REMARK                            x       y       z     vdW  Elec       q    Type
REMARK                         _______ _______ _______ _____ _____    ______ ____
ROOT
ATOM      1  N   UNL     1      47.079   3.878  14.853  0.00  0.00    +0.000 N 
ATOM      2  H   UNL     1      47.948   3.525  14.450  0.00  0.00    +0.000 HD
ENDROOT
BRANCH   1   6
ATOM      3  C   UNL     1      45.528   6.889  12.296  0.00  0.00    +0.000 A 
ATOM      4  C   UNL     1      46.728   7.057  13.008  0.00  0.00    +0.000 A 
ATOM      5  C   UNL     1      47.220   6.052  13.848  0.00  0.00    +0.000 A 
ATOM      6  C   UNL     1      46.552   4.837  13.980  0.00  0.00    +0.000 A 
ATOM      7  C   UNL     1      45.333   4.695  13.309  0.00  0.00    +0.000 A 
ATOM      8  C   UNL     1      44.819   5.695  12.469  0.00  0.00    +0.000 A 
BRANCH   3  10
ATOM      9  C   UNL     1      45.056   9.185  11.918  0.00  0.00    +0.000 C 
ATOM     10  O   UNL     1      45.023   7.838  11.448  0.00  0.00    +0.000 OA
ENDBRANCH   3  10
BRANCH   8  11
ATOM     11  O   UNL     1      43.672   5.287  11.832  0.00  0.00    +0.000 OA
BRANCH  11  12
ATOM     12  C   UNL     1      43.714   4.642  10.541  0.00  0.00    +0.000 C 
ATOM     13  C   UNL     1      43.913   3.116  10.467  0.00  0.00    +0.000 C 
ATOM     14  N   UNL     1      45.164   3.287   9.702  0.00  0.00    +0.000 NA
ATOM     15  C   UNL     1      44.980   2.908   8.303  0.00  0.00    +0.000 C 
ATOM     16  C   UNL     1      45.095   4.746   9.848  0.00  0.00    +0.000 C 
ENDBRANCH  11  12
ENDBRANCH   8  11
ENDBRANCH   1   6
BRANCH   1  17
ATOM     17  C   UNL     1      47.282   4.279  16.250  0.00  0.00    +0.000 C 
BRANCH  17  18
ATOM     18  C   UNL     1      47.663   3.073  17.120  0.00  0.00    +0.000 C 
BRANCH  18  19
ATOM     19  C   UNL     1      49.138   3.042  17.423  0.00  0.00    +0.000 A 
ATOM     20  C   UNL     1      49.757   4.116  18.072  0.00  0.00    +0.000 A 
ATOM     21  C   UNL     1      51.128   4.081  18.345  0.00  0.00    +0.000 A 
ATOM     22  C   UNL     1      51.898   2.969  17.969  0.00  0.00    +0.000 A 
ATOM     23  C   UNL     1      51.274   1.909  17.316  0.00  0.00    +0.000 A 
ATOM     24  F   UNL     1      51.963   0.823  16.932  0.00  0.00    +0.000 F 
ATOM     25  C   UNL     1      49.909   1.939  17.037  0.00  0.00    +0.000 A 
BRANCH  22  26
ATOM     26  C   UNL     1      53.348   2.976  18.289  0.00  0.00    +0.000 C 
ATOM     27  N   UNL     1      53.770   2.298  19.394  0.00  0.00    +0.000 N 
ATOM     28  O   UNL     1      54.156   3.570  17.584  0.00  0.00    +0.000 OA
ATOM     29  H   UNL     1      53.140   1.796  20.009  0.00  0.00    +0.000 HD
ATOM     30  H   UNL     1      54.757   2.310  19.612  0.00  0.00    +0.000 HD
ENDBRANCH  22  26
ENDBRANCH  18  19
ENDBRANCH  17  18
ENDBRANCH   1  17
TORSDOF 8
ENDMDL
MODEL 6
REMARK VINA RESULT:    -5.823      3.979      7.725
REMARK INTER + INTRA:          -9.901
REMARK INTER:                  -8.437
REMARK INTRA:                  -1.464
REMARK UNBOUND:                -1.354
REMARK  Name = 
REMARK  10 active torsions:
REMARK  status: ('A' for Active; 'I' for Inactive)
REMARK    1  A    between atoms: C_1  and  O_2
REMARK    2  A    between atoms: O_2  and  C_3
REMARK    3  A    between atoms: C_6  and  N_7
REMARK    4  A    between atoms: N_7  and  C_8
REMARK    5  A    between atoms: C_8  and  C_9
REMARK    6  A    between atoms: C_9  and  C_10
REMARK    7  A    between atoms: C_13  and  C_14
REMARK    8  A    between atoms: C_21  and  O_22
REMARK    9  A    between atoms: O_22  and  C_23
REMARK   10  A    between atoms: N_25  and  C_26
REMARK                            x       y       z     vdW  Elec       q    Type
REMARK                         _______ _______ _______ _____ _____    ______ ____
ROOT
ATOM      1  N   UNL     1      47.973   8.926  16.667  0.00  0.00    +0.000 N 
ATOM      2  H   UNL     1      46.996   8.633  16.705  0.00  0.00    +0.000 HD
ENDROOT
BRANCH   1   6
ATOM      3  C   UNL     1      49.609   7.749  12.932  0.00  0.00    +0.000 A 
ATOM      4  C   UNL     1      49.985   8.942  13.571  0.00  0.00    +0.000 A 
ATOM      5  C   UNL     1      49.431   9.313  14.802  0.00  0.00    +0.000 A 
ATOM      6  C   UNL     1      48.510   8.493  15.450  0.00  0.00    +0.000 A 
ATOM      7  C   UNL     1      48.102   7.332  14.785  0.00  0.00    +0.000 A 
ATOM      8  C   UNL     1      48.640   6.948  13.547  0.00  0.00    +0.000 A 
BRANCH   3  10
ATOM      9  C   UNL     1      51.202   8.139  11.216  0.00  0.00    +0.000 C 
ATOM     10  O   UNL     1      50.142   7.340  11.739  0.00  0.00    +0.000 OA
ENDBRANCH   3  10
BRANCH   8  11
ATOM     11  O   UNL     1      48.172   5.720  13.145  0.00  0.00    +0.000 OA
BRANCH  11  12
ATOM     12  C   UNL     1      46.810   5.313  13.394  0.00  0.00    +0.000 C 
ATOM     13  C   UNL     1      46.440   3.820  13.306  0.00  0.00    +0.000 C 
ATOM     14  N   UNL     1      45.478   4.092  12.220  0.00  0.00    +0.000 NA
ATOM     15  C   UNL     1      44.101   3.971  12.697  0.00  0.00    +0.000 C 
ATOM     16  C   UNL     1      45.878   5.504  12.172  0.00  0.00    +0.000 C 
ENDBRANCH  11  12
ENDBRANCH   8  11
ENDBRANCH   1   6
BRANCH   1  17
ATOM     17  C   UNL     1      48.679   8.533  17.892  0.00  0.00    +0.000 C 
BRANCH  17  18
ATOM     18  C   UNL     1      47.956   7.378  18.598  0.00  0.00    +0.000 C 
BRANCH  18  19
ATOM     19  C   UNL     1      48.510   6.037  18.193  0.00  0.00    +0.000 A 
ATOM     20  C   UNL     1      47.702   4.895  18.214  0.00  0.00    +0.000 A 
ATOM     21  C   UNL     1      48.225   3.652  17.840  0.00  0.00    +0.000 A 
ATOM     22  C   UNL     1      49.566   3.538  17.443  0.00  0.00    +0.000 A 
ATOM     23  C   UNL     1      50.365   4.679  17.433  0.00  0.00    +0.000 A 
ATOM     24  F   UNL     1      51.654   4.627  17.065  0.00  0.00    +0.000 F 
ATOM     25  C   UNL     1      49.850   5.920  17.808  0.00  0.00    +0.000 A 
BRANCH  22  26
ATOM     26  C   UNL     1      50.072   2.199  17.048  0.00  0.00    +0.000 C 
ATOM     27  N   UNL     1      51.002   1.598  17.843  0.00  0.00    +0.000 N 
ATOM     28  O   UNL     1      49.670   1.637  16.036  0.00  0.00    +0.000 OA
ATOM     29  H   UNL     1      51.368   2.024  18.686  0.00  0.00    +0.000 HD
ATOM     30  H   UNL     1      51.348   0.689  17.567  0.00  0.00    +0.000 HD
ENDBRANCH  22  26
ENDBRANCH  18  19
ENDBRANCH  17  18
ENDBRANCH   1  17
TORSDOF 8
ENDMDL
MODEL 7
REMARK VINA RESULT:    -5.757      3.637      5.517
REMARK INTER + INTRA:          -9.804
REMARK INTER:                  -8.861
REMARK INTRA:                  -0.942
REMARK UNBOUND:                -1.354
REMARK  Name = 
REMARK  10 active torsions:
REMARK  status: ('A' for Active; 'I' for Inactive)
REMARK    1  A    between atoms: C_1  and  O_2
REMARK    2  A    between atoms: O_2  and  C_3
REMARK    3  A    between atoms: C_6  and  N_7
REMARK    4  A    between atoms: N_7  and  C_8
REMARK    5  A    between atoms: C_8  and  C_9
REMARK    6  A    between atoms: C_9  and  C_10
REMARK    7  A    between atoms: C_13  and  C_14
REMARK    8  A    between atoms: C_21  and  O_22
REMARK    9  A    between atoms: O_22  and  C_23
REMARK   10  A    between atoms: N_25  and  C_26
REMARK                            x       y       z     vdW  Elec       q    Type
REMARK                         _______ _______ _______ _____ _____    ______ ____
ROOT
ATOM      1  N   UNL     1      49.287   7.913  14.961  0.00  0.00    +0.000 N 
ATOM      2  H   UNL     1      50.303   7.990  15.008  0.00  0.00    +0.000 HD
ENDROOT
BRANCH   1   6
ATOM      3  C   UNL     1      48.004   6.390  18.709  0.00  0.00    +0.000 A 
ATOM      4  C   UNL     1      48.338   7.742  18.526  0.00  0.00    +0.000 A 
ATOM      5  C   UNL     1      48.762   8.223  17.282  0.00  0.00    +0.000 A 
ATOM      6  C   UNL     1      48.835   7.381  16.174  0.00  0.00    +0.000 A 
ATOM      7  C   UNL     1      48.549   6.027  16.375  0.00  0.00    +0.000 A 
ATOM      8  C   UNL     1      48.132   5.524  17.616  0.00  0.00    +0.000 A 
BRANCH   3  10
ATOM      9  C   UNL     1      48.569   5.620  20.882  0.00  0.00    +0.000 C 
ATOM     10  O   UNL     1      47.565   5.883  19.903  0.00  0.00    +0.000 OA
ENDBRANCH   3  10
BRANCH   8  11
ATOM     11  O   UNL     1      47.801   4.192  17.544  0.00  0.00    +0.000 OA
BRANCH  11  12
ATOM     12  C   UNL     1      48.747   3.160  17.899  0.00  0.00    +0.000 C 
ATOM     13  C   UNL     1      50.246   3.507  17.981  0.00  0.00    +0.000 C 
ATOM     14  N   UNL     1      50.560   2.528  16.921  0.00  0.00    +0.000 NA
ATOM     15  C   UNL     1      51.232   1.354  17.474  0.00  0.00    +0.000 C 
ATOM     16  C   UNL     1      49.135   2.247  16.710  0.00  0.00    +0.000 C 
ENDBRANCH  11  12
ENDBRANCH   8  11
ENDBRANCH   1   6
BRANCH   1  17
ATOM     17  C   UNL     1      48.876   7.227  13.731  0.00  0.00    +0.000 C 
BRANCH  17  18
ATOM     18  C   UNL     1      47.552   7.793  13.200  0.00  0.00    +0.000 C 
BRANCH  18  19
ATOM     19  C   UNL     1      46.563   6.704  12.880  0.00  0.00    +0.000 A 
ATOM     20  C   UNL     1      46.727   5.415  13.398  0.00  0.00    +0.000 A 
ATOM     21  C   UNL     1      45.806   4.407  13.091  0.00  0.00    +0.000 A 
ATOM     22  C   UNL     1      44.709   4.679  12.259  0.00  0.00    +0.000 A 
ATOM     23  C   UNL     1      44.558   5.964  11.743  0.00  0.00    +0.000 A 
ATOM     24  F   UNL     1      43.529   6.277  10.940  0.00  0.00    +0.000 F 
ATOM     25  C   UNL     1      45.475   6.971  12.041  0.00  0.00    +0.000 A 
BRANCH  22  26
ATOM     26  C   UNL     1      43.754   3.579  11.971  0.00  0.00    +0.000 C 
ATOM     27  N   UNL     1      43.975   2.363  12.548  0.00  0.00    +0.000 N 
ATOM     28  O   UNL     1      42.788   3.747  11.236  0.00  0.00    +0.000 OA
ATOM     29  H   UNL     1      44.761   2.175  13.159  0.00  0.00    +0.000 HD
ATOM     30  H   UNL     1      43.325   1.615  12.345  0.00  0.00    +0.000 HD
ENDBRANCH  22  26
ENDBRANCH  18  19
ENDBRANCH  17  18
ENDBRANCH   1  17
TORSDOF 8
ENDMDL
MODEL 8
REMARK VINA RESULT:    -5.595      2.238      2.659
REMARK INTER + INTRA:          -9.566
REMARK INTER:                  -8.654
REMARK INTRA:                  -0.912
REMARK UNBOUND:                -1.354
REMARK  Name = 
REMARK  10 active torsions:
REMARK  status: ('A' for Active; 'I' for Inactive)
REMARK    1  A    between atoms: C_1  and  O_2
REMARK    2  A    between atoms: O_2  and  C_3
REMARK    3  A    between atoms: C_6  and  N_7
REMARK    4  A    between atoms: N_7  and  C_8
REMARK    5  A    between atoms: C_8  and  C_9
REMARK    6  A    between atoms: C_9  and  C_10
REMARK    7  A    between atoms: C_13  and  C_14
REMARK    8  A    between atoms: C_21  and  O_22
REMARK    9  A    between atoms: O_22  and  C_23
REMARK   10  A    between atoms: N_25  and  C_26
REMARK                            x       y       z     vdW  Elec       q    Type
REMARK                         _______ _______ _______ _____ _____    ______ ____
ROOT
ATOM      1  N   UNL     1      44.983   6.636  12.518  0.00  0.00    +0.000 N 
ATOM      2  H   UNL     1      44.446   7.124  11.801  0.00  0.00    +0.000 HD
ENDROOT
BRANCH   1   6
ATOM      3  C   UNL     1      48.940   8.172  12.535  0.00  0.00    +0.000 A 
ATOM      4  C   UNL     1      48.455   7.366  11.493  0.00  0.00    +0.000 A 
ATOM      5  C   UNL     1      47.147   6.867  11.508  0.00  0.00    +0.000 A 
ATOM      6  C   UNL     1      46.272   7.182  12.545  0.00  0.00    +0.000 A 
ATOM      7  C   UNL     1      46.776   7.943  13.604  0.00  0.00    +0.000 A 
ATOM      8  C   UNL     1      48.086   8.445  13.611  0.00  0.00    +0.000 A 
BRANCH   3  10
ATOM      9  C   UNL     1      51.026   8.387  11.425  0.00  0.00    +0.000 C 
ATOM     10  O   UNL     1      50.204   8.697  12.549  0.00  0.00    +0.000 OA
ENDBRANCH   3  10
BRANCH   8  11
ATOM     11  O   UNL     1      48.318   9.255  14.696  0.00  0.00    +0.000 OA
BRANCH  11  12
ATOM     12  C   UNL     1      48.445   8.714  16.029  0.00  0.00    +0.000 C 
ATOM     13  C   UNL     1      49.348   9.431  17.051  0.00  0.00    +0.000 C 
ATOM     14  N   UNL     1      50.200   8.233  17.182  0.00  0.00    +0.000 NA
ATOM     15  C   UNL     1      49.984   7.572  18.468  0.00  0.00    +0.000 C 
ATOM     16  C   UNL     1      49.453   7.543  16.123  0.00  0.00    +0.000 C 
ENDBRANCH  11  12
ENDBRANCH   8  11
ENDBRANCH   1   6
BRANCH   1  17
ATOM     17  C   UNL     1      44.873   5.183  12.349  0.00  0.00    +0.000 C 
BRANCH  17  18
ATOM     18  C   UNL     1      43.983   4.834  11.148  0.00  0.00    +0.000 C 
BRANCH  18  19
ATOM     19  C   UNL     1      44.772   4.215  10.024  0.00  0.00    +0.000 A 
ATOM     20  C   UNL     1      45.523   5.013   9.155  0.00  0.00    +0.000 A 
ATOM     21  C   UNL     1      46.250   4.430   8.111  0.00  0.00    +0.000 A 
ATOM     22  C   UNL     1      46.231   3.040   7.924  0.00  0.00    +0.000 A 
ATOM     23  C   UNL     1      45.474   2.254   8.790  0.00  0.00    +0.000 A 
ATOM     24  F   UNL     1      45.418   0.920   8.655  0.00  0.00    +0.000 F 
ATOM     25  C   UNL     1      44.745   2.829   9.830  0.00  0.00    +0.000 A 
BRANCH  22  26
ATOM     26  C   UNL     1      47.025   2.468   6.807  0.00  0.00    +0.000 C 
ATOM     27  N   UNL     1      47.009   3.113   5.606  0.00  0.00    +0.000 N 
ATOM     28  O   UNL     1      47.684   1.445   6.949  0.00  0.00    +0.000 OA
ATOM     29  H   UNL     1      46.478   3.960   5.439  0.00  0.00    +0.000 HD
ATOM     30  H   UNL     1      47.548   2.718   4.846  0.00  0.00    +0.000 HD
ENDBRANCH  22  26
ENDBRANCH  18  19
ENDBRANCH  17  18
ENDBRANCH   1  17
TORSDOF 8
ENDMDL
MODEL 9
REMARK VINA RESULT:    -5.504      3.719      5.432
REMARK INTER + INTRA:          -9.433
REMARK INTER:                  -7.970
REMARK INTRA:                  -1.463
REMARK UNBOUND:                -1.354
REMARK  Name = 
REMARK  10 active torsions:
REMARK  status: ('A' for Active; 'I' for Inactive)
REMARK    1  A    between atoms: C_1  and  O_2
REMARK    2  A    between atoms: O_2  and  C_3
REMARK    3  A    between atoms: C_6  and  N_7
REMARK    4  A    between atoms: N_7  and  C_8
REMARK    5  A    between atoms: C_8  and  C_9
REMARK    6  A    between atoms: C_9  and  C_10
REMARK    7  A    between atoms: C_13  and  C_14
REMARK    8  A    between atoms: C_21  and  O_22
REMARK    9  A    between atoms: O_22  and  C_23
REMARK   10  A    between atoms: N_25  and  C_26
REMARK                            x       y       z     vdW  Elec       q    Type
REMARK                         _______ _______ _______ _____ _____    ______ ____
ROOT
ATOM      1  N   UNL     1      50.222   8.283  13.305  0.00  0.00    +0.000 N 
ATOM      2  H   UNL     1      51.241   8.284  13.252  0.00  0.00    +0.000 HD
ENDROOT
BRANCH   1   6
ATOM      3  C   UNL     1      49.117   8.130  17.400  0.00  0.00    +0.000 A 
ATOM      4  C   UNL     1      48.696   9.166  16.550  0.00  0.00    +0.000 A 
ATOM      5  C   UNL     1      49.075   9.199  15.203  0.00  0.00    +0.000 A 
ATOM      6  C   UNL     1      49.855   8.185  14.653  0.00  0.00    +0.000 A 
ATOM      7  C   UNL     1      50.312   7.184  15.515  0.00  0.00    +0.000 A 
ATOM      8  C   UNL     1      49.951   7.139  16.870  0.00  0.00    +0.000 A 
BRANCH   3  10
ATOM      9  C   UNL     1      47.380   7.755  18.974  0.00  0.00    +0.000 C 
ATOM     10  O   UNL     1      48.752   8.049  18.717  0.00  0.00    +0.000 OA
ENDBRANCH   3  10
BRANCH   8  11
ATOM     11  O   UNL     1      50.425   6.007  17.489  0.00  0.00    +0.000 OA
BRANCH  11  12
ATOM     12  C   UNL     1      49.730   4.745  17.390  0.00  0.00    +0.000 C 
ATOM     13  C   UNL     1      48.372   4.688  16.663  0.00  0.00    +0.000 C 
ATOM     14  N   UNL     1      47.700   4.225  17.893  0.00  0.00    +0.000 NA
ATOM     15  C   UNL     1      47.338   2.813  17.793  0.00  0.00    +0.000 C 
ATOM     16  C   UNL     1      48.937   4.380  18.668  0.00  0.00    +0.000 C 
ENDBRANCH  11  12
ENDBRANCH   8  11
ENDBRANCH   1   6
BRANCH   1  17
ATOM     17  C   UNL     1      49.657   7.293  12.381  0.00  0.00    +0.000 C 
BRANCH  17  18
ATOM     18  C   UNL     1      48.321   7.780  11.802  0.00  0.00    +0.000 C 
BRANCH  18  19
ATOM     19  C   UNL     1      47.216   6.781  12.021  0.00  0.00    +0.000 A 
ATOM     20  C   UNL     1      46.240   6.569  11.041  0.00  0.00    +0.000 A 
ATOM     21  C   UNL     1      45.214   5.642  11.254  0.00  0.00    +0.000 A 
ATOM     22  C   UNL     1      45.152   4.917  12.454  0.00  0.00    +0.000 A 
ATOM     23  C   UNL     1      46.123   5.140  13.427  0.00  0.00    +0.000 A 
ATOM     24  F   UNL     1      46.110   4.477  14.593  0.00  0.00    +0.000 F 
ATOM     25  C   UNL     1      47.146   6.066  13.222  0.00  0.00    +0.000 A 
BRANCH  22  26
ATOM     26  C   UNL     1      44.048   3.939  12.629  0.00  0.00    +0.000 C 
ATOM     27  N   UNL     1      44.331   2.613  12.490  0.00  0.00    +0.000 N 
ATOM     28  O   UNL     1      42.908   4.302  12.895  0.00  0.00    +0.000 OA
ATOM     29  H   UNL     1      45.257   2.265  12.268  0.00  0.00    +0.000 HD
ATOM     30  H   UNL     1      43.576   1.950  12.605  0.00  0.00    +0.000 HD
ENDBRANCH  22  26
ENDBRANCH  18  19
ENDBRANCH  17  18
ENDBRANCH   1  17
TORSDOF 8
ENDMDL
