MODEL 1
REMARK VINA RESULT:    -7.920      0.000      0.000
REMARK INTER + INTRA:         -13.054
REMARK INTER:                 -11.393
REMARK INTRA:                  -1.661
REMARK UNBOUND:                -1.661
REMARK  Name = 
REMARK  8 active torsions:
REMARK  status: ('A' for Active; 'I' for Inactive)
REMARK    1  A    between atoms: C_2  and  C_20
REMARK    2  A    between atoms: N_3  and  C_4
REMARK    3  A    between atoms: C_4  and  C_5
REMARK    4  A    between atoms: C_8  and  C_9
REMARK    5  A    between atoms: C_9  and  C_10
REMARK    6  A    between atoms: C_10  and  C_11
REMARK    7  A    between atoms: C_11  and  C_12
REMARK    8  A    between atoms: C_27  and  O_28
REMARK                            x       y       z     vdW  Elec       q    Type
REMARK                         _______ _______ _______ _____ _____    ______ ____
ROOT
ATOM      1  C   UNL     1      47.325   8.512  13.278  0.00  0.00    +0.000 C 
ENDROOT
BRANCH   1   2
ATOM      2  C   UNL     1      46.467   7.511  12.559  0.00  0.00    +0.000 A 
ATOM      3  C   UNL     1      47.001   6.727  11.520  0.00  0.00    +0.000 A 
ATOM      4  C   UNL     1      46.214   5.773  10.876  0.00  0.00    +0.000 A 
ATOM      5  C   UNL     1      44.873   5.593  11.236  0.00  0.00    +0.000 A 
ATOM      6  C   UNL     1      44.330   6.395  12.247  0.00  0.00    +0.000 A 
ATOM      7  C   UNL     1      45.120   7.342  12.904  0.00  0.00    +0.000 A 
BRANCH   5   8
ATOM      8  C   UNL     1      44.033   4.532  10.569  0.00  0.00    +0.000 C 
BRANCH   8   9
ATOM      9  C   UNL     1      44.680   3.141  10.557  0.00  0.00    +0.000 C 
BRANCH   9  10
ATOM     10  C   UNL     1      44.404   2.355   9.271  0.00  0.00    +0.000 C 
BRANCH  10  11
ATOM     11  C   UNL     1      45.579   2.380   8.322  0.00  0.00    +0.000 A 
ATOM     12  C   UNL     1      45.935   3.567   7.668  0.00  0.00    +0.000 A 
ATOM     13  C   UNL     1      47.025   3.596   6.798  0.00  0.00    +0.000 A 
ATOM     14  C   UNL     1      47.763   2.438   6.564  0.00  0.00    +0.000 A 
ATOM     15  C   UNL     1      47.404   1.249   7.196  0.00  0.00    +0.000 A 
ATOM     16  C   UNL     1      46.320   1.219   8.075  0.00  0.00    +0.000 A 
ENDBRANCH  10  11
ENDBRANCH   9  10
ENDBRANCH   8   9
ENDBRANCH   5   8
ENDBRANCH   1   2
BRANCH   1  19
ATOM     17  O   UNL     1      49.841   7.716  14.041  0.00  0.00    +0.000 OA
ATOM     18  C   UNL     1      48.921   7.569  14.845  0.00  0.00    +0.000 C 
ATOM     19  N   UNL     1      47.670   8.072  14.603  0.00  0.00    +0.000 N 
ATOM     20  H   UNL     1      46.920   7.794  15.229  0.00  0.00    +0.000 HD
BRANCH  18  21
ATOM     21  C   UNL     1      49.119   6.810  16.085  0.00  0.00    +0.000 A 
ATOM     22  C   UNL     1      50.023   7.288  17.022  0.00  0.00    +0.000 A 
ATOM     23  S   UNL     1      50.309   6.207  18.297  0.00  0.00    +0.000 S 
ATOM     24  C   UNL     1      49.383   4.980  17.528  0.00  0.00    +0.000 A 
ATOM     25  C   UNL     1      49.359   3.617  17.880  0.00  0.00    +0.000 A 
ATOM     26  C   UNL     1      48.547   2.747  17.158  0.00  0.00    +0.000 A 
ATOM     27  C   UNL     1      47.665   3.241  16.211  0.00  0.00    +0.000 A 
ATOM     28  C   UNL     1      47.671   4.603  15.893  0.00  0.00    +0.000 A 
ATOM     29  C   UNL     1      48.627   5.490  16.461  0.00  0.00    +0.000 A 
BRANCH  28  30
ATOM     30  O   UNL     1      46.730   5.063  14.999  0.00  0.00    +0.000 OA
ATOM     31  H   UNL     1      46.050   4.372  14.895  0.00  0.00    +0.000 HD
ENDBRANCH  28  30
ENDBRANCH  18  21
ENDBRANCH   1  19
TORSDOF 8
ENDMDL
MODEL 2
REMARK VINA RESULT:    -7.828      1.275      1.714
REMARK INTER + INTRA:         -12.922
REMARK INTER:                 -11.671
REMARK INTRA:                  -1.251
REMARK UNBOUND:                -1.661
REMARK  Name = 
REMARK  8 active torsions:
REMARK  status: ('A' for Active; 'I' for Inactive)
REMARK    1  A    between atoms: C_2  and  C_20
REMARK    2  A    between atoms: N_3  and  C_4
REMARK    3  A    between atoms: C_4  and  C_5
REMARK    4  A    between atoms: C_8  and  C_9
REMARK    5  A    between atoms: C_9  and  C_10
REMARK    6  A    between atoms: C_10  and  C_11
REMARK    7  A    between atoms: C_11  and  C_12
REMARK    8  A    between atoms: C_27  and  O_28
REMARK                            x       y       z     vdW  Elec       q    Type
REMARK                         _______ _______ _______ _____ _____    ______ ____
ROOT
ATOM      1  C   UNL     1      47.491   7.245  13.550  0.00  0.00    +0.000 C 
ENDROOT
BRANCH   1   2
ATOM      2  C   UNL     1      46.575   6.362  12.753  0.00  0.00    +0.000 A 
ATOM      3  C   UNL     1      46.028   5.198  13.325  0.00  0.00    +0.000 A 
ATOM      4  C   UNL     1      45.151   4.396  12.596  0.00  0.00    +0.000 A 
ATOM      5  C   UNL     1      44.814   4.722  11.277  0.00  0.00    +0.000 A 
ATOM      6  C   UNL     1      45.382   5.862  10.695  0.00  0.00    +0.000 A 
ATOM      7  C   UNL     1      46.250   6.675  11.428  0.00  0.00    +0.000 A 
BRANCH   5   8
ATOM      8  C   UNL     1      43.830   3.878  10.503  0.00  0.00    +0.000 C 
BRANCH   8   9
ATOM      9  C   UNL     1      44.333   3.445   9.120  0.00  0.00    +0.000 C 
BRANCH   9  10
ATOM     10  C   UNL     1      45.462   2.411   9.182  0.00  0.00    +0.000 C 
BRANCH  10  11
ATOM     11  C   UNL     1      46.172   2.259   7.858  0.00  0.00    +0.000 A 
ATOM     12  C   UNL     1      46.832   1.065   7.542  0.00  0.00    +0.000 A 
ATOM     13  C   UNL     1      47.481   0.917   6.316  0.00  0.00    +0.000 A 
ATOM     14  C   UNL     1      47.486   1.965   5.398  0.00  0.00    +0.000 A 
ATOM     15  C   UNL     1      46.847   3.164   5.712  0.00  0.00    +0.000 A 
ATOM     16  C   UNL     1      46.189   3.310   6.934  0.00  0.00    +0.000 A 
ENDBRANCH  10  11
ENDBRANCH   9  10
ENDBRANCH   8   9
ENDBRANCH   5   8
ENDBRANCH   1   2
BRANCH   1  19
ATOM     17  O   UNL     1      48.872   8.457  15.593  0.00  0.00    +0.000 OA
ATOM     18  C   UNL     1      48.869   7.228  15.549  0.00  0.00    +0.000 C 
ATOM     19  N   UNL     1      48.088   6.543  14.655  0.00  0.00    +0.000 N 
ATOM     20  H   UNL     1      48.237   5.543  14.566  0.00  0.00    +0.000 HD
BRANCH  18  21
ATOM     21  C   UNL     1      49.738   6.441  16.432  0.00  0.00    +0.000 A 
ATOM     22  C   UNL     1      50.999   6.930  16.734  0.00  0.00    +0.000 A 
ATOM     23  S   UNL     1      51.967   5.824  17.580  0.00  0.00    +0.000 S 
ATOM     24  C   UNL     1      50.795   4.581  17.393  0.00  0.00    +0.000 A 
ATOM     25  C   UNL     1      50.999   3.209  17.631  0.00  0.00    +0.000 A 
ATOM     26  C   UNL     1      49.940   2.325  17.438  0.00  0.00    +0.000 A 
ATOM     27  C   UNL     1      48.670   2.808  17.165  0.00  0.00    +0.000 A 
ATOM     28  C   UNL     1      48.471   4.179  16.965  0.00  0.00    +0.000 A 
ATOM     29  C   UNL     1      49.564   5.089  16.951  0.00  0.00    +0.000 A 
BRANCH  28  30
ATOM     30  O   UNL     1      47.183   4.623  16.766  0.00  0.00    +0.000 OA
ATOM     31  H   UNL     1      47.226   5.556  16.485  0.00  0.00    +0.000 HD
ENDBRANCH  28  30
ENDBRANCH  18  21
ENDBRANCH   1  19
TORSDOF 8
ENDMDL
MODEL 3
REMARK VINA RESULT:    -7.455      2.096      2.605
REMARK INTER + INTRA:         -12.384
REMARK INTER:                 -11.073
REMARK INTRA:                  -1.311
REMARK UNBOUND:                -1.661
REMARK  Name = 
REMARK  8 active torsions:
REMARK  status: ('A' for Active; 'I' for Inactive)
REMARK    1  A    between atoms: C_2  and  C_20
REMARK    2  A    between atoms: N_3  and  C_4
REMARK    3  A    between atoms: C_4  and  C_5
REMARK    4  A    between atoms: C_8  and  C_9
REMARK    5  A    between atoms: C_9  and  C_10
REMARK    6  A    between atoms: C_10  and  C_11
REMARK    7  A    between atoms: C_11  and  C_12
REMARK    8  A    between atoms: C_27  and  O_28
REMARK                            x       y       z     vdW  Elec       q    Type
REMARK                         _______ _______ _______ _____ _____    ______ ____
ROOT
ATOM      1  C   UNL     1      48.110   6.756  13.787  0.00  0.00    +0.000 C 
ENDROOT
BRANCH   1   2
ATOM      2  C   UNL     1      46.961   6.161  13.027  0.00  0.00    +0.000 A 
ATOM      3  C   UNL     1      46.614   6.653  11.754  0.00  0.00    +0.000 A 
ATOM      4  C   UNL     1      45.568   6.078  11.033  0.00  0.00    +0.000 A 
ATOM      5  C   UNL     1      44.832   5.014  11.569  0.00  0.00    +0.000 A 
ATOM      6  C   UNL     1      45.155   4.544  12.848  0.00  0.00    +0.000 A 
ATOM      7  C   UNL     1      46.211   5.109  13.567  0.00  0.00    +0.000 A 
BRANCH   5   8
ATOM      8  C   UNL     1      43.729   4.363  10.771  0.00  0.00    +0.000 C 
BRANCH   8   9
ATOM      9  C   UNL     1      44.158   3.908   9.370  0.00  0.00    +0.000 C 
BRANCH   9  10
ATOM     10  C   UNL     1      44.891   2.562   9.368  0.00  0.00    +0.000 C 
BRANCH  10  11
ATOM     11  C   UNL     1      45.808   2.412   8.177  0.00  0.00    +0.000 A 
ATOM     12  C   UNL     1      46.514   1.220   7.973  0.00  0.00    +0.000 A 
ATOM     13  C   UNL     1      47.355   1.074   6.870  0.00  0.00    +0.000 A 
ATOM     14  C   UNL     1      47.507   2.122   5.965  0.00  0.00    +0.000 A 
ATOM     15  C   UNL     1      46.823   3.319   6.171  0.00  0.00    +0.000 A 
ATOM     16  C   UNL     1      45.973   3.464   7.269  0.00  0.00    +0.000 A 
ENDBRANCH  10  11
ENDBRANCH   9  10
ENDBRANCH   8   9
ENDBRANCH   5   8
ENDBRANCH   1   2
BRANCH   1  19
ATOM     17  O   UNL     1      48.819   8.163  16.039  0.00  0.00    +0.000 OA
ATOM     18  C   UNL     1      48.732   6.939  16.127  0.00  0.00    +0.000 C 
ATOM     19  N   UNL     1      48.245   6.177  15.098  0.00  0.00    +0.000 N 
ATOM     20  H   UNL     1      48.334   5.169  15.173  0.00  0.00    +0.000 HD
BRANCH  18  21
ATOM     21  C   UNL     1      49.190   6.237  17.333  0.00  0.00    +0.000 A 
ATOM     22  C   UNL     1      50.044   5.155  17.190  0.00  0.00    +0.000 A 
ATOM     23  S   UNL     1      50.316   4.314  18.636  0.00  0.00    +0.000 S 
ATOM     24  C   UNL     1      49.136   5.253  19.460  0.00  0.00    +0.000 A 
ATOM     25  C   UNL     1      48.580   4.963  20.720  0.00  0.00    +0.000 A 
ATOM     26  C   UNL     1      47.634   5.833  21.258  0.00  0.00    +0.000 A 
ATOM     27  C   UNL     1      47.362   7.039  20.633  0.00  0.00    +0.000 A 
ATOM     28  C   UNL     1      47.949   7.334  19.397  0.00  0.00    +0.000 A 
ATOM     29  C   UNL     1      48.759   6.382  18.718  0.00  0.00    +0.000 A 
BRANCH  28  30
ATOM     30  O   UNL     1      47.707   8.572  18.845  0.00  0.00    +0.000 OA
ATOM     31  H   UNL     1      48.538   8.895  18.452  0.00  0.00    +0.000 HD
ENDBRANCH  28  30
ENDBRANCH  18  21
ENDBRANCH   1  19
TORSDOF 8
ENDMDL
MODEL 4
REMARK VINA RESULT:    -7.379      2.414      3.566
REMARK INTER + INTRA:         -12.276
REMARK INTER:                 -11.136
REMARK INTRA:                  -1.139
REMARK UNBOUND:                -1.661
REMARK  Name = 
REMARK  8 active torsions:
REMARK  status: ('A' for Active; 'I' for Inactive)
REMARK    1  A    between atoms: C_2  and  C_20
REMARK    2  A    between atoms: N_3  and  C_4
REMARK    3  A    between atoms: C_4  and  C_5
REMARK    4  A    between atoms: C_8  and  C_9
REMARK    5  A    between atoms: C_9  and  C_10
REMARK    6  A    between atoms: C_10  and  C_11
REMARK    7  A    between atoms: C_11  and  C_12
REMARK    8  A    between atoms: C_27  and  O_28
REMARK                            x       y       z     vdW  Elec       q    Type
REMARK                         _______ _______ _______ _____ _____    ______ ____
ROOT
ATOM      1  C   UNL     1      47.477   3.831  15.350  0.00  0.00    +0.000 C 
ENDROOT
BRANCH   1   2
ATOM      2  C   UNL     1      46.855   4.365  14.092  0.00  0.00    +0.000 A 
ATOM      3  C   UNL     1      47.163   5.661  13.635  0.00  0.00    +0.000 A 
ATOM      4  C   UNL     1      46.612   6.144  12.450  0.00  0.00    +0.000 A 
ATOM      5  C   UNL     1      45.725   5.359  11.703  0.00  0.00    +0.000 A 
ATOM      6  C   UNL     1      45.391   4.082  12.172  0.00  0.00    +0.000 A 
ATOM      7  C   UNL     1      45.953   3.590  13.353  0.00  0.00    +0.000 A 
BRANCH   5   8
ATOM      8  C   UNL     1      45.162   5.864  10.397  0.00  0.00    +0.000 C 
BRANCH   8   9
ATOM      9  C   UNL     1      45.791   5.220   9.155  0.00  0.00    +0.000 C 
BRANCH   9  10
ATOM     10  C   UNL     1      44.983   4.037   8.612  0.00  0.00    +0.000 C 
BRANCH  10  11
ATOM     11  C   UNL     1      45.852   3.035   7.890  0.00  0.00    +0.000 A 
ATOM     12  C   UNL     1      46.555   3.408   6.737  0.00  0.00    +0.000 A 
ATOM     13  C   UNL     1      47.366   2.488   6.072  0.00  0.00    +0.000 A 
ATOM     14  C   UNL     1      47.473   1.182   6.546  0.00  0.00    +0.000 A 
ATOM     15  C   UNL     1      46.762   0.797   7.682  0.00  0.00    +0.000 A 
ATOM     16  C   UNL     1      45.958   1.719   8.354  0.00  0.00    +0.000 A 
ENDBRANCH  10  11
ENDBRANCH   9  10
ENDBRANCH   8   9
ENDBRANCH   5   8
ENDBRANCH   1   2
BRANCH   1  19
ATOM     17  O   UNL     1      49.435   5.533  16.253  0.00  0.00    +0.000 OA
ATOM     18  C   UNL     1      48.399   5.448  16.910  0.00  0.00    +0.000 C 
ATOM     19  N   UNL     1      47.318   4.738  16.455  0.00  0.00    +0.000 N 
ATOM     20  H   UNL     1      46.550   4.582  17.101  0.00  0.00    +0.000 HD
BRANCH  18  21
ATOM     21  C   UNL     1      48.292   6.072  18.234  0.00  0.00    +0.000 A 
ATOM     22  C   UNL     1      48.094   5.260  19.339  0.00  0.00    +0.000 A 
ATOM     23  S   UNL     1      47.775   6.123  20.763  0.00  0.00    +0.000 S 
ATOM     24  C   UNL     1      47.693   7.608  19.902  0.00  0.00    +0.000 A 
ATOM     25  C   UNL     1      47.186   8.825  20.395  0.00  0.00    +0.000 A 
ATOM     26  C   UNL     1      47.196   9.946  19.569  0.00  0.00    +0.000 A 
ATOM     27  C   UNL     1      47.833   9.900  18.340  0.00  0.00    +0.000 A 
ATOM     28  C   UNL     1      48.366   8.693  17.873  0.00  0.00    +0.000 A 
ATOM     29  C   UNL     1      48.195   7.481  18.597  0.00  0.00    +0.000 A 
BRANCH  28  30
ATOM     30  O   UNL     1      49.052   8.707  16.680  0.00  0.00    +0.000 OA
ATOM     31  H   UNL     1      48.399   8.736  15.956  0.00  0.00    +0.000 HD
ENDBRANCH  28  30
ENDBRANCH  18  21
ENDBRANCH   1  19
TORSDOF 8
ENDMDL
MODEL 5
REMARK VINA RESULT:    -7.288      1.751      2.011
REMARK INTER + INTRA:         -12.145
REMARK INTER:                 -10.830
REMARK INTRA:                  -1.315
REMARK UNBOUND:                -1.661
REMARK  Name = 
REMARK  8 active torsions:
REMARK  status: ('A' for Active; 'I' for Inactive)
REMARK    1  A    between atoms: C_2  and  C_20
REMARK    2  A    between atoms: N_3  and  C_4
REMARK    3  A    between atoms: C_4  and  C_5
REMARK    4  A    between atoms: C_8  and  C_9
REMARK    5  A    between atoms: C_9  and  C_10
REMARK    6  A    between atoms: C_10  and  C_11
REMARK    7  A    between atoms: C_11  and  C_12
REMARK    8  A    between atoms: C_27  and  O_28
REMARK                            x       y       z     vdW  Elec       q    Type
REMARK                         _______ _______ _______ _____ _____    ______ ____
ROOT
ATOM      1  C   UNL     1      48.599   7.332  13.572  0.00  0.00    +0.000 C 
ENDROOT
BRANCH   1   2
ATOM      2  C   UNL     1      47.481   6.547  12.949  0.00  0.00    +0.000 A 
ATOM      3  C   UNL     1      47.040   6.842  11.645  0.00  0.00    +0.000 A 
ATOM      4  C   UNL     1      46.025   6.091  11.054  0.00  0.00    +0.000 A 
ATOM      5  C   UNL     1      45.412   5.044  11.753  0.00  0.00    +0.000 A 
ATOM      6  C   UNL     1      45.827   4.770  13.062  0.00  0.00    +0.000 A 
ATOM      7  C   UNL     1      46.853   5.512  13.651  0.00  0.00    +0.000 A 
BRANCH   5   8
ATOM      8  C   UNL     1      44.344   4.203  11.097  0.00  0.00    +0.000 C 
BRANCH   8   9
ATOM      9  C   UNL     1      44.807   2.789  10.722  0.00  0.00    +0.000 C 
BRANCH   9  10
ATOM     10  C   UNL     1      44.412   2.381   9.299  0.00  0.00    +0.000 C 
BRANCH  10  11
ATOM     11  C   UNL     1      45.582   2.432   8.344  0.00  0.00    +0.000 A 
ATOM     12  C   UNL     1      45.936   3.637   7.723  0.00  0.00    +0.000 A 
ATOM     13  C   UNL     1      47.021   3.690   6.847  0.00  0.00    +0.000 A 
ATOM     14  C   UNL     1      47.756   2.538   6.576  0.00  0.00    +0.000 A 
ATOM     15  C   UNL     1      47.399   1.331   7.175  0.00  0.00    +0.000 A 
ATOM     16  C   UNL     1      46.319   1.278   8.059  0.00  0.00    +0.000 A 
ENDBRANCH  10  11
ENDBRANCH   9  10
ENDBRANCH   8   9
ENDBRANCH   5   8
ENDBRANCH   1   2
BRANCH   1  19
ATOM     17  O   UNL     1      50.042   6.431  15.729  0.00  0.00    +0.000 OA
ATOM     18  C   UNL     1      49.014   7.068  15.950  0.00  0.00    +0.000 C 
ATOM     19  N   UNL     1      48.316   7.678  14.940  0.00  0.00    +0.000 N 
ATOM     20  H   UNL     1      47.403   8.061  15.161  0.00  0.00    +0.000 HD
BRANCH  18  21
ATOM     21  C   UNL     1      48.466   7.167  17.308  0.00  0.00    +0.000 A 
ATOM     22  C   UNL     1      48.185   8.424  17.823  0.00  0.00    +0.000 A 
ATOM     23  S   UNL     1      47.766   8.401  19.465  0.00  0.00    +0.000 S 
ATOM     24  C   UNL     1      48.145   6.730  19.589  0.00  0.00    +0.000 A 
ATOM     25  C   UNL     1      48.297   6.002  20.784  0.00  0.00    +0.000 A 
ATOM     26  C   UNL     1      48.599   4.644  20.714  0.00  0.00    +0.000 A 
ATOM     27  C   UNL     1      48.598   3.992  19.492  0.00  0.00    +0.000 A 
ATOM     28  C   UNL     1      48.410   4.719  18.311  0.00  0.00    +0.000 A 
ATOM     29  C   UNL     1      48.303   6.137  18.327  0.00  0.00    +0.000 A 
BRANCH  28  30
ATOM     30  O   UNL     1      48.345   4.022  17.126  0.00  0.00    +0.000 OA
ATOM     31  H   UNL     1      48.145   3.091  17.333  0.00  0.00    +0.000 HD
ENDBRANCH  28  30
ENDBRANCH  18  21
ENDBRANCH   1  19
TORSDOF 8
ENDMDL
MODEL 6
REMARK VINA RESULT:    -7.165      3.481      9.265
REMARK INTER + INTRA:         -11.968
REMARK INTER:                  -9.646
REMARK INTRA:                  -2.323
REMARK UNBOUND:                -1.661
REMARK  Name = 
REMARK  8 active torsions:
REMARK  status: ('A' for Active; 'I' for Inactive)
REMARK    1  A    between atoms: C_2  and  C_20
REMARK    2  A    between atoms: N_3  and  C_4
REMARK    3  A    between atoms: C_4  and  C_5
REMARK    4  A    between atoms: C_8  and  C_9
REMARK    5  A    between atoms: C_9  and  C_10
REMARK    6  A    between atoms: C_10  and  C_11
REMARK    7  A    between atoms: C_11  and  C_12
REMARK    8  A    between atoms: C_27  and  O_28
REMARK                            x       y       z     vdW  Elec       q    Type
REMARK                         _______ _______ _______ _____ _____    ______ ____
ROOT
ATOM      1  C   UNL     1      48.221   4.187  16.637  0.00  0.00    +0.000 C 
ENDROOT
BRANCH   1   2
ATOM      2  C   UNL     1      48.096   4.726  18.032  0.00  0.00    +0.000 A 
ATOM      3  C   UNL     1      49.112   4.500  18.980  0.00  0.00    +0.000 A 
ATOM      4  C   UNL     1      49.012   5.030  20.265  0.00  0.00    +0.000 A 
ATOM      5  C   UNL     1      47.891   5.778  20.644  0.00  0.00    +0.000 A 
ATOM      6  C   UNL     1      46.864   5.977  19.713  0.00  0.00    +0.000 A 
ATOM      7  C   UNL     1      46.968   5.459  18.420  0.00  0.00    +0.000 A 
BRANCH   5   8
ATOM      8  C   UNL     1      47.803   6.388  22.021  0.00  0.00    +0.000 C 
BRANCH   8   9
ATOM      9  C   UNL     1      47.336   7.850  22.028  0.00  0.00    +0.000 C 
BRANCH   9  10
ATOM     10  C   UNL     1      48.441   8.840  21.644  0.00  0.00    +0.000 C 
BRANCH  10  11
ATOM     11  C   UNL     1      48.635   8.928  20.148  0.00  0.00    +0.000 A 
ATOM     12  C   UNL     1      49.852   8.548  19.569  0.00  0.00    +0.000 A 
ATOM     13  C   UNL     1      50.032   8.619  18.187  0.00  0.00    +0.000 A 
ATOM     14  C   UNL     1      49.002   9.081  17.372  0.00  0.00    +0.000 A 
ATOM     15  C   UNL     1      47.793   9.480  17.942  0.00  0.00    +0.000 A 
ATOM     16  C   UNL     1      47.608   9.400  19.323  0.00  0.00    +0.000 A 
ENDBRANCH  10  11
ENDBRANCH   9  10
ENDBRANCH   8   9
ENDBRANCH   5   8
ENDBRANCH   1   2
BRANCH   1  19
ATOM     17  O   UNL     1      47.363   3.119  14.254  0.00  0.00    +0.000 OA
ATOM     18  C   UNL     1      47.072   4.289  14.500  0.00  0.00    +0.000 C 
ATOM     19  N   UNL     1      47.332   4.853  15.722  0.00  0.00    +0.000 N 
ATOM     20  H   UNL     1      47.205   5.855  15.816  0.00  0.00    +0.000 HD
BRANCH  18  21
ATOM     21  C   UNL     1      46.468   5.146  13.473  0.00  0.00    +0.000 A 
ATOM     22  C   UNL     1      46.896   6.461  13.366  0.00  0.00    +0.000 A 
ATOM     23  S   UNL     1      45.968   7.387  12.291  0.00  0.00    +0.000 S 
ATOM     24  C   UNL     1      44.838   6.108  12.088  0.00  0.00    +0.000 A 
ATOM     25  C   UNL     1      43.566   6.214  11.496  0.00  0.00    +0.000 A 
ATOM     26  C   UNL     1      42.768   5.076  11.400  0.00  0.00    +0.000 A 
ATOM     27  C   UNL     1      43.281   3.835  11.742  0.00  0.00    +0.000 A 
ATOM     28  C   UNL     1      44.562   3.736  12.297  0.00  0.00    +0.000 A 
ATOM     29  C   UNL     1      45.326   4.897  12.601  0.00  0.00    +0.000 A 
BRANCH  28  30
ATOM     30  O   UNL     1      45.059   2.479  12.556  0.00  0.00    +0.000 OA
ATOM     31  H   UNL     1      45.419   2.478  13.463  0.00  0.00    +0.000 HD
ENDBRANCH  28  30
ENDBRANCH  18  21
ENDBRANCH   1  19
TORSDOF 8
ENDMDL
MODEL 7
REMARK VINA RESULT:    -7.070      2.660      7.865
REMARK INTER + INTRA:         -11.831
REMARK INTER:                  -9.867
REMARK INTRA:                  -1.964
REMARK UNBOUND:                -1.661
REMARK  Name = 
REMARK  8 active torsions:
REMARK  status: ('A' for Active; 'I' for Inactive)
REMARK    1  A    between atoms: C_2  and  C_20
REMARK    2  A    between atoms: N_3  and  C_4
REMARK    3  A    between atoms: C_4  and  C_5
REMARK    4  A    between atoms: C_8  and  C_9
REMARK    5  A    between atoms: C_9  and  C_10
REMARK    6  A    between atoms: C_10  and  C_11
REMARK    7  A    between atoms: C_11  and  C_12
REMARK    8  A    between atoms: C_27  and  O_28
REMARK                            x       y       z     vdW  Elec       q    Type
REMARK                         _______ _______ _______ _____ _____    ______ ____
ROOT
ATOM      1  C   UNL     1      48.201   7.763  12.098  0.00  0.00    +0.000 C 
ENDROOT
BRANCH   1   2
ATOM      2  C   UNL     1      48.381   7.828  13.587  0.00  0.00    +0.000 A 
ATOM      3  C   UNL     1      48.824   6.700  14.303  0.00  0.00    +0.000 A 
ATOM      4  C   UNL     1      49.024   6.770  15.681  0.00  0.00    +0.000 A 
ATOM      5  C   UNL     1      48.768   7.957  16.381  0.00  0.00    +0.000 A 
ATOM      6  C   UNL     1      48.297   9.070  15.675  0.00  0.00    +0.000 A 
ATOM      7  C   UNL     1      48.109   9.007  14.292  0.00  0.00    +0.000 A 
BRANCH   5   8
ATOM      8  C   UNL     1      49.026   8.045  17.865  0.00  0.00    +0.000 C 
BRANCH   8   9
ATOM      9  C   UNL     1      47.905   7.453  18.729  0.00  0.00    +0.000 C 
BRANCH   9  10
ATOM     10  C   UNL     1      48.323   6.181  19.474  0.00  0.00    +0.000 C 
BRANCH  10  11
ATOM     11  C   UNL     1      48.346   4.971  18.570  0.00  0.00    +0.000 A 
ATOM     12  C   UNL     1      47.192   4.584  17.875  0.00  0.00    +0.000 A 
ATOM     13  C   UNL     1      47.212   3.473  17.033  0.00  0.00    +0.000 A 
ATOM     14  C   UNL     1      48.381   2.730  16.884  0.00  0.00    +0.000 A 
ATOM     15  C   UNL     1      49.528   3.096  17.586  0.00  0.00    +0.000 A 
ATOM     16  C   UNL     1      49.514   4.214  18.422  0.00  0.00    +0.000 A 
ENDBRANCH  10  11
ENDBRANCH   9  10
ENDBRANCH   8   9
ENDBRANCH   5   8
ENDBRANCH   1   2
BRANCH   1  19
ATOM     17  O   UNL     1      45.510   8.285  11.913  0.00  0.00    +0.000 OA
ATOM     18  C   UNL     1      45.881   7.119  11.786  0.00  0.00    +0.000 C 
ATOM     19  N   UNL     1      47.210   6.792  11.718  0.00  0.00    +0.000 N 
ATOM     20  H   UNL     1      47.457   5.808  11.762  0.00  0.00    +0.000 HD
BRANCH  18  21
ATOM     21  C   UNL     1      44.909   6.020  11.744  0.00  0.00    +0.000 A 
ATOM     22  C   UNL     1      44.098   5.804  12.847  0.00  0.00    +0.000 A 
ATOM     23  S   UNL     1      43.183   4.381  12.745  0.00  0.00    +0.000 S 
ATOM     24  C   UNL     1      43.997   3.903  11.309  0.00  0.00    +0.000 A 
ATOM     25  C   UNL     1      43.959   2.625  10.721  0.00  0.00    +0.000 A 
ATOM     26  C   UNL     1      44.672   2.399   9.547  0.00  0.00    +0.000 A 
ATOM     27  C   UNL     1      45.282   3.455   8.888  0.00  0.00    +0.000 A 
ATOM     28  C   UNL     1      45.283   4.731   9.462  0.00  0.00    +0.000 A 
ATOM     29  C   UNL     1      44.743   4.957  10.759  0.00  0.00    +0.000 A 
BRANCH  28  30
ATOM     30  O   UNL     1      45.837   5.764   8.742  0.00  0.00    +0.000 OA
ATOM     31  H   UNL     1      46.804   5.638   8.728  0.00  0.00    +0.000 HD
ENDBRANCH  28  30
ENDBRANCH  18  21
ENDBRANCH   1  19
TORSDOF 8
ENDMDL
MODEL 8
REMARK VINA RESULT:    -7.059      2.458      3.647
REMARK INTER + INTRA:         -11.815
REMARK INTER:                 -10.520
REMARK INTRA:                  -1.295
REMARK UNBOUND:                -1.661
REMARK  Name = 
REMARK  8 active torsions:
REMARK  status: ('A' for Active; 'I' for Inactive)
REMARK    1  A    between atoms: C_2  and  C_20
REMARK    2  A    between atoms: N_3  and  C_4
REMARK    3  A    between atoms: C_4  and  C_5
REMARK    4  A    between atoms: C_8  and  C_9
REMARK    5  A    between atoms: C_9  and  C_10
REMARK    6  A    between atoms: C_10  and  C_11
REMARK    7  A    between atoms: C_11  and  C_12
REMARK    8  A    between atoms: C_27  and  O_28
REMARK                            x       y       z     vdW  Elec       q    Type
REMARK                         _______ _______ _______ _____ _____    ______ ____
ROOT
ATOM      1  C   UNL     1      47.551   3.277  15.372  0.00  0.00    +0.000 C 
ENDROOT
BRANCH   1   2
ATOM      2  C   UNL     1      46.950   3.994  14.199  0.00  0.00    +0.000 A 
ATOM      3  C   UNL     1      47.203   5.363  13.991  0.00  0.00    +0.000 A 
ATOM      4  C   UNL     1      46.672   6.021  12.882  0.00  0.00    +0.000 A 
ATOM      5  C   UNL     1      45.860   5.339  11.968  0.00  0.00    +0.000 A 
ATOM      6  C   UNL     1      45.579   3.985  12.191  0.00  0.00    +0.000 A 
ATOM      7  C   UNL     1      46.122   3.320  13.293  0.00  0.00    +0.000 A 
BRANCH   5   8
ATOM      8  C   UNL     1      45.321   6.040  10.746  0.00  0.00    +0.000 C 
BRANCH   8   9
ATOM      9  C   UNL     1      45.868   5.493   9.421  0.00  0.00    +0.000 C 
BRANCH   9  10
ATOM     10  C   UNL     1      44.991   4.396   8.809  0.00  0.00    +0.000 C 
BRANCH  10  11
ATOM     11  C   UNL     1      45.809   3.313   8.147  0.00  0.00    +0.000 A 
ATOM     12  C   UNL     1      45.704   1.984   8.576  0.00  0.00    +0.000 A 
ATOM     13  C   UNL     1      46.451   0.979   7.960  0.00  0.00    +0.000 A 
ATOM     14  C   UNL     1      47.319   1.295   6.917  0.00  0.00    +0.000 A 
ATOM     15  C   UNL     1      47.444   2.618   6.496  0.00  0.00    +0.000 A 
ATOM     16  C   UNL     1      46.690   3.623   7.104  0.00  0.00    +0.000 A 
ENDBRANCH  10  11
ENDBRANCH   9  10
ENDBRANCH   8   9
ENDBRANCH   5   8
ENDBRANCH   1   2
BRANCH   1  19
ATOM     17  O   UNL     1      46.833   3.867  17.958  0.00  0.00    +0.000 OA
ATOM     18  C   UNL     1      47.763   4.500  17.460  0.00  0.00    +0.000 C 
ATOM     19  N   UNL     1      48.279   4.171  16.234  0.00  0.00    +0.000 N 
ATOM     20  H   UNL     1      48.941   4.815  15.812  0.00  0.00    +0.000 HD
BRANCH  18  21
ATOM     21  C   UNL     1      48.332   5.666  18.144  0.00  0.00    +0.000 A 
ATOM     22  C   UNL     1      48.400   6.872  17.463  0.00  0.00    +0.000 A 
ATOM     23  S   UNL     1      49.271   8.068  18.291  0.00  0.00    +0.000 S 
ATOM     24  C   UNL     1      49.756   6.946  19.499  0.00  0.00    +0.000 A 
ATOM     25  C   UNL     1      50.767   7.147  20.458  0.00  0.00    +0.000 A 
ATOM     26  C   UNL     1      51.037   6.137  21.377  0.00  0.00    +0.000 A 
ATOM     27  C   UNL     1      50.223   5.018  21.443  0.00  0.00    +0.000 A 
ATOM     28  C   UNL     1      49.197   4.844  20.507  0.00  0.00    +0.000 A 
ATOM     29  C   UNL     1      49.021   5.753  19.427  0.00  0.00    +0.000 A 
BRANCH  28  30
ATOM     30  O   UNL     1      48.368   3.755  20.651  0.00  0.00    +0.000 OA
ATOM     31  H   UNL     1      48.843   2.968  20.325  0.00  0.00    +0.000 HD
ENDBRANCH  28  30
ENDBRANCH  18  21
ENDBRANCH   1  19
TORSDOF 8
ENDMDL
MODEL 9
REMARK VINA RESULT:    -6.824      3.015      4.882
REMARK INTER + INTRA:         -11.477
REMARK INTER:                 -10.265
REMARK INTRA:                  -1.213
REMARK UNBOUND:                -1.661
REMARK  Name = 
REMARK  8 active torsions:
REMARK  status: ('A' for Active; 'I' for Inactive)
REMARK    1  A    between atoms: C_2  and  C_20
REMARK    2  A    between atoms: N_3  and  C_4
REMARK    3  A    between atoms: C_4  and  C_5
REMARK    4  A    between atoms: C_8  and  C_9
REMARK    5  A    between atoms: C_9  and  C_10
REMARK    6  A    between atoms: C_10  and  C_11
REMARK    7  A    between atoms: C_11  and  C_12
REMARK    8  A    between atoms: C_27  and  O_28
REMARK                            x       y       z     vdW  Elec       q    Type
REMARK                         _______ _______ _______ _____ _____    ______ ____
ROOT
ATOM      1  C   UNL     1      48.093   6.330  14.215  0.00  0.00    +0.000 C 
ENDROOT
BRANCH   1   2
ATOM      2  C   UNL     1      46.980   5.884  13.312  0.00  0.00    +0.000 A 
ATOM      3  C   UNL     1      46.781   6.500  12.062  0.00  0.00    +0.000 A 
ATOM      4  C   UNL     1      45.768   6.063  11.210  0.00  0.00    +0.000 A 
ATOM      5  C   UNL     1      44.918   5.017  11.589  0.00  0.00    +0.000 A 
ATOM      6  C   UNL     1      45.094   4.423  12.845  0.00  0.00    +0.000 A 
ATOM      7  C   UNL     1      46.116   4.850  13.695  0.00  0.00    +0.000 A 
BRANCH   5   8
ATOM      8  C   UNL     1      43.850   4.514  10.648  0.00  0.00    +0.000 C 
BRANCH   8   9
ATOM      9  C   UNL     1      44.328   3.410   9.696  0.00  0.00    +0.000 C 
BRANCH   9  10
ATOM     10  C   UNL     1      44.837   3.946   8.354  0.00  0.00    +0.000 C 
BRANCH  10  11
ATOM     11  C   UNL     1      45.807   2.997   7.690  0.00  0.00    +0.000 A 
ATOM     12  C   UNL     1      46.037   1.726   8.233  0.00  0.00    +0.000 A 
ATOM     13  C   UNL     1      46.925   0.844   7.618  0.00  0.00    +0.000 A 
ATOM     14  C   UNL     1      47.600   1.226   6.460  0.00  0.00    +0.000 A 
ATOM     15  C   UNL     1      47.391   2.495   5.924  0.00  0.00    +0.000 A 
ATOM     16  C   UNL     1      46.495   3.377   6.533  0.00  0.00    +0.000 A 
ENDBRANCH  10  11
ENDBRANCH   9  10
ENDBRANCH   8   9
ENDBRANCH   5   8
ENDBRANCH   1   2
BRANCH   1  19
ATOM     17  O   UNL     1      48.101   8.924  15.121  0.00  0.00    +0.000 OA
ATOM     18  C   UNL     1      48.697   8.678  14.073  0.00  0.00    +0.000 C 
ATOM     19  N   UNL     1      48.867   7.393  13.629  0.00  0.00    +0.000 N 
ATOM     20  H   UNL     1      49.234   7.262  12.691  0.00  0.00    +0.000 HD
BRANCH  18  21
ATOM     21  C   UNL     1      49.217   9.761  13.230  0.00  0.00    +0.000 A 
ATOM     22  C   UNL     1      48.438  10.892  13.042  0.00  0.00    +0.000 A 
ATOM     23  S   UNL     1      49.065  11.958  11.882  0.00  0.00    +0.000 S 
ATOM     24  C   UNL     1      50.296  10.840  11.449  0.00  0.00    +0.000 A 
ATOM     25  C   UNL     1      51.115  10.912  10.307  0.00  0.00    +0.000 A 
ATOM     26  C   UNL     1      52.076   9.925  10.101  0.00  0.00    +0.000 A 
ATOM     27  C   UNL     1      52.322   8.977  11.081  0.00  0.00    +0.000 A 
ATOM     28  C   UNL     1      51.525   8.936  12.230  0.00  0.00    +0.000 A 
ATOM     29  C   UNL     1      50.403   9.797  12.381  0.00  0.00    +0.000 A 
BRANCH  28  30
ATOM     30  O   UNL     1      51.849   8.024  13.210  0.00  0.00    +0.000 OA
ATOM     31  H   UNL     1      52.783   8.162  13.454  0.00  0.00    +0.000 HD
ENDBRANCH  28  30
ENDBRANCH  18  21
ENDBRANCH   1  19
TORSDOF 8
ENDMDL
