MODEL 1
REMARK VINA RESULT:    -7.738      0.000      0.000
REMARK INTER + INTRA:         -11.087
REMARK INTER:                 -10.000
REMARK INTRA:                  -1.087
REMARK UNBOUND:                -1.087
REMARK  Name = 
REMARK  6 active torsions:
REMARK  status: ('A' for Active; 'I' for Inactive)
REMARK    1  A    between atoms: C_1  and  C_2
REMARK    2  A    between atoms: C_2  and  N_3
REMARK    3  A    between atoms: C_2  and  C_16
REMARK    4  A    between atoms: C_4  and  C_6
REMARK    5  A    between atoms: C_19  and  C_20
REMARK    6  A    between atoms: C_20  and  N_21
REMARK                            x       y       z     vdW  Elec       q    Type
REMARK                         _______ _______ _______ _____ _____    ______ ____
ROOT
ATOM      1  C   UNL     1      43.924   3.032  10.452  0.00  0.00    +0.000 C 
ATOM      2  C   UNL     1      44.857   4.066   9.824  0.00  0.00    +0.000 C 
ENDROOT
BRANCH   2   3
ATOM      3  C   UNL     1      45.636   3.390   8.713  0.00  0.00    +0.000 A 
ATOM      4  C   UNL     1      45.797   2.015   8.774  0.00  0.00    +0.000 A 
ATOM      5  C   UNL     1      46.382   1.327   7.720  0.00  0.00    +0.000 A 
ATOM      6  C   UNL     1      46.866   1.997   6.580  0.00  0.00    +0.000 A 
ATOM      7  C   UNL     1      46.757   3.390   6.546  0.00  0.00    +0.000 A 
ATOM      8  C   UNL     1      46.147   4.089   7.605  0.00  0.00    +0.000 A 
BRANCH   6   9
ATOM      9  C   UNL     1      47.525   1.241   5.431  0.00  0.00    +0.000 C 
BRANCH   9  10
ATOM     10  N   UNL     1      46.617   0.428   4.589  0.00  0.00    +0.000 NA
ATOM     11  C   UNL     1      46.249   1.137   3.354  0.00  0.00    +0.000 C 
ATOM     12  C   UNL     1      45.623   0.271   2.261  0.00  0.00    +0.000 C 
ATOM     13  C   UNL     1      46.399  -1.018   2.036  0.00  0.00    +0.000 C 
ATOM     14  C   UNL     1      46.493  -1.783   3.345  0.00  0.00    +0.000 C 
ATOM     15  C   UNL     1      47.141  -0.944   4.448  0.00  0.00    +0.000 C 
ENDBRANCH   9  10
ENDBRANCH   6   9
ENDBRANCH   2   3
BRANCH   2  16
ATOM     16  N   UNL     1      45.792   4.639  10.774  0.00  0.00    +0.000 N 
ATOM     17  C   UNL     1      45.689   5.928  11.223  0.00  0.00    +0.000 C 
ATOM     18  O   UNL     1      44.806   6.694  10.858  0.00  0.00    +0.000 OA
ATOM     19  H   UNL     1      46.691   4.165  10.869  0.00  0.00    +0.000 HD
BRANCH  17  20
ATOM     20  C   UNL     1      46.669   6.335  12.230  0.00  0.00    +0.000 A 
ATOM     21  C   UNL     1      47.535   7.385  11.965  0.00  0.00    +0.000 A 
ATOM     22  S   UNL     1      48.640   7.685  13.228  0.00  0.00    +0.000 S 
ATOM     23  C   UNL     1      48.005   6.408  14.158  0.00  0.00    +0.000 A 
ATOM     24  N   UNL     1      48.543   6.074  15.367  0.00  0.00    +0.000 NA
ATOM     25  C   UNL     1      47.988   5.073  15.934  0.00  0.00    +0.000 A 
ATOM     26  N   UNL     1      46.918   4.364  15.430  0.00  0.00    +0.000 N 
ATOM     27  C   UNL     1      46.308   4.697  14.247  0.00  0.00    +0.000 A 
ATOM     28  O   UNL     1      45.294   4.116  13.859  0.00  0.00    +0.000 OA
ATOM     29  C   UNL     1      46.936   5.792  13.536  0.00  0.00    +0.000 A 
ATOM     30  H   UNL     1      46.508   3.605  15.946  0.00  0.00    +0.000 HD
ENDBRANCH  17  20
ENDBRANCH   2  16
TORSDOF 5
ENDMDL
MODEL 2
REMARK VINA RESULT:    -7.502      2.996      4.780
REMARK INTER + INTRA:         -10.781
REMARK INTER:                 -10.108
REMARK INTRA:                  -0.673
REMARK UNBOUND:                -1.087
REMARK  Name = 
REMARK  6 active torsions:
REMARK  status: ('A' for Active; 'I' for Inactive)
REMARK    1  A    between atoms: C_1  and  C_2
REMARK    2  A    between atoms: C_2  and  N_3
REMARK    3  A    between atoms: C_2  and  C_16
REMARK    4  A    between atoms: C_4  and  C_6
REMARK    5  A    between atoms: C_19  and  C_20
REMARK    6  A    between atoms: C_20  and  N_21
REMARK                            x       y       z     vdW  Elec       q    Type
REMARK                         _______ _______ _______ _____ _____    ______ ____
ROOT
ATOM      1  C   UNL     1      45.649   8.627  12.911  0.00  0.00    +0.000 C 
ATOM      2  C   UNL     1      46.616   7.447  12.853  0.00  0.00    +0.000 C 
ENDROOT
BRANCH   2   3
ATOM      3  C   UNL     1      45.908   6.285  12.184  0.00  0.00    +0.000 A 
ATOM      4  C   UNL     1      44.904   6.571  11.275  0.00  0.00    +0.000 A 
ATOM      5  C   UNL     1      44.315   5.557  10.532  0.00  0.00    +0.000 A 
ATOM      6  C   UNL     1      44.683   4.209  10.704  0.00  0.00    +0.000 A 
ATOM      7  C   UNL     1      45.655   3.914  11.664  0.00  0.00    +0.000 A 
ATOM      8  C   UNL     1      46.268   4.943  12.405  0.00  0.00    +0.000 A 
BRANCH   6   9
ATOM      9  C   UNL     1      44.022   3.094   9.900  0.00  0.00    +0.000 C 
BRANCH   9  10
ATOM     10  N   UNL     1      44.687   2.735   8.626  0.00  0.00    +0.000 NA
ATOM     11  C   UNL     1      45.313   3.908   7.997  0.00  0.00    +0.000 C 
ATOM     12  C   UNL     1      46.317   3.599   6.887  0.00  0.00    +0.000 C 
ATOM     13  C   UNL     1      47.295   2.505   7.285  0.00  0.00    +0.000 C 
ATOM     14  C   UNL     1      46.521   1.258   7.675  0.00  0.00    +0.000 C 
ATOM     15  C   UNL     1      45.527   1.537   8.805  0.00  0.00    +0.000 C 
ENDBRANCH   9  10
ENDBRANCH   6   9
ENDBRANCH   2   3
BRANCH   2  16
ATOM     16  N   UNL     1      47.078   7.025  14.162  0.00  0.00    +0.000 N 
ATOM     17  C   UNL     1      48.366   6.622  14.395  0.00  0.00    +0.000 C 
ATOM     18  O   UNL     1      49.222   6.582  13.520  0.00  0.00    +0.000 OA
ATOM     19  H   UNL     1      46.359   6.751  14.832  0.00  0.00    +0.000 HD
BRANCH  17  20
ATOM     20  C   UNL     1      48.693   6.292  15.782  0.00  0.00    +0.000 A 
ATOM     21  C   UNL     1      49.513   7.136  16.516  0.00  0.00    +0.000 A 
ATOM     22  S   UNL     1      49.829   6.566  18.092  0.00  0.00    +0.000 S 
ATOM     23  C   UNL     1      48.896   5.167  17.831  0.00  0.00    +0.000 A 
ATOM     24  N   UNL     1      48.786   4.199  18.787  0.00  0.00    +0.000 NA
ATOM     25  C   UNL     1      48.084   3.190  18.438  0.00  0.00    +0.000 A 
ATOM     26  N   UNL     1      47.448   3.043  17.223  0.00  0.00    +0.000 N 
ATOM     27  C   UNL     1      47.483   4.013  16.254  0.00  0.00    +0.000 A 
ATOM     28  O   UNL     1      46.830   3.910  15.215  0.00  0.00    +0.000 OA
ATOM     29  C   UNL     1      48.314   5.156  16.579  0.00  0.00    +0.000 A 
ATOM     30  H   UNL     1      46.884   2.235  17.026  0.00  0.00    +0.000 HD
ENDBRANCH  17  20
ENDBRANCH   2  16
TORSDOF 5
ENDMDL
MODEL 3
REMARK VINA RESULT:    -7.391      3.755      6.168
REMARK INTER + INTRA:         -10.638
REMARK INTER:                  -9.857
REMARK INTRA:                  -0.781
REMARK UNBOUND:                -1.087
REMARK  Name = 
REMARK  6 active torsions:
REMARK  status: ('A' for Active; 'I' for Inactive)
REMARK    1  A    between atoms: C_1  and  C_2
REMARK    2  A    between atoms: C_2  and  N_3
REMARK    3  A    between atoms: C_2  and  C_16
REMARK    4  A    between atoms: C_4  and  C_6
REMARK    5  A    between atoms: C_19  and  C_20
REMARK    6  A    between atoms: C_20  and  N_21
REMARK                            x       y       z     vdW  Elec       q    Type
REMARK                         _______ _______ _______ _____ _____    ______ ____
ROOT
ATOM      1  C   UNL     1      48.869   7.936  13.124  0.00  0.00    +0.000 C 
ATOM      2  C   UNL     1      48.416   6.632  13.778  0.00  0.00    +0.000 C 
ENDROOT
BRANCH   2   3
ATOM      3  C   UNL     1      47.161   6.158  13.072  0.00  0.00    +0.000 A 
ATOM      4  C   UNL     1      46.601   6.985  12.112  0.00  0.00    +0.000 A 
ATOM      5  C   UNL     1      45.534   6.546  11.340  0.00  0.00    +0.000 A 
ATOM      6  C   UNL     1      44.960   5.275  11.530  0.00  0.00    +0.000 A 
ATOM      7  C   UNL     1      45.487   4.464  12.539  0.00  0.00    +0.000 A 
ATOM      8  C   UNL     1      46.582   4.898  13.311  0.00  0.00    +0.000 A 
BRANCH   6   9
ATOM      9  C   UNL     1      43.776   4.803  10.692  0.00  0.00    +0.000 C 
BRANCH   9  10
ATOM     10  N   UNL     1      44.109   3.957   9.522  0.00  0.00    +0.000 NA
ATOM     11  C   UNL     1      45.235   4.515   8.758  0.00  0.00    +0.000 C 
ATOM     12  C   UNL     1      45.889   3.560   7.760  0.00  0.00    +0.000 C 
ATOM     13  C   UNL     1      46.161   2.193   8.369  0.00  0.00    +0.000 C 
ATOM     14  C   UNL     1      44.863   1.612   8.902  0.00  0.00    +0.000 C 
ATOM     15  C   UNL     1      44.203   2.541   9.923  0.00  0.00    +0.000 C 
ENDBRANCH   9  10
ENDBRANCH   6   9
ENDBRANCH   2   3
BRANCH   2  16
ATOM     16  N   UNL     1      48.134   6.775  15.194  0.00  0.00    +0.000 N 
ATOM     17  C   UNL     1      49.070   6.519  16.161  0.00  0.00    +0.000 C 
ATOM     18  O   UNL     1      50.209   6.149  15.907  0.00  0.00    +0.000 OA
ATOM     19  H   UNL     1      47.150   6.777  15.464  0.00  0.00    +0.000 HD
BRANCH  17  20
ATOM     20  C   UNL     1      48.653   6.775  17.539  0.00  0.00    +0.000 A 
ATOM     21  C   UNL     1      48.333   8.064  17.936  0.00  0.00    +0.000 A 
ATOM     22  S   UNL     1      47.922   8.181  19.587  0.00  0.00    +0.000 S 
ATOM     23  C   UNL     1      48.177   6.515  19.822  0.00  0.00    +0.000 A 
ATOM     24  N   UNL     1      48.047   5.944  21.056  0.00  0.00    +0.000 NA
ATOM     25  C   UNL     1      48.304   4.693  21.089  0.00  0.00    +0.000 A 
ATOM     26  N   UNL     1      48.665   3.925  20.002  0.00  0.00    +0.000 N 
ATOM     27  C   UNL     1      48.753   4.441  18.734  0.00  0.00    +0.000 A 
ATOM     28  O   UNL     1      48.979   3.723  17.760  0.00  0.00    +0.000 OA
ATOM     29  C   UNL     1      48.525   5.870  18.651  0.00  0.00    +0.000 A 
ATOM     30  H   UNL     1      48.822   2.936  20.094  0.00  0.00    +0.000 HD
ENDBRANCH  17  20
ENDBRANCH   2  16
TORSDOF 5
ENDMDL
MODEL 4
REMARK VINA RESULT:    -7.250      3.679      6.246
REMARK INTER + INTRA:         -10.457
REMARK INTER:                  -9.567
REMARK INTRA:                  -0.890
REMARK UNBOUND:                -1.087
REMARK  Name = 
REMARK  6 active torsions:
REMARK  status: ('A' for Active; 'I' for Inactive)
REMARK    1  A    between atoms: C_1  and  C_2
REMARK    2  A    between atoms: C_2  and  N_3
REMARK    3  A    between atoms: C_2  and  C_16
REMARK    4  A    between atoms: C_4  and  C_6
REMARK    5  A    between atoms: C_19  and  C_20
REMARK    6  A    between atoms: C_20  and  N_21
REMARK                            x       y       z     vdW  Elec       q    Type
REMARK                         _______ _______ _______ _____ _____    ______ ____
ROOT
ATOM      1  C   UNL     1      49.121   7.611  12.786  0.00  0.00    +0.000 C 
ATOM      2  C   UNL     1      48.493   6.486  13.605  0.00  0.00    +0.000 C 
ENDROOT
BRANCH   2   3
ATOM      3  C   UNL     1      47.231   6.031  12.898  0.00  0.00    +0.000 A 
ATOM      4  C   UNL     1      46.812   6.748  11.790  0.00  0.00    +0.000 A 
ATOM      5  C   UNL     1      45.744   6.300  11.024  0.00  0.00    +0.000 A 
ATOM      6  C   UNL     1      45.030   5.136  11.365  0.00  0.00    +0.000 A 
ATOM      7  C   UNL     1      45.416   4.445  12.517  0.00  0.00    +0.000 A 
ATOM      8  C   UNL     1      46.511   4.887  13.285  0.00  0.00    +0.000 A 
BRANCH   6   9
ATOM      9  C   UNL     1      43.845   4.655  10.533  0.00  0.00    +0.000 C 
BRANCH   9  10
ATOM     10  N   UNL     1      44.179   3.806   9.365  0.00  0.00    +0.000 NA
ATOM     11  C   UNL     1      45.235   4.413   8.542  0.00  0.00    +0.000 C 
ATOM     12  C   UNL     1      45.902   3.477   7.535  0.00  0.00    +0.000 C 
ATOM     13  C   UNL     1      46.282   2.142   8.158  0.00  0.00    +0.000 C 
ATOM     14  C   UNL     1      45.045   1.497   8.758  0.00  0.00    +0.000 C 
ATOM     15  C   UNL     1      44.375   2.406   9.789  0.00  0.00    +0.000 C 
ENDBRANCH   9  10
ENDBRANCH   6   9
ENDBRANCH   2   3
BRANCH   2  16
ATOM     16  N   UNL     1      48.156   6.887  14.958  0.00  0.00    +0.000 N 
ATOM     17  C   UNL     1      48.998   6.684  16.019  0.00  0.00    +0.000 C 
ATOM     18  O   UNL     1      50.093   6.147  15.909  0.00  0.00    +0.000 OA
ATOM     19  H   UNL     1      47.167   7.048  15.151  0.00  0.00    +0.000 HD
BRANCH  17  20
ATOM     20  C   UNL     1      48.542   7.206  17.307  0.00  0.00    +0.000 A 
ATOM     21  C   UNL     1      48.348   6.340  18.372  0.00  0.00    +0.000 A 
ATOM     22  S   UNL     1      47.766   7.115  19.775  0.00  0.00    +0.000 S 
ATOM     23  C   UNL     1      47.739   8.626  18.993  0.00  0.00    +0.000 A 
ATOM     24  N   UNL     1      47.281   9.745  19.627  0.00  0.00    +0.000 NA
ATOM     25  C   UNL     1      47.285  10.800  18.905  0.00  0.00    +0.000 A 
ATOM     26  N   UNL     1      47.723  10.870  17.600  0.00  0.00    +0.000 N 
ATOM     27  C   UNL     1      48.244   9.786  16.940  0.00  0.00    +0.000 A 
ATOM     28  O   UNL     1      48.722   9.888  15.810  0.00  0.00    +0.000 OA
ATOM     29  C   UNL     1      48.210   8.550  17.697  0.00  0.00    +0.000 A 
ATOM     30  H   UNL     1      47.728  11.742  17.100  0.00  0.00    +0.000 HD
ENDBRANCH  17  20
ENDBRANCH   2  16
TORSDOF 5
ENDMDL
MODEL 5
REMARK VINA RESULT:    -6.991      5.513     12.037
REMARK INTER + INTRA:         -10.122
REMARK INTER:                  -9.002
REMARK INTRA:                  -1.120
REMARK UNBOUND:                -1.087
REMARK  Name = 
REMARK  6 active torsions:
REMARK  status: ('A' for Active; 'I' for Inactive)
REMARK    1  A    between atoms: C_1  and  C_2
REMARK    2  A    between atoms: C_2  and  N_3
REMARK    3  A    between atoms: C_2  and  C_16
REMARK    4  A    between atoms: C_4  and  C_6
REMARK    5  A    between atoms: C_19  and  C_20
REMARK    6  A    between atoms: C_20  and  N_21
REMARK                            x       y       z     vdW  Elec       q    Type
REMARK                         _______ _______ _______ _____ _____    ______ ____
ROOT
ATOM      1  C   UNL     1      47.699   3.147  16.699  0.00  0.00    +0.000 C 
ATOM      2  C   UNL     1      48.052   4.524  16.143  0.00  0.00    +0.000 C 
ENDROOT
BRANCH   2   3
ATOM      3  C   UNL     1      48.118   5.501  17.301  0.00  0.00    +0.000 A 
ATOM      4  C   UNL     1      48.966   6.590  17.187  0.00  0.00    +0.000 A 
ATOM      5  C   UNL     1      48.968   7.586  18.154  0.00  0.00    +0.000 A 
ATOM      6  C   UNL     1      48.147   7.507  19.295  0.00  0.00    +0.000 A 
ATOM      7  C   UNL     1      47.335   6.379  19.439  0.00  0.00    +0.000 A 
ATOM      8  C   UNL     1      47.317   5.376  18.451  0.00  0.00    +0.000 A 
BRANCH   6   9
ATOM      9  C   UNL     1      48.164   8.594  20.365  0.00  0.00    +0.000 C 
BRANCH   9  10
ATOM     10  N   UNL     1      46.896   9.337  20.550  0.00  0.00    +0.000 NA
ATOM     11  C   UNL     1      46.576   9.511  21.975  0.00  0.00    +0.000 C 
ATOM     12  C   UNL     1      45.505  10.556  22.285  0.00  0.00    +0.000 C 
ATOM     13  C   UNL     1      45.737  11.856  21.531  0.00  0.00    +0.000 C 
ATOM     14  C   UNL     1      45.797  11.570  20.041  0.00  0.00    +0.000 C 
ATOM     15  C   UNL     1      46.882  10.545  19.704  0.00  0.00    +0.000 C 
ENDBRANCH   9  10
ENDBRANCH   6   9
ENDBRANCH   2   3
BRANCH   2  16
ATOM     16  N   UNL     1      47.089   5.010  15.173  0.00  0.00    +0.000 N 
ATOM     17  C   UNL     1      47.461   5.669  14.032  0.00  0.00    +0.000 C 
ATOM     18  O   UNL     1      48.629   5.901  13.745  0.00  0.00    +0.000 OA
ATOM     19  H   UNL     1      46.128   5.116  15.499  0.00  0.00    +0.000 HD
BRANCH  17  20
ATOM     20  C   UNL     1      46.376   6.035  13.121  0.00  0.00    +0.000 A 
ATOM     21  C   UNL     1      46.182   7.365  12.780  0.00  0.00    +0.000 A 
ATOM     22  S   UNL     1      44.842   7.609  11.753  0.00  0.00    +0.000 S 
ATOM     23  C   UNL     1      44.473   5.948  11.752  0.00  0.00    +0.000 A 
ATOM     24  N   UNL     1      43.380   5.464  11.092  0.00  0.00    +0.000 NA
ATOM     25  C   UNL     1      43.208   4.204  11.208  0.00  0.00    +0.000 A 
ATOM     26  N   UNL     1      44.033   3.348  11.907  0.00  0.00    +0.000 N 
ATOM     27  C   UNL     1      45.172   3.778  12.538  0.00  0.00    +0.000 A 
ATOM     28  O   UNL     1      45.950   2.988  13.074  0.00  0.00    +0.000 OA
ATOM     29  C   UNL     1      45.384   5.211  12.483  0.00  0.00    +0.000 A 
ATOM     30  H   UNL     1      43.856   2.358  11.931  0.00  0.00    +0.000 HD
ENDBRANCH  17  20
ENDBRANCH   2  16
TORSDOF 5
ENDMDL
MODEL 6
REMARK VINA RESULT:    -6.868      2.588      4.278
REMARK INTER + INTRA:          -9.962
REMARK INTER:                  -9.269
REMARK INTRA:                  -0.694
REMARK UNBOUND:                -1.087
REMARK  Name = 
REMARK  6 active torsions:
REMARK  status: ('A' for Active; 'I' for Inactive)
REMARK    1  A    between atoms: C_1  and  C_2
REMARK    2  A    between atoms: C_2  and  N_3
REMARK    3  A    between atoms: C_2  and  C_16
REMARK    4  A    between atoms: C_4  and  C_6
REMARK    5  A    between atoms: C_19  and  C_20
REMARK    6  A    between atoms: C_20  and  N_21
REMARK                            x       y       z     vdW  Elec       q    Type
REMARK                         _______ _______ _______ _____ _____    ______ ____
ROOT
ATOM      1  C   UNL     1      46.226   4.815  14.219  0.00  0.00    +0.000 C 
ATOM      2  C   UNL     1      45.857   5.916  13.227  0.00  0.00    +0.000 C 
ENDROOT
BRANCH   2   3
ATOM      3  C   UNL     1      45.549   5.268  11.891  0.00  0.00    +0.000 A 
ATOM      4  C   UNL     1      45.884   5.960  10.739  0.00  0.00    +0.000 A 
ATOM      5  C   UNL     1      45.752   5.361   9.494  0.00  0.00    +0.000 A 
ATOM      6  C   UNL     1      45.238   4.058   9.354  0.00  0.00    +0.000 A 
ATOM      7  C   UNL     1      44.844   3.382  10.512  0.00  0.00    +0.000 A 
ATOM      8  C   UNL     1      44.995   3.980  11.778  0.00  0.00    +0.000 A 
BRANCH   6   9
ATOM      9  C   UNL     1      45.076   3.409   7.983  0.00  0.00    +0.000 C 
BRANCH   9  10
ATOM     10  N   UNL     1      46.296   2.792   7.412  0.00  0.00    +0.000 NA
ATOM     11  C   UNL     1      46.386   1.364   7.749  0.00  0.00    +0.000 C 
ATOM     12  C   UNL     1      47.391   0.558   6.927  0.00  0.00    +0.000 C 
ATOM     13  C   UNL     1      47.277   0.845   5.438  0.00  0.00    +0.000 C 
ATOM     14  C   UNL     1      47.453   2.334   5.198  0.00  0.00    +0.000 C 
ATOM     15  C   UNL     1      46.439   3.160   5.991  0.00  0.00    +0.000 C 
ENDBRANCH   9  10
ENDBRANCH   6   9
ENDBRANCH   2   3
BRANCH   2  16
ATOM     16  N   UNL     1      46.913   6.894  13.044  0.00  0.00    +0.000 N 
ATOM     17  C   UNL     1      46.686   8.243  13.100  0.00  0.00    +0.000 C 
ATOM     18  O   UNL     1      45.579   8.726  13.305  0.00  0.00    +0.000 OA
ATOM     19  H   UNL     1      47.760   6.566  12.579  0.00  0.00    +0.000 HD
BRANCH  17  20
ATOM     20  C   UNL     1      47.865   9.097  12.963  0.00  0.00    +0.000 A 
ATOM     21  C   UNL     1      47.750  10.340  12.359  0.00  0.00    +0.000 A 
ATOM     22  S   UNL     1      49.234  11.172  12.238  0.00  0.00    +0.000 S 
ATOM     23  C   UNL     1      50.074   9.887  12.972  0.00  0.00    +0.000 A 
ATOM     24  N   UNL     1      51.430   9.925  13.132  0.00  0.00    +0.000 NA
ATOM     25  C   UNL     1      51.929   8.877  13.664  0.00  0.00    +0.000 A 
ATOM     26  N   UNL     1      51.210   7.777  14.083  0.00  0.00    +0.000 N 
ATOM     27  C   UNL     1      49.842   7.716  13.994  0.00  0.00    +0.000 A 
ATOM     28  O   UNL     1      49.208   6.770  14.462  0.00  0.00    +0.000 OA
ATOM     29  C   UNL     1      49.232   8.859  13.346  0.00  0.00    +0.000 A 
ATOM     30  H   UNL     1      51.664   6.996  14.524  0.00  0.00    +0.000 HD
ENDBRANCH  17  20
ENDBRANCH   2  16
TORSDOF 5
ENDMDL
MODEL 7
REMARK VINA RESULT:    -6.508      3.941     10.686
REMARK INTER + INTRA:          -9.497
REMARK INTER:                  -8.369
REMARK INTRA:                  -1.129
REMARK UNBOUND:                -1.087
REMARK  Name = 
REMARK  6 active torsions:
REMARK  status: ('A' for Active; 'I' for Inactive)
REMARK    1  A    between atoms: C_1  and  C_2
REMARK    2  A    between atoms: C_2  and  N_3
REMARK    3  A    between atoms: C_2  and  C_16
REMARK    4  A    between atoms: C_4  and  C_6
REMARK    5  A    between atoms: C_19  and  C_20
REMARK    6  A    between atoms: C_20  and  N_21
REMARK                            x       y       z     vdW  Elec       q    Type
REMARK                         _______ _______ _______ _____ _____    ______ ____
ROOT
ATOM      1  C   UNL     1      49.147   7.743  11.322  0.00  0.00    +0.000 C 
ATOM      2  C   UNL     1      47.902   7.748  12.206  0.00  0.00    +0.000 C 
ENDROOT
BRANCH   2   3
ATOM      3  C   UNL     1      48.348   7.818  13.654  0.00  0.00    +0.000 A 
ATOM      4  C   UNL     1      47.849   8.843  14.440  0.00  0.00    +0.000 A 
ATOM      5  C   UNL     1      48.114   8.879  15.802  0.00  0.00    +0.000 A 
ATOM      6  C   UNL     1      48.925   7.909  16.421  0.00  0.00    +0.000 A 
ATOM      7  C   UNL     1      49.476   6.908  15.617  0.00  0.00    +0.000 A 
ATOM      8  C   UNL     1      49.194   6.858  14.238  0.00  0.00    +0.000 A 
BRANCH   6   9
ATOM      9  C   UNL     1      49.229   7.960  17.915  0.00  0.00    +0.000 C 
BRANCH   9  10
ATOM     10  N   UNL     1      48.771   6.796  18.708  0.00  0.00    +0.000 NA
ATOM     11  C   UNL     1      49.902   6.084  19.321  0.00  0.00    +0.000 C 
ATOM     12  C   UNL     1      49.535   5.103  20.435  0.00  0.00    +0.000 C 
ATOM     13  C   UNL     1      48.560   5.708  21.433  0.00  0.00    +0.000 C 
ATOM     14  C   UNL     1      47.318   6.182  20.698  0.00  0.00    +0.000 C 
ATOM     15  C   UNL     1      47.659   7.185  19.595  0.00  0.00    +0.000 C 
ENDBRANCH   9  10
ENDBRANCH   6   9
ENDBRANCH   2   3
BRANCH   2  16
ATOM     16  N   UNL     1      47.071   6.573  12.026  0.00  0.00    +0.000 N 
ATOM     17  C   UNL     1      45.706   6.614  12.119  0.00  0.00    +0.000 C 
ATOM     18  O   UNL     1      45.084   7.640  12.365  0.00  0.00    +0.000 OA
ATOM     19  H   UNL     1      47.534   5.669  12.125  0.00  0.00    +0.000 HD
BRANCH  17  20
ATOM     20  C   UNL     1      45.007   5.358  11.844  0.00  0.00    +0.000 A 
ATOM     21  C   UNL     1      44.269   4.746  12.846  0.00  0.00    +0.000 A 
ATOM     22  S   UNL     1      43.569   3.268  12.362  0.00  0.00    +0.000 S 
ATOM     23  C   UNL     1      44.248   3.396  10.806  0.00  0.00    +0.000 A 
ATOM     24  N   UNL     1      44.081   2.410   9.876  0.00  0.00    +0.000 NA
ATOM     25  C   UNL     1      44.677   2.625   8.767  0.00  0.00    +0.000 A 
ATOM     26  N   UNL     1      45.421   3.746   8.466  0.00  0.00    +0.000 N 
ATOM     27  C   UNL     1      45.570   4.788   9.346  0.00  0.00    +0.000 A 
ATOM     28  O   UNL     1      46.153   5.823   9.027  0.00  0.00    +0.000 OA
ATOM     29  C   UNL     1      44.958   4.569  10.642  0.00  0.00    +0.000 A 
ATOM     30  H   UNL     1      45.837   3.866   7.558  0.00  0.00    +0.000 HD
ENDBRANCH  17  20
ENDBRANCH   2  16
TORSDOF 5
ENDMDL
MODEL 8
REMARK VINA RESULT:    -6.447      4.840      9.573
REMARK INTER + INTRA:          -9.419
REMARK INTER:                  -8.664
REMARK INTRA:                  -0.754
REMARK UNBOUND:                -1.087
REMARK  Name = 
REMARK  6 active torsions:
REMARK  status: ('A' for Active; 'I' for Inactive)
REMARK    1  A    between atoms: C_1  and  C_2
REMARK    2  A    between atoms: C_2  and  N_3
REMARK    3  A    between atoms: C_2  and  C_16
REMARK    4  A    between atoms: C_4  and  C_6
REMARK    5  A    between atoms: C_19  and  C_20
REMARK    6  A    between atoms: C_20  and  N_21
REMARK                            x       y       z     vdW  Elec       q    Type
REMARK                         _______ _______ _______ _____ _____    ______ ____
ROOT
ATOM      1  C   UNL     1      49.610   8.458  11.475  0.00  0.00    +0.000 C 
ATOM      2  C   UNL     1      48.453   7.978  12.349  0.00  0.00    +0.000 C 
ENDROOT
BRANCH   2   3
ATOM      3  C   UNL     1      49.020   7.527  13.681  0.00  0.00    +0.000 A 
ATOM      4  C   UNL     1      50.348   7.813  13.954  0.00  0.00    +0.000 A 
ATOM      5  C   UNL     1      50.882   7.546  15.207  0.00  0.00    +0.000 A 
ATOM      6  C   UNL     1      50.116   6.944  16.223  0.00  0.00    +0.000 A 
ATOM      7  C   UNL     1      48.793   6.601  15.927  0.00  0.00    +0.000 A 
ATOM      8  C   UNL     1      48.242   6.888  14.663  0.00  0.00    +0.000 A 
BRANCH   6   9
ATOM      9  C   UNL     1      50.710   6.635  17.593  0.00  0.00    +0.000 C 
BRANCH   9  10
ATOM     10  N   UNL     1      50.393   5.299  18.148  0.00  0.00    +0.000 NA
ATOM     11  C   UNL     1      49.109   5.304  18.864  0.00  0.00    +0.000 C 
ATOM     12  C   UNL     1      48.517   3.926  19.159  0.00  0.00    +0.000 C 
ATOM     13  C   UNL     1      48.553   3.014  17.943  0.00  0.00    +0.000 C 
ATOM     14  C   UNL     1      49.983   2.891  17.448  0.00  0.00    +0.000 C 
ATOM     15  C   UNL     1      50.588   4.258  17.121  0.00  0.00    +0.000 C 
ENDBRANCH   9  10
ENDBRANCH   6   9
ENDBRANCH   2   3
BRANCH   2  16
ATOM     16  N   UNL     1      47.712   6.880  11.757  0.00  0.00    +0.000 N 
ATOM     17  C   UNL     1      46.347   6.889  11.645  0.00  0.00    +0.000 C 
ATOM     18  O   UNL     1      45.651   7.817  12.036  0.00  0.00    +0.000 OA
ATOM     19  H   UNL     1      48.195   5.983  11.702  0.00  0.00    +0.000 HD
BRANCH  17  20
ATOM     20  C   UNL     1      45.753   5.738  10.964  0.00  0.00    +0.000 A 
ATOM     21  C   UNL     1      45.887   5.606   9.590  0.00  0.00    +0.000 A 
ATOM     22  S   UNL     1      45.086   4.236   8.964  0.00  0.00    +0.000 S 
ATOM     23  C   UNL     1      44.524   3.793  10.508  0.00  0.00    +0.000 A 
ATOM     24  N   UNL     1      43.711   2.710  10.683  0.00  0.00    +0.000 NA
ATOM     25  C   UNL     1      43.338   2.520  11.890  0.00  0.00    +0.000 A 
ATOM     26  N   UNL     1      43.709   3.293  12.970  0.00  0.00    +0.000 N 
ATOM     27  C   UNL     1      44.568   4.355  12.852  0.00  0.00    +0.000 A 
ATOM     28  O   UNL     1      44.967   4.974  13.839  0.00  0.00    +0.000 OA
ATOM     29  C   UNL     1      44.977   4.648  11.493  0.00  0.00    +0.000 A 
ATOM     30  H   UNL     1      43.403   3.067  13.901  0.00  0.00    +0.000 HD
ENDBRANCH  17  20
ENDBRANCH   2  16
TORSDOF 5
ENDMDL
MODEL 9
REMARK VINA RESULT:    -6.419      4.785     10.316
REMARK INTER + INTRA:          -9.383
REMARK INTER:                  -8.498
REMARK INTRA:                  -0.885
REMARK UNBOUND:                -1.087
REMARK  Name = 
REMARK  6 active torsions:
REMARK  status: ('A' for Active; 'I' for Inactive)
REMARK    1  A    between atoms: C_1  and  C_2
REMARK    2  A    between atoms: C_2  and  N_3
REMARK    3  A    between atoms: C_2  and  C_16
REMARK    4  A    between atoms: C_4  and  C_6
REMARK    5  A    between atoms: C_19  and  C_20
REMARK    6  A    between atoms: C_20  and  N_21
REMARK                            x       y       z     vdW  Elec       q    Type
REMARK                         _______ _______ _______ _____ _____    ______ ____
ROOT
ATOM      1  C   UNL     1      49.713   8.114  11.708  0.00  0.00    +0.000 C 
ATOM      2  C   UNL     1      48.467   7.734  12.505  0.00  0.00    +0.000 C 
ENDROOT
BRANCH   2   3
ATOM      3  C   UNL     1      48.905   7.281  13.884  0.00  0.00    +0.000 A 
ATOM      4  C   UNL     1      48.055   6.453  14.598  0.00  0.00    +0.000 A 
ATOM      5  C   UNL     1      48.461   5.899  15.805  0.00  0.00    +0.000 A 
ATOM      6  C   UNL     1      49.721   6.188  16.362  0.00  0.00    +0.000 A 
ATOM      7  C   UNL     1      50.555   7.071  15.670  0.00  0.00    +0.000 A 
ATOM      8  C   UNL     1      50.154   7.620  14.437  0.00  0.00    +0.000 A 
BRANCH   6   9
ATOM      9  C   UNL     1      50.157   5.592  17.697  0.00  0.00    +0.000 C 
BRANCH   9  10
ATOM     10  N   UNL     1      49.675   6.297  18.907  0.00  0.00    +0.000 NA
ATOM     11  C   UNL     1      49.529   7.741  18.667  0.00  0.00    +0.000 C 
ATOM     12  C   UNL     1      48.709   8.500  19.710  0.00  0.00    +0.000 C 
ATOM     13  C   UNL     1      47.409   7.786  20.047  0.00  0.00    +0.000 C 
ATOM     14  C   UNL     1      47.717   6.378  20.524  0.00  0.00    +0.000 C 
ATOM     15  C   UNL     1      48.516   5.589  19.484  0.00  0.00    +0.000 C 
ENDBRANCH   9  10
ENDBRANCH   6   9
ENDBRANCH   2   3
BRANCH   2  16
ATOM     16  N   UNL     1      47.696   6.673  11.884  0.00  0.00    +0.000 N 
ATOM     17  C   UNL     1      46.379   6.822  11.543  0.00  0.00    +0.000 C 
ATOM     18  O   UNL     1      45.751   7.855  11.738  0.00  0.00    +0.000 OA
ATOM     19  H   UNL     1      48.066   5.727  11.980  0.00  0.00    +0.000 HD
BRANCH  17  20
ATOM     20  C   UNL     1      45.761   5.684  10.863  0.00  0.00    +0.000 A 
ATOM     21  C   UNL     1      45.862   5.565   9.486  0.00  0.00    +0.000 A 
ATOM     22  S   UNL     1      45.037   4.209   8.862  0.00  0.00    +0.000 S 
ATOM     23  C   UNL     1      44.506   3.753  10.414  0.00  0.00    +0.000 A 
ATOM     24  N   UNL     1      43.688   2.675  10.596  0.00  0.00    +0.000 NA
ATOM     25  C   UNL     1      43.341   2.474  11.809  0.00  0.00    +0.000 A 
ATOM     26  N   UNL     1      43.742   3.232  12.888  0.00  0.00    +0.000 N 
ATOM     27  C   UNL     1      44.607   4.289  12.763  0.00  0.00    +0.000 A 
ATOM     28  O   UNL     1      45.033   4.894  13.747  0.00  0.00    +0.000 OA
ATOM     29  C   UNL     1      44.988   4.594  11.398  0.00  0.00    +0.000 A 
ATOM     30  H   UNL     1      43.456   2.998  13.823  0.00  0.00    +0.000 HD
ENDBRANCH  17  20
ENDBRANCH   2  16
TORSDOF 5
ENDMDL
