MODEL 1
REMARK VINA RESULT:    -7.908      0.000      0.000
REMARK INTER + INTRA:          -9.807
REMARK INTER:                  -9.294
REMARK INTRA:                  -0.512
REMARK UNBOUND:                -0.512
REMARK  Name = 
REMARK  4 active torsions:
REMARK  status: ('A' for Active; 'I' for Inactive)
REMARK    1  A    between atoms: C_1  and  C_2
REMARK    2  A    between atoms: C_6  and  C_7
REMARK    3  A    between atoms: C_7  and  N_8
REMARK    4  A    between atoms: C_9  and  C_11
REMARK                            x       y       z     vdW  Elec       q    Type
REMARK                         _______ _______ _______ _____ _____    ______ ____
ROOT
ATOM      1  N   UNL     1      45.474   4.860   9.532  0.00  0.00    +0.000 N 
ATOM      2  C   UNL     1      44.826   5.229  10.684  0.00  0.00    +0.000 C 
ATOM      3  O   UNL     1      43.630   5.016  10.859  0.00  0.00    +0.000 OA
ATOM      4  H   UNL     1      46.399   5.228   9.335  0.00  0.00    +0.000 HD
ENDROOT
BRANCH   2   5
ATOM      5  C   UNL     1      45.654   5.833  11.734  0.00  0.00    +0.000 A 
ATOM      6  C   UNL     1      45.968   7.185  11.664  0.00  0.00    +0.000 A 
ATOM      7  S   UNL     1      46.897   7.741  12.980  0.00  0.00    +0.000 S 
ATOM      8  C   UNL     1      46.957   6.185  13.664  0.00  0.00    +0.000 A 
ATOM      9  N   UNL     1      47.637   5.956  14.820  0.00  0.00    +0.000 NA
ATOM     10  C   UNL     1      47.632   4.725  15.208  0.00  0.00    +0.000 A 
ATOM     11  N   UNL     1      47.000   3.703  14.548  0.00  0.00    +0.000 N 
ATOM     12  C   UNL     1      46.272   3.892  13.398  0.00  0.00    +0.000 A 
ATOM     13  O   UNL     1      45.676   2.964  12.860  0.00  0.00    +0.000 OA
ATOM     14  C   UNL     1      46.262   5.257  12.911  0.00  0.00    +0.000 A 
ATOM     15  H   UNL     1      47.028   2.760  14.911  0.00  0.00    +0.000 HD
ENDBRANCH   2   5
BRANCH   1  16
ATOM     16  C   UNL     1      44.778   4.244   8.428  0.00  0.00    +0.000 C 
BRANCH  16  22
ATOM     17  C   UNL     1      47.730   2.352   4.809  0.00  0.00    +0.000 C 
ATOM     18  C   UNL     1      47.013   2.177   6.115  0.00  0.00    +0.000 A 
ATOM     19  C   UNL     1      47.109   0.981   6.833  0.00  0.00    +0.000 A 
ATOM     20  C   UNL     1      46.441   0.835   8.049  0.00  0.00    +0.000 A 
ATOM     21  C   UNL     1      45.676   1.882   8.562  0.00  0.00    +0.000 A 
ATOM     22  C   UNL     1      45.570   3.091   7.863  0.00  0.00    +0.000 A 
ATOM     23  C   UNL     1      46.244   3.226   6.638  0.00  0.00    +0.000 A 
ENDBRANCH  16  22
ENDBRANCH   1  16
TORSDOF 3
ENDMDL
MODEL 2
REMARK VINA RESULT:    -7.625      1.457      2.190
REMARK INTER + INTRA:          -9.475
REMARK INTER:                  -8.856
REMARK INTRA:                  -0.619
REMARK UNBOUND:                -0.512
REMARK  Name = 
REMARK  4 active torsions:
REMARK  status: ('A' for Active; 'I' for Inactive)
REMARK    1  A    between atoms: C_1  and  C_2
REMARK    2  A    between atoms: C_6  and  C_7
REMARK    3  A    between atoms: C_7  and  N_8
REMARK    4  A    between atoms: C_9  and  C_11
REMARK                            x       y       z     vdW  Elec       q    Type
REMARK                         _______ _______ _______ _____ _____    ______ ____
ROOT
ATOM      1  N   UNL     1      44.899   4.991  10.217  0.00  0.00    +0.000 N 
ATOM      2  C   UNL     1      44.130   5.784  11.030  0.00  0.00    +0.000 C 
ATOM      3  O   UNL     1      42.956   5.524  11.278  0.00  0.00    +0.000 OA
ATOM      4  H   UNL     1      45.788   5.337   9.871  0.00  0.00    +0.000 HD
ENDROOT
BRANCH   2   5
ATOM      5  C   UNL     1      44.804   6.931  11.651  0.00  0.00    +0.000 A 
ATOM      6  C   UNL     1      44.413   8.219  11.310  0.00  0.00    +0.000 A 
ATOM      7  S   UNL     1      45.260   9.437  12.150  0.00  0.00    +0.000 S 
ATOM      8  C   UNL     1      46.215   8.286  12.962  0.00  0.00    +0.000 A 
ATOM      9  N   UNL     1      47.183   8.673  13.835  0.00  0.00    +0.000 NA
ATOM     10  C   UNL     1      47.855   7.701  14.353  0.00  0.00    +0.000 A 
ATOM     11  N   UNL     1      47.641   6.374  14.082  0.00  0.00    +0.000 N 
ATOM     12  C   UNL     1      46.653   5.934  13.234  0.00  0.00    +0.000 A 
ATOM     13  O   UNL     1      46.454   4.737  13.052  0.00  0.00    +0.000 OA
ATOM     14  C   UNL     1      45.879   6.991  12.613  0.00  0.00    +0.000 A 
ATOM     15  H   UNL     1      48.199   5.660  14.528  0.00  0.00    +0.000 HD
ENDBRANCH   2   5
BRANCH   1  16
ATOM     16  C   UNL     1      44.362   3.826   9.556  0.00  0.00    +0.000 C 
BRANCH  16  22
ATOM     17  C   UNL     1      46.748  -0.211   7.712  0.00  0.00    +0.000 C 
ATOM     18  C   UNL     1      46.517   1.271   7.699  0.00  0.00    +0.000 A 
ATOM     19  C   UNL     1      47.184   2.095   6.787  0.00  0.00    +0.000 A 
ATOM     20  C   UNL     1      46.954   3.471   6.783  0.00  0.00    +0.000 A 
ATOM     21  C   UNL     1      46.052   4.037   7.685  0.00  0.00    +0.000 A 
ATOM     22  C   UNL     1      45.368   3.230   8.604  0.00  0.00    +0.000 A 
ATOM     23  C   UNL     1      45.610   1.846   8.602  0.00  0.00    +0.000 A 
ENDBRANCH  16  22
ENDBRANCH   1  16
TORSDOF 3
ENDMDL
MODEL 3
REMARK VINA RESULT:    -7.574      4.355      7.520
REMARK INTER + INTRA:          -9.415
REMARK INTER:                  -8.885
REMARK INTRA:                  -0.530
REMARK UNBOUND:                -0.512
REMARK  Name = 
REMARK  4 active torsions:
REMARK  status: ('A' for Active; 'I' for Inactive)
REMARK    1  A    between atoms: C_1  and  C_2
REMARK    2  A    between atoms: C_6  and  C_7
REMARK    3  A    between atoms: C_7  and  N_8
REMARK    4  A    between atoms: C_9  and  C_11
REMARK                            x       y       z     vdW  Elec       q    Type
REMARK                         _______ _______ _______ _____ _____    ______ ____
ROOT
ATOM      1  N   UNL     1      46.890   4.417  15.894  0.00  0.00    +0.000 N 
ATOM      2  C   UNL     1      46.916   4.164  14.546  0.00  0.00    +0.000 C 
ATOM      3  O   UNL     1      47.257   3.077  14.090  0.00  0.00    +0.000 OA
ATOM      4  H   UNL     1      46.804   5.372  16.225  0.00  0.00    +0.000 HD
ENDROOT
BRANCH   2   5
ATOM      5  C   UNL     1      46.447   5.244  13.670  0.00  0.00    +0.000 A 
ATOM      6  C   UNL     1      47.266   6.341  13.438  0.00  0.00    +0.000 A 
ATOM      7  S   UNL     1      46.595   7.483  12.365  0.00  0.00    +0.000 S 
ATOM      8  C   UNL     1      45.163   6.577  12.212  0.00  0.00    +0.000 A 
ATOM      9  N   UNL     1      44.138   7.018  11.436  0.00  0.00    +0.000 NA
ATOM     10  C   UNL     1      43.099   6.252  11.437  0.00  0.00    +0.000 A 
ATOM     11  N   UNL     1      42.997   5.078  12.139  0.00  0.00    +0.000 N 
ATOM     12  C   UNL     1      44.019   4.575  12.908  0.00  0.00    +0.000 A 
ATOM     13  O   UNL     1      43.914   3.496  13.482  0.00  0.00    +0.000 OA
ATOM     14  C   UNL     1      45.204   5.409  12.952  0.00  0.00    +0.000 A 
ATOM     15  H   UNL     1      42.156   4.520  12.091  0.00  0.00    +0.000 HD
ENDBRANCH   2   5
BRANCH   1  16
ATOM     16  C   UNL     1      47.313   3.435  16.863  0.00  0.00    +0.000 C 
BRANCH  16  22
ATOM     17  C   UNL     1      51.807   1.227  17.424  0.00  0.00    +0.000 C 
ATOM     18  C   UNL     1      50.975   2.475  17.395  0.00  0.00    +0.000 A 
ATOM     19  C   UNL     1      51.560   3.733  17.568  0.00  0.00    +0.000 A 
ATOM     20  C   UNL     1      50.774   4.886  17.532  0.00  0.00    +0.000 A 
ATOM     21  C   UNL     1      49.399   4.793  17.317  0.00  0.00    +0.000 A 
ATOM     22  C   UNL     1      48.792   3.543  17.136  0.00  0.00    +0.000 A 
ATOM     23  C   UNL     1      49.592   2.389  17.178  0.00  0.00    +0.000 A 
ENDBRANCH  16  22
ENDBRANCH   1  16
TORSDOF 3
ENDMDL
MODEL 4
REMARK VINA RESULT:    -7.099      3.863      7.342
REMARK INTER + INTRA:          -8.857
REMARK INTER:                  -8.208
REMARK INTRA:                  -0.649
REMARK UNBOUND:                -0.512
REMARK  Name = 
REMARK  4 active torsions:
REMARK  status: ('A' for Active; 'I' for Inactive)
REMARK    1  A    between atoms: C_1  and  C_2
REMARK    2  A    between atoms: C_6  and  C_7
REMARK    3  A    between atoms: C_7  and  N_8
REMARK    4  A    between atoms: C_9  and  C_11
REMARK                            x       y       z     vdW  Elec       q    Type
REMARK                         _______ _______ _______ _____ _____    ______ ____
ROOT
ATOM      1  N   UNL     1      47.719   6.844  14.753  0.00  0.00    +0.000 N 
ATOM      2  C   UNL     1      47.787   6.392  13.460  0.00  0.00    +0.000 C 
ATOM      3  O   UNL     1      48.851   6.098  12.924  0.00  0.00    +0.000 OA
ATOM      4  H   UNL     1      46.863   7.268  15.094  0.00  0.00    +0.000 HD
ENDROOT
BRANCH   2   5
ATOM      5  C   UNL     1      46.507   6.208  12.765  0.00  0.00    +0.000 A 
ATOM      6  C   UNL     1      45.870   7.308  12.205  0.00  0.00    +0.000 A 
ATOM      7  S   UNL     1      44.420   6.921  11.397  0.00  0.00    +0.000 S 
ATOM      8  C   UNL     1      44.567   5.277  11.808  0.00  0.00    +0.000 A 
ATOM      9  N   UNL     1      43.618   4.377  11.434  0.00  0.00    +0.000 NA
ATOM     10  C   UNL     1      43.836   3.172  11.843  0.00  0.00    +0.000 A 
ATOM     11  N   UNL     1      44.921   2.784  12.586  0.00  0.00    +0.000 N 
ATOM     12  C   UNL     1      45.921   3.651  12.957  0.00  0.00    +0.000 A 
ATOM     13  O   UNL     1      46.905   3.262  13.578  0.00  0.00    +0.000 OA
ATOM     14  C   UNL     1      45.715   5.023  12.535  0.00  0.00    +0.000 A 
ATOM     15  H   UNL     1      45.036   1.821  12.868  0.00  0.00    +0.000 HD
ENDBRANCH   2   5
BRANCH   1  16
ATOM     16  C   UNL     1      48.903   7.055  15.551  0.00  0.00    +0.000 C 
BRANCH  16  22
ATOM     17  C   UNL     1      47.327   2.776  17.698  0.00  0.00    +0.000 C 
ATOM     18  C   UNL     1      48.412   3.789  17.479  0.00  0.00    +0.000 A 
ATOM     19  C   UNL     1      49.676   3.624  18.053  0.00  0.00    +0.000 A 
ATOM     20  C   UNL     1      50.678   4.571  17.835  0.00  0.00    +0.000 A 
ATOM     21  C   UNL     1      50.428   5.688  17.038  0.00  0.00    +0.000 A 
ATOM     22  C   UNL     1      49.171   5.871  16.447  0.00  0.00    +0.000 A 
ATOM     23  C   UNL     1      48.169   4.914  16.676  0.00  0.00    +0.000 A 
ENDBRANCH  16  22
ENDBRANCH   1  16
TORSDOF 3
ENDMDL
MODEL 5
REMARK VINA RESULT:    -7.035      2.010      2.910
REMARK INTER + INTRA:          -8.781
REMARK INTER:                  -8.106
REMARK INTRA:                  -0.675
REMARK UNBOUND:                -0.512
REMARK  Name = 
REMARK  4 active torsions:
REMARK  status: ('A' for Active; 'I' for Inactive)
REMARK    1  A    between atoms: C_1  and  C_2
REMARK    2  A    between atoms: C_6  and  C_7
REMARK    3  A    between atoms: C_7  and  N_8
REMARK    4  A    between atoms: C_9  and  C_11
REMARK                            x       y       z     vdW  Elec       q    Type
REMARK                         _______ _______ _______ _____ _____    ______ ____
ROOT
ATOM      1  N   UNL     1      46.529   6.152  11.823  0.00  0.00    +0.000 N 
ATOM      2  C   UNL     1      46.580   7.062  12.848  0.00  0.00    +0.000 C 
ATOM      3  O   UNL     1      45.849   8.048  12.885  0.00  0.00    +0.000 OA
ATOM      4  H   UNL     1      47.274   5.472  11.717  0.00  0.00    +0.000 HD
ENDROOT
BRANCH   2   5
ATOM      5  C   UNL     1      47.509   6.762  13.943  0.00  0.00    +0.000 A 
ATOM      6  C   UNL     1      48.508   7.673  14.261  0.00  0.00    +0.000 A 
ATOM      7  S   UNL     1      49.474   7.198  15.582  0.00  0.00    +0.000 S 
ATOM      8  C   UNL     1      48.625   5.733  15.744  0.00  0.00    +0.000 A 
ATOM      9  N   UNL     1      48.971   4.827  16.698  0.00  0.00    +0.000 NA
ATOM     10  C   UNL     1      48.268   3.745  16.686  0.00  0.00    +0.000 A 
ATOM     11  N   UNL     1      47.243   3.490  15.813  0.00  0.00    +0.000 N 
ATOM     12  C   UNL     1      46.834   4.389  14.857  0.00  0.00    +0.000 A 
ATOM     13  O   UNL     1      45.879   4.152  14.123  0.00  0.00    +0.000 OA
ATOM     14  C   UNL     1      47.606   5.616  14.817  0.00  0.00    +0.000 A 
ATOM     15  H   UNL     1      46.725   2.624  15.862  0.00  0.00    +0.000 HD
ENDBRANCH   2   5
BRANCH   1  16
ATOM     16  C   UNL     1      45.648   6.323  10.693  0.00  0.00    +0.000 C 
BRANCH  16  22
ATOM     17  C   UNL     1      46.149   3.228   6.748  0.00  0.00    +0.000 C 
ATOM     18  C   UNL     1      45.608   3.493   8.122  0.00  0.00    +0.000 A 
ATOM     19  C   UNL     1      44.881   2.516   8.809  0.00  0.00    +0.000 A 
ATOM     20  C   UNL     1      44.389   2.775  10.089  0.00  0.00    +0.000 A 
ATOM     21  C   UNL     1      44.624   4.009  10.696  0.00  0.00    +0.000 A 
ATOM     22  C   UNL     1      45.355   5.000  10.029  0.00  0.00    +0.000 A 
ATOM     23  C   UNL     1      45.842   4.730   8.740  0.00  0.00    +0.000 A 
ENDBRANCH  16  22
ENDBRANCH   1  16
TORSDOF 3
ENDMDL
MODEL 6
REMARK VINA RESULT:    -6.901      4.651      7.641
REMARK INTER + INTRA:          -8.624
REMARK INTER:                  -7.869
REMARK INTRA:                  -0.755
REMARK UNBOUND:                -0.512
REMARK  Name = 
REMARK  4 active torsions:
REMARK  status: ('A' for Active; 'I' for Inactive)
REMARK    1  A    between atoms: C_1  and  C_2
REMARK    2  A    between atoms: C_6  and  C_7
REMARK    3  A    between atoms: C_7  and  N_8
REMARK    4  A    between atoms: C_9  and  C_11
REMARK                            x       y       z     vdW  Elec       q    Type
REMARK                         _______ _______ _______ _____ _____    ______ ____
ROOT
ATOM      1  N   UNL     1      47.020   4.520  15.884  0.00  0.00    +0.000 N 
ATOM      2  C   UNL     1      46.982   4.266  14.537  0.00  0.00    +0.000 C 
ATOM      3  O   UNL     1      47.211   3.153  14.073  0.00  0.00    +0.000 OA
ATOM      4  H   UNL     1      47.030   5.478  16.216  0.00  0.00    +0.000 HD
ENDROOT
BRANCH   2   5
ATOM      5  C   UNL     1      46.584   5.384  13.673  0.00  0.00    +0.000 A 
ATOM      6  C   UNL     1      45.376   5.322  12.989  0.00  0.00    +0.000 A 
ATOM      7  S   UNL     1      45.039   6.714  12.066  0.00  0.00    +0.000 S 
ATOM      8  C   UNL     1      46.518   7.430  12.508  0.00  0.00    +0.000 A 
ATOM      9  N   UNL     1      46.873   8.652  12.028  0.00  0.00    +0.000 NA
ATOM     10  C   UNL     1      48.035   9.059  12.414  0.00  0.00    +0.000 A 
ATOM     11  N   UNL     1      48.872   8.358  13.243  0.00  0.00    +0.000 N 
ATOM     12  C   UNL     1      48.542   7.137  13.780  0.00  0.00    +0.000 A 
ATOM     13  O   UNL     1      49.292   6.558  14.560  0.00  0.00    +0.000 OA
ATOM     14  C   UNL     1      47.250   6.626  13.363  0.00  0.00    +0.000 A 
ATOM     15  H   UNL     1      49.768   8.739  13.514  0.00  0.00    +0.000 HD
ENDBRANCH   2   5
BRANCH   1  16
ATOM     16  C   UNL     1      47.384   3.504  16.843  0.00  0.00    +0.000 C 
BRANCH  16  22
ATOM     17  C   UNL     1      51.834   1.217  17.444  0.00  0.00    +0.000 C 
ATOM     18  C   UNL     1      51.013   2.473  17.462  0.00  0.00    +0.000 A 
ATOM     19  C   UNL     1      51.600   3.712  17.740  0.00  0.00    +0.000 A 
ATOM     20  C   UNL     1      50.826   4.872  17.746  0.00  0.00    +0.000 A 
ATOM     21  C   UNL     1      49.460   4.808  17.470  0.00  0.00    +0.000 A 
ATOM     22  C   UNL     1      48.852   3.579  17.182  0.00  0.00    +0.000 A 
ATOM     23  C   UNL     1      49.640   2.417  17.182  0.00  0.00    +0.000 A 
ENDBRANCH  16  22
ENDBRANCH   1  16
TORSDOF 3
ENDMDL
MODEL 7
REMARK VINA RESULT:    -6.669      3.713      8.561
REMARK INTER + INTRA:          -8.352
REMARK INTER:                  -7.752
REMARK INTRA:                  -0.600
REMARK UNBOUND:                -0.512
REMARK  Name = 
REMARK  4 active torsions:
REMARK  status: ('A' for Active; 'I' for Inactive)
REMARK    1  A    between atoms: C_1  and  C_2
REMARK    2  A    between atoms: C_6  and  C_7
REMARK    3  A    between atoms: C_7  and  N_8
REMARK    4  A    between atoms: C_9  and  C_11
REMARK                            x       y       z     vdW  Elec       q    Type
REMARK                         _______ _______ _______ _____ _____    ______ ____
ROOT
ATOM      1  N   UNL     1      47.748   6.041  15.205  0.00  0.00    +0.000 N 
ATOM      2  C   UNL     1      47.914   6.289  13.867  0.00  0.00    +0.000 C 
ATOM      3  O   UNL     1      49.010   6.553  13.381  0.00  0.00    +0.000 OA
ATOM      4  H   UNL     1      46.814   6.030  15.603  0.00  0.00    +0.000 HD
ENDROOT
BRANCH   2   5
ATOM      5  C   UNL     1      46.720   6.153  13.024  0.00  0.00    +0.000 A 
ATOM      6  C   UNL     1      46.166   7.283  12.437  0.00  0.00    +0.000 A 
ATOM      7  S   UNL     1      44.813   6.952  11.455  0.00  0.00    +0.000 S 
ATOM      8  C   UNL     1      44.888   5.292  11.820  0.00  0.00    +0.000 A 
ATOM      9  N   UNL     1      43.976   4.423  11.308  0.00  0.00    +0.000 NA
ATOM     10  C   UNL     1      44.128   3.201  11.694  0.00  0.00    +0.000 A 
ATOM     11  N   UNL     1      45.115   2.767  12.541  0.00  0.00    +0.000 N 
ATOM     12  C   UNL     1      46.079   3.602  13.054  0.00  0.00    +0.000 A 
ATOM     13  O   UNL     1      46.980   3.173  13.769  0.00  0.00    +0.000 OA
ATOM     14  C   UNL     1      45.942   4.991  12.663  0.00  0.00    +0.000 A 
ATOM     15  H   UNL     1      45.183   1.793  12.798  0.00  0.00    +0.000 HD
ENDBRANCH   2   5
BRANCH   1  16
ATOM     16  C   UNL     1      48.843   6.127  16.140  0.00  0.00    +0.000 C 
BRANCH  16  22
ATOM     17  C   UNL     1      47.318   6.143  20.943  0.00  0.00    +0.000 C 
ATOM     18  C   UNL     1      47.716   6.901  19.711  0.00  0.00    +0.000 A 
ATOM     19  C   UNL     1      47.765   8.298  19.711  0.00  0.00    +0.000 A 
ATOM     20  C   UNL     1      48.144   8.989  18.560  0.00  0.00    +0.000 A 
ATOM     21  C   UNL     1      48.480   8.292  17.399  0.00  0.00    +0.000 A 
ATOM     22  C   UNL     1      48.443   6.892  17.377  0.00  0.00    +0.000 A 
ATOM     23  C   UNL     1      48.058   6.206  18.541  0.00  0.00    +0.000 A 
ENDBRANCH  16  22
ENDBRANCH   1  16
TORSDOF 3
ENDMDL
MODEL 8
REMARK VINA RESULT:    -6.507      3.901      7.256
REMARK INTER + INTRA:          -8.161
REMARK INTER:                  -7.597
REMARK INTRA:                  -0.564
REMARK UNBOUND:                -0.512
REMARK  Name = 
REMARK  4 active torsions:
REMARK  status: ('A' for Active; 'I' for Inactive)
REMARK    1  A    between atoms: C_1  and  C_2
REMARK    2  A    between atoms: C_6  and  C_7
REMARK    3  A    between atoms: C_7  and  N_8
REMARK    4  A    between atoms: C_9  and  C_11
REMARK                            x       y       z     vdW  Elec       q    Type
REMARK                         _______ _______ _______ _____ _____    ______ ____
ROOT
ATOM      1  N   UNL     1      44.388   7.704  11.129  0.00  0.00    +0.000 N 
ATOM      2  C   UNL     1      45.042   6.744  11.858  0.00  0.00    +0.000 C 
ATOM      3  O   UNL     1      45.881   7.026  12.708  0.00  0.00    +0.000 OA
ATOM      4  H   UNL     1      43.861   7.437  10.304  0.00  0.00    +0.000 HD
ENDROOT
BRANCH   2   5
ATOM      5  C   UNL     1      44.637   5.354  11.620  0.00  0.00    +0.000 A 
ATOM      6  C   UNL     1      43.935   4.668  12.603  0.00  0.00    +0.000 A 
ATOM      7  S   UNL     1      43.500   3.082  12.155  0.00  0.00    +0.000 S 
ATOM      8  C   UNL     1      44.279   3.237  10.651  0.00  0.00    +0.000 A 
ATOM      9  N   UNL     1      44.305   2.202   9.769  0.00  0.00    +0.000 NA
ATOM     10  C   UNL     1      44.960   2.443   8.683  0.00  0.00    +0.000 A 
ATOM     11  N   UNL     1      45.585   3.628   8.396  0.00  0.00    +0.000 N 
ATOM     12  C   UNL     1      45.557   4.712   9.240  0.00  0.00    +0.000 A 
ATOM     13  O   UNL     1      46.083   5.777   8.931  0.00  0.00    +0.000 OA
ATOM     14  C   UNL     1      44.846   4.487  10.484  0.00  0.00    +0.000 A 
ATOM     15  H   UNL     1      46.076   3.754   7.522  0.00  0.00    +0.000 HD
ENDBRANCH   2   5
BRANCH   1  16
ATOM     16  C   UNL     1      44.683   9.109  11.277  0.00  0.00    +0.000 C 
BRANCH  16  22
ATOM     17  C   UNL     1      39.899  10.537  10.586  0.00  0.00    +0.000 C 
ATOM     18  C   UNL     1      41.350  10.658  10.223  0.00  0.00    +0.000 A 
ATOM     19  C   UNL     1      41.775  11.577   9.257  0.00  0.00    +0.000 A 
ATOM     20  C   UNL     1      43.128  11.683   8.934  0.00  0.00    +0.000 A 
ATOM     21  C   UNL     1      44.070  10.878   9.575  0.00  0.00    +0.000 A 
ATOM     22  C   UNL     1      43.668   9.955  10.549  0.00  0.00    +0.000 A 
ATOM     23  C   UNL     1      42.303   9.854  10.864  0.00  0.00    +0.000 A 
ENDBRANCH  16  22
ENDBRANCH   1  16
TORSDOF 3
ENDMDL
MODEL 9
REMARK VINA RESULT:    -6.141      3.506      5.196
REMARK INTER + INTRA:          -7.730
REMARK INTER:                  -7.083
REMARK INTRA:                  -0.647
REMARK UNBOUND:                -0.512
REMARK  Name = 
REMARK  4 active torsions:
REMARK  status: ('A' for Active; 'I' for Inactive)
REMARK    1  A    between atoms: C_1  and  C_2
REMARK    2  A    between atoms: C_6  and  C_7
REMARK    3  A    between atoms: C_7  and  N_8
REMARK    4  A    between atoms: C_9  and  C_11
REMARK                            x       y       z     vdW  Elec       q    Type
REMARK                         _______ _______ _______ _____ _____    ______ ____
ROOT
ATOM      1  N   UNL     1      47.923   6.372  13.075  0.00  0.00    +0.000 N 
ATOM      2  C   UNL     1      48.108   7.158  14.183  0.00  0.00    +0.000 C 
ATOM      3  O   UNL     1      47.756   8.334  14.218  0.00  0.00    +0.000 OA
ATOM      4  H   UNL     1      48.402   5.480  13.005  0.00  0.00    +0.000 HD
ENDROOT
BRANCH   2   5
ATOM      5  C   UNL     1      48.688   6.502  15.360  0.00  0.00    +0.000 A 
ATOM      6  C   UNL     1      49.805   7.057  15.972  0.00  0.00    +0.000 A 
ATOM      7  S   UNL     1      50.328   6.202  17.350  0.00  0.00    +0.000 S 
ATOM      8  C   UNL     1      49.112   5.029  17.149  0.00  0.00    +0.000 A 
ATOM      9  N   UNL     1      49.012   3.974  18.002  0.00  0.00    +0.000 NA
ATOM     10  C   UNL     1      48.069   3.142  17.713  0.00  0.00    +0.000 A 
ATOM     11  N   UNL     1      47.209   3.275  16.653  0.00  0.00    +0.000 N 
ATOM     12  C   UNL     1      47.250   4.341  15.787  0.00  0.00    +0.000 A 
ATOM     13  O   UNL     1      46.433   4.456  14.878  0.00  0.00    +0.000 OA
ATOM     14  C   UNL     1      48.305   5.297  16.059  0.00  0.00    +0.000 A 
ATOM     15  H   UNL     1      46.486   2.590  16.487  0.00  0.00    +0.000 HD
ENDBRANCH   2   5
BRANCH   1  16
ATOM     16  C   UNL     1      47.350   6.891  11.856  0.00  0.00    +0.000 C 
BRANCH  16  22
ATOM     17  C   UNL     1      42.876   4.868  12.990  0.00  0.00    +0.000 C 
ATOM     18  C   UNL     1      43.963   5.122  11.987  0.00  0.00    +0.000 A 
ATOM     19  C   UNL     1      43.845   4.671  10.669  0.00  0.00    +0.000 A 
ATOM     20  C   UNL     1      44.861   4.920   9.746  0.00  0.00    +0.000 A 
ATOM     21  C   UNL     1      46.002   5.626  10.129  0.00  0.00    +0.000 A 
ATOM     22  C   UNL     1      46.139   6.092  11.443  0.00  0.00    +0.000 A 
ATOM     23  C   UNL     1      45.111   5.833  12.365  0.00  0.00    +0.000 A 
ENDBRANCH  16  22
ENDBRANCH   1  16
TORSDOF 3
ENDMDL
