MODEL 1
REMARK VINA RESULT:    -7.012      0.000      0.000
REMARK INTER + INTRA:          -9.818
REMARK INTER:                  -9.061
REMARK INTRA:                  -0.757
REMARK UNBOUND:                -0.757
REMARK  Name = 
REMARK  5 active torsions:
REMARK  status: ('A' for Active; 'I' for Inactive)
REMARK    1  A    between atoms: C_2  and  C_4
REMARK    2  A    between atoms: C_9  and  C_10
REMARK    3  A    between atoms: C_10  and  S_11
REMARK    4  A    between atoms: S_11  and  C_12
REMARK    5  A    between atoms: C_16  and  N_17
REMARK                            x       y       z     vdW  Elec       q    Type
REMARK                         _______ _______ _______ _____ _____    ______ ____
ROOT
ATOM      1  C   UNL     1      46.548   7.152  11.624  0.00  0.00    +0.000 C 
ENDROOT
BRANCH   1   7
ATOM      2  C   UNL     1      47.604   5.331  14.792  0.00  0.00    +0.000 A 
ATOM      3  C   UNL     1      48.443   6.259  15.410  0.00  0.00    +0.000 A 
ATOM      4  C   UNL     1      48.633   7.516  14.830  0.00  0.00    +0.000 A 
ATOM      5  C   UNL     1      48.002   7.847  13.623  0.00  0.00    +0.000 A 
ATOM      6 BR   UNL     1      48.324   9.584  12.927  0.00  0.00    +0.000 Br
ATOM      7  C   UNL     1      47.189   6.911  12.967  0.00  0.00    +0.000 A 
ATOM      8  C   UNL     1      46.991   5.654  13.576  0.00  0.00    +0.000 A 
BRANCH   2  10
ATOM      9  N   UNL     1      46.917   3.933  16.659  0.00  0.00    +0.000 N 
ATOM     10  C   UNL     1      47.362   3.983  15.368  0.00  0.00    +0.000 C 
ATOM     11  O   UNL     1      47.515   2.962  14.707  0.00  0.00    +0.000 OA
ATOM     12  H   UNL     1      46.638   3.021  16.998  0.00  0.00    +0.000 HD
ATOM     13  H   UNL     1      46.538   4.741  17.132  0.00  0.00    +0.000 HD
ENDBRANCH   2  10
ENDBRANCH   1   7
BRANCH   1  14
ATOM     14  S   UNL     1      44.737   6.974  11.645  0.00  0.00    +0.000 S 
BRANCH  14  15
ATOM     15  C   UNL     1      44.502   5.285  11.077  0.00  0.00    +0.000 A 
ATOM     16  C   UNL     1      43.551   4.508  11.744  0.00  0.00    +0.000 A 
ATOM     17  C   UNL     1      43.341   3.177  11.377  0.00  0.00    +0.000 A 
ATOM     18  C   UNL     1      44.088   2.617  10.341  0.00  0.00    +0.000 A 
ATOM     19  C   UNL     1      45.037   3.367   9.636  0.00  0.00    +0.000 A 
ATOM     20  C   UNL     1      45.219   4.702  10.019  0.00  0.00    +0.000 A 
BRANCH  19  21
ATOM     21  N   UNL     1      45.709   2.790   8.568  0.00  0.00    +0.000 N 
ATOM     22  C   UNL     1      45.739   1.331   8.381  0.00  0.00    +0.000 C 
ATOM     23  C   UNL     1      46.971   0.981   7.529  0.00  0.00    +0.000 C 
ATOM     24  O   UNL     1      46.956   1.670   6.265  0.00  0.00    +0.000 OA
ATOM     25  C   UNL     1      46.912   3.096   6.467  0.00  0.00    +0.000 C 
ATOM     26  C   UNL     1      45.674   3.510   7.279  0.00  0.00    +0.000 C 
ENDBRANCH  19  21
ENDBRANCH  14  15
ENDBRANCH   1  14
TORSDOF 5
ENDMDL
MODEL 2
REMARK VINA RESULT:    -6.707      3.174      4.892
REMARK INTER + INTRA:          -9.425
REMARK INTER:                  -8.716
REMARK INTRA:                  -0.709
REMARK UNBOUND:                -0.757
REMARK  Name = 
REMARK  5 active torsions:
REMARK  status: ('A' for Active; 'I' for Inactive)
REMARK    1  A    between atoms: C_2  and  C_4
REMARK    2  A    between atoms: C_9  and  C_10
REMARK    3  A    between atoms: C_10  and  S_11
REMARK    4  A    between atoms: S_11  and  C_12
REMARK    5  A    between atoms: C_16  and  N_17
REMARK                            x       y       z     vdW  Elec       q    Type
REMARK                         _______ _______ _______ _____ _____    ______ ____
ROOT
ATOM      1  C   UNL     1      48.834   7.316  16.321  0.00  0.00    +0.000 C 
ENDROOT
BRANCH   1   7
ATOM      2  C   UNL     1      49.168   3.750  17.602  0.00  0.00    +0.000 A 
ATOM      3  C   UNL     1      48.707   3.856  18.916  0.00  0.00    +0.000 A 
ATOM      4  C   UNL     1      48.229   5.081  19.387  0.00  0.00    +0.000 A 
ATOM      5  C   UNL     1      48.222   6.210  18.557  0.00  0.00    +0.000 A 
ATOM      6 BR   UNL     1      47.543   7.822  19.295  0.00  0.00    +0.000 Br
ATOM      7  C   UNL     1      48.720   6.132  17.247  0.00  0.00    +0.000 A 
ATOM      8  C   UNL     1      49.181   4.883  16.780  0.00  0.00    +0.000 A 
BRANCH   2  10
ATOM      9  N   UNL     1      50.702   1.868  17.728  0.00  0.00    +0.000 N 
ATOM     10  C   UNL     1      49.681   2.471  17.049  0.00  0.00    +0.000 C 
ATOM     11  O   UNL     1      49.188   1.955  16.052  0.00  0.00    +0.000 OA
ATOM     12  H   UNL     1      50.959   0.940  17.414  0.00  0.00    +0.000 HD
ATOM     13  H   UNL     1      50.946   2.124  18.675  0.00  0.00    +0.000 HD
ENDBRANCH   2  10
ENDBRANCH   1   7
BRANCH   1  14
ATOM     14  S   UNL     1      49.244   6.856  14.608  0.00  0.00    +0.000 S 
BRANCH  14  15
ATOM     15  C   UNL     1      47.665   7.030  13.767  0.00  0.00    +0.000 A 
ATOM     16  C   UNL     1      47.163   8.323  13.601  0.00  0.00    +0.000 A 
ATOM     17  C   UNL     1      45.926   8.528  12.986  0.00  0.00    +0.000 A 
ATOM     18  C   UNL     1      45.183   7.436  12.540  0.00  0.00    +0.000 A 
ATOM     19  C   UNL     1      45.659   6.126  12.672  0.00  0.00    +0.000 A 
ATOM     20  C   UNL     1      46.908   5.950  13.282  0.00  0.00    +0.000 A 
BRANCH  19  21
ATOM     21  N   UNL     1      44.919   5.072  12.153  0.00  0.00    +0.000 N 
ATOM     22  C   UNL     1      43.823   4.458  12.919  0.00  0.00    +0.000 C 
ATOM     23  C   UNL     1      43.605   3.032  12.384  0.00  0.00    +0.000 C 
ATOM     24  O   UNL     1      43.321   3.031  10.972  0.00  0.00    +0.000 OA
ATOM     25  C   UNL     1      44.398   3.650  10.241  0.00  0.00    +0.000 C 
ATOM     26  C   UNL     1      44.633   5.096  10.704  0.00  0.00    +0.000 C 
ENDBRANCH  19  21
ENDBRANCH  14  15
ENDBRANCH   1  14
TORSDOF 5
ENDMDL
MODEL 3
REMARK VINA RESULT:    -6.576      2.923      4.496
REMARK INTER + INTRA:          -9.255
REMARK INTER:                  -8.633
REMARK INTRA:                  -0.622
REMARK UNBOUND:                -0.757
REMARK  Name = 
REMARK  5 active torsions:
REMARK  status: ('A' for Active; 'I' for Inactive)
REMARK    1  A    between atoms: C_2  and  C_4
REMARK    2  A    between atoms: C_9  and  C_10
REMARK    3  A    between atoms: C_10  and  S_11
REMARK    4  A    between atoms: S_11  and  C_12
REMARK    5  A    between atoms: C_16  and  N_17
REMARK                            x       y       z     vdW  Elec       q    Type
REMARK                         _______ _______ _______ _____ _____    ______ ____
ROOT
ATOM      1  C   UNL     1      48.935   7.501  15.544  0.00  0.00    +0.000 C 
ENDROOT
BRANCH   1   7
ATOM      2  C   UNL     1      48.910   4.286  17.575  0.00  0.00    +0.000 A 
ATOM      3  C   UNL     1      50.267   4.068  17.815  0.00  0.00    +0.000 A 
ATOM      4  C   UNL     1      51.209   4.998  17.366  0.00  0.00    +0.000 A 
ATOM      5  C   UNL     1      50.804   6.138  16.661  0.00  0.00    +0.000 A 
ATOM      6 BR   UNL     1      52.164   7.339  16.103  0.00  0.00    +0.000 Br
ATOM      7  C   UNL     1      49.447   6.351  16.374  0.00  0.00    +0.000 A 
ATOM      8  C   UNL     1      48.507   5.414  16.852  0.00  0.00    +0.000 A 
BRANCH   2  10
ATOM      9  N   UNL     1      48.051   2.759  19.262  0.00  0.00    +0.000 N 
ATOM     10  C   UNL     1      47.867   3.333  18.036  0.00  0.00    +0.000 C 
ATOM     11  O   UNL     1      46.865   3.101  17.368  0.00  0.00    +0.000 OA
ATOM     12  H   UNL     1      47.278   2.211  19.617  0.00  0.00    +0.000 HD
ATOM     13  H   UNL     1      48.713   3.120  19.934  0.00  0.00    +0.000 HD
ENDBRANCH   2  10
ENDBRANCH   1   7
BRANCH   1  14
ATOM     14  S   UNL     1      49.185   7.270  13.756  0.00  0.00    +0.000 S 
BRANCH  14  15
ATOM     15  C   UNL     1      47.503   7.259  13.122  0.00  0.00    +0.000 A 
ATOM     16  C   UNL     1      46.851   8.489  13.008  0.00  0.00    +0.000 A 
ATOM     17  C   UNL     1      45.531   8.551  12.555  0.00  0.00    +0.000 A 
ATOM     18  C   UNL     1      44.857   7.377  12.219  0.00  0.00    +0.000 A 
ATOM     19  C   UNL     1      45.482   6.126  12.303  0.00  0.00    +0.000 A 
ATOM     20  C   UNL     1      46.809   6.096  12.751  0.00  0.00    +0.000 A 
BRANCH  19  21
ATOM     21  N   UNL     1      44.797   4.990  11.895  0.00  0.00    +0.000 N 
ATOM     22  C   UNL     1      43.741   4.394  12.728  0.00  0.00    +0.000 C 
ATOM     23  C   UNL     1      43.598   2.914  12.333  0.00  0.00    +0.000 C 
ATOM     24  O   UNL     1      43.306   2.763  10.932  0.00  0.00    +0.000 OA
ATOM     25  C   UNL     1      44.343   3.366  10.133  0.00  0.00    +0.000 C 
ATOM     26  C   UNL     1      44.502   4.860  10.454  0.00  0.00    +0.000 C 
ENDBRANCH  19  21
ENDBRANCH  14  15
ENDBRANCH   1  14
TORSDOF 5
ENDMDL
MODEL 4
REMARK VINA RESULT:    -6.056      5.738      7.386
REMARK INTER + INTRA:          -8.583
REMARK INTER:                  -8.011
REMARK INTRA:                  -0.572
REMARK UNBOUND:                -0.757
REMARK  Name = 
REMARK  5 active torsions:
REMARK  status: ('A' for Active; 'I' for Inactive)
REMARK    1  A    between atoms: C_2  and  C_4
REMARK    2  A    between atoms: C_9  and  C_10
REMARK    3  A    between atoms: C_10  and  S_11
REMARK    4  A    between atoms: S_11  and  C_12
REMARK    5  A    between atoms: C_16  and  N_17
REMARK                            x       y       z     vdW  Elec       q    Type
REMARK                         _______ _______ _______ _____ _____    ______ ____
ROOT
ATOM      1  C   UNL     1      43.718  10.186   9.965  0.00  0.00    +0.000 C 
ENDROOT
BRANCH   1   7
ATOM      2  C   UNL     1      40.094  11.010  10.775  0.00  0.00    +0.000 A 
ATOM      3  C   UNL     1      39.841  12.107   9.950  0.00  0.00    +0.000 A 
ATOM      4  C   UNL     1      40.832  12.561   9.076  0.00  0.00    +0.000 A 
ATOM      5  C   UNL     1      42.084  11.934   9.031  0.00  0.00    +0.000 A 
ATOM      6 BR   UNL     1      43.354  12.626   7.801  0.00  0.00    +0.000 Br
ATOM      7  C   UNL     1      42.370  10.857   9.884  0.00  0.00    +0.000 A 
ATOM      8  C   UNL     1      41.353  10.398  10.746  0.00  0.00    +0.000 A 
BRANCH   2  10
ATOM      9  N   UNL     1      38.611  11.345  12.674  0.00  0.00    +0.000 N 
ATOM     10  C   UNL     1      39.075  10.484  11.719  0.00  0.00    +0.000 C 
ATOM     11  O   UNL     1      38.637   9.342  11.624  0.00  0.00    +0.000 OA
ATOM     12  H   UNL     1      37.832  11.015  13.229  0.00  0.00    +0.000 HD
ATOM     13  H   UNL     1      38.752  12.343  12.615  0.00  0.00    +0.000 HD
ENDBRANCH   2  10
ENDBRANCH   1   7
BRANCH   1  14
ATOM     14  S   UNL     1      44.503  10.339  11.600  0.00  0.00    +0.000 S 
BRANCH  14  15
ATOM     15  C   UNL     1      45.292   8.736  11.807  0.00  0.00    +0.000 A 
ATOM     16  C   UNL     1      46.634   8.725  12.196  0.00  0.00    +0.000 A 
ATOM     17  C   UNL     1      47.318   7.517  12.342  0.00  0.00    +0.000 A 
ATOM     18  C   UNL     1      46.660   6.312  12.096  0.00  0.00    +0.000 A 
ATOM     19  C   UNL     1      45.310   6.280  11.722  0.00  0.00    +0.000 A 
ATOM     20  C   UNL     1      44.647   7.507  11.593  0.00  0.00    +0.000 A 
BRANCH  19  21
ATOM     21  N   UNL     1      44.675   5.058  11.553  0.00  0.00    +0.000 N 
ATOM     22  C   UNL     1      43.684   4.571  12.526  0.00  0.00    +0.000 C 
ATOM     23  C   UNL     1      43.609   3.038  12.405  0.00  0.00    +0.000 C 
ATOM     24  O   UNL     1      43.275   2.626  11.067  0.00  0.00    +0.000 OA
ATOM     25  C   UNL     1      44.246   3.125  10.128  0.00  0.00    +0.000 C 
ATOM     26  C   UNL     1      44.335   4.659  10.173  0.00  0.00    +0.000 C 
ENDBRANCH  19  21
ENDBRANCH  14  15
ENDBRANCH   1  14
TORSDOF 5
ENDMDL
MODEL 5
REMARK VINA RESULT:    -5.918      4.067      7.555
REMARK INTER + INTRA:          -8.405
REMARK INTER:                  -7.851
REMARK INTRA:                  -0.554
REMARK UNBOUND:                -0.757
REMARK  Name = 
REMARK  5 active torsions:
REMARK  status: ('A' for Active; 'I' for Inactive)
REMARK    1  A    between atoms: C_2  and  C_4
REMARK    2  A    between atoms: C_9  and  C_10
REMARK    3  A    between atoms: C_10  and  S_11
REMARK    4  A    between atoms: S_11  and  C_12
REMARK    5  A    between atoms: C_16  and  N_17
REMARK                            x       y       z     vdW  Elec       q    Type
REMARK                         _______ _______ _______ _____ _____    ______ ____
ROOT
ATOM      1  C   UNL     1      45.171   6.685  11.254  0.00  0.00    +0.000 C 
ENDROOT
BRANCH   1   7
ATOM      2  C   UNL     1      45.406   3.676   8.940  0.00  0.00    +0.000 A 
ATOM      3  C   UNL     1      44.572   2.747   9.565  0.00  0.00    +0.000 A 
ATOM      4  C   UNL     1      43.877   3.107  10.722  0.00  0.00    +0.000 A 
ATOM      5  C   UNL     1      44.022   4.388  11.270  0.00  0.00    +0.000 A 
ATOM      6 BR   UNL     1      43.025   4.775  12.839  0.00  0.00    +0.000 Br
ATOM      7  C   UNL     1      44.888   5.320  10.679  0.00  0.00    +0.000 A 
ATOM      8  C   UNL     1      45.567   4.948   9.500  0.00  0.00    +0.000 A 
BRANCH   2  10
ATOM      9  N   UNL     1      46.564   2.050   7.551  0.00  0.00    +0.000 N 
ATOM     10  C   UNL     1      46.163   3.347   7.705  0.00  0.00    +0.000 C 
ATOM     11  O   UNL     1      46.386   4.189   6.842  0.00  0.00    +0.000 OA
ATOM     12  H   UNL     1      46.969   1.813   6.654  0.00  0.00    +0.000 HD
ATOM     13  H   UNL     1      46.178   1.296   8.102  0.00  0.00    +0.000 HD
ENDBRANCH   2  10
ENDBRANCH   1   7
BRANCH   1  14
ATOM     14  S   UNL     1      46.442   6.670  12.557  0.00  0.00    +0.000 S 
BRANCH  14  15
ATOM     15  C   UNL     1      47.428   8.120  12.159  0.00  0.00    +0.000 A 
ATOM     16  C   UNL     1      46.807   9.367  12.259  0.00  0.00    +0.000 A 
ATOM     17  C   UNL     1      47.504  10.533  11.933  0.00  0.00    +0.000 A 
ATOM     18  C   UNL     1      48.827  10.452  11.500  0.00  0.00    +0.000 A 
ATOM     19  C   UNL     1      49.491   9.222  11.403  0.00  0.00    +0.000 A 
ATOM     20  C   UNL     1      48.770   8.071  11.747  0.00  0.00    +0.000 A 
BRANCH  19  21
ATOM     21  N   UNL     1      50.828   9.192  11.034  0.00  0.00    +0.000 N 
ATOM     22  C   UNL     1      51.758  10.257  11.444  0.00  0.00    +0.000 C 
ATOM     23  C   UNL     1      52.936  10.271  10.454  0.00  0.00    +0.000 C 
ATOM     24  O   UNL     1      53.597   8.993  10.395  0.00  0.00    +0.000 OA
ATOM     25  C   UNL     1      52.668   7.962  10.007  0.00  0.00    +0.000 C 
ATOM     26  C   UNL     1      51.487   7.872  10.987  0.00  0.00    +0.000 C 
ENDBRANCH  19  21
ENDBRANCH  14  15
ENDBRANCH   1  14
TORSDOF 5
ENDMDL
MODEL 6
REMARK VINA RESULT:    -5.898      4.048      5.649
REMARK INTER + INTRA:          -8.379
REMARK INTER:                  -7.734
REMARK INTRA:                  -0.645
REMARK UNBOUND:                -0.757
REMARK  Name = 
REMARK  5 active torsions:
REMARK  status: ('A' for Active; 'I' for Inactive)
REMARK    1  A    between atoms: C_2  and  C_4
REMARK    2  A    between atoms: C_9  and  C_10
REMARK    3  A    between atoms: C_10  and  S_11
REMARK    4  A    between atoms: S_11  and  C_12
REMARK    5  A    between atoms: C_16  and  N_17
REMARK                            x       y       z     vdW  Elec       q    Type
REMARK                         _______ _______ _______ _____ _____    ______ ____
ROOT
ATOM      1  C   UNL     1      49.183   5.519  17.510  0.00  0.00    +0.000 C 
ENDROOT
BRANCH   1   7
ATOM      2  C   UNL     1      52.125   3.124  17.780  0.00  0.00    +0.000 A 
ATOM      3  C   UNL     1      53.223   3.976  17.643  0.00  0.00    +0.000 A 
ATOM      4  C   UNL     1      53.021   5.353  17.517  0.00  0.00    +0.000 A 
ATOM      5  C   UNL     1      51.725   5.885  17.509  0.00  0.00    +0.000 A 
ATOM      6 BR   UNL     1      51.565   7.769  17.339  0.00  0.00    +0.000 Br
ATOM      7  C   UNL     1      50.609   5.039  17.602  0.00  0.00    +0.000 A 
ATOM      8  C   UNL     1      50.830   3.654  17.750  0.00  0.00    +0.000 A 
BRANCH   2  10
ATOM      9  N   UNL     1      51.333   0.869  17.334  0.00  0.00    +0.000 N 
ATOM     10  C   UNL     1      52.283   1.654  17.924  0.00  0.00    +0.000 C 
ATOM     11  O   UNL     1      53.242   1.163  18.510  0.00  0.00    +0.000 OA
ATOM     12  H   UNL     1      51.518  -0.127  17.333  0.00  0.00    +0.000 HD
ATOM     13  H   UNL     1      50.694   1.225  16.638  0.00  0.00    +0.000 HD
ENDBRANCH   2  10
ENDBRANCH   1   7
BRANCH   1  14
ATOM     14  S   UNL     1      48.047   4.280  16.813  0.00  0.00    +0.000 S 
BRANCH  14  15
ATOM     15  C   UNL     1      47.583   5.015  15.239  0.00  0.00    +0.000 A 
ATOM     16  C   UNL     1      48.255   6.176  14.848  0.00  0.00    +0.000 A 
ATOM     17  C   UNL     1      47.921   6.818  13.653  0.00  0.00    +0.000 A 
ATOM     18  C   UNL     1      46.908   6.302  12.848  0.00  0.00    +0.000 A 
ATOM     19  C   UNL     1      46.223   5.131  13.196  0.00  0.00    +0.000 A 
ATOM     20  C   UNL     1      46.586   4.502  14.394  0.00  0.00    +0.000 A 
BRANCH  19  21
ATOM     21  N   UNL     1      45.268   4.613  12.332  0.00  0.00    +0.000 N 
ATOM     22  C   UNL     1      43.974   4.118  12.831  0.00  0.00    +0.000 C 
ATOM     23  C   UNL     1      43.413   3.122  11.800  0.00  0.00    +0.000 C 
ATOM     24  O   UNL     1      43.276   3.723  10.499  0.00  0.00    +0.000 OA
ATOM     25  C   UNL     1      44.548   4.216  10.035  0.00  0.00    +0.000 C 
ATOM     26  C   UNL     1      45.139   5.251  11.006  0.00  0.00    +0.000 C 
ENDBRANCH  19  21
ENDBRANCH  14  15
ENDBRANCH   1  14
TORSDOF 5
ENDMDL
MODEL 7
REMARK VINA RESULT:    -5.832      3.373      5.308
REMARK INTER + INTRA:          -8.294
REMARK INTER:                  -7.420
REMARK INTRA:                  -0.874
REMARK UNBOUND:                -0.757
REMARK  Name = 
REMARK  5 active torsions:
REMARK  status: ('A' for Active; 'I' for Inactive)
REMARK    1  A    between atoms: C_2  and  C_4
REMARK    2  A    between atoms: C_9  and  C_10
REMARK    3  A    between atoms: C_10  and  S_11
REMARK    4  A    between atoms: S_11  and  C_12
REMARK    5  A    between atoms: C_16  and  N_17
REMARK                            x       y       z     vdW  Elec       q    Type
REMARK                         _______ _______ _______ _____ _____    ______ ____
ROOT
ATOM      1  C   UNL     1      50.181   7.540  16.161  0.00  0.00    +0.000 C 
ENDROOT
BRANCH   1   7
ATOM      2  C   UNL     1      48.169   4.576  17.438  0.00  0.00    +0.000 A 
ATOM      3  C   UNL     1      48.584   4.478  18.766  0.00  0.00    +0.000 A 
ATOM      4  C   UNL     1      49.485   5.412  19.283  0.00  0.00    +0.000 A 
ATOM      5  C   UNL     1      49.990   6.438  18.473  0.00  0.00    +0.000 A 
ATOM      6 BR   UNL     1      51.203   7.657  19.277  0.00  0.00    +0.000 Br
ATOM      7  C   UNL     1      49.616   6.526  17.123  0.00  0.00    +0.000 A 
ATOM      8  C   UNL     1      48.690   5.588  16.623  0.00  0.00    +0.000 A 
BRANCH   2  10
ATOM      9  N   UNL     1      47.083   3.627  15.479  0.00  0.00    +0.000 N 
ATOM     10  C   UNL     1      47.208   3.613  16.840  0.00  0.00    +0.000 C 
ATOM     11  O   UNL     1      46.583   2.815  17.529  0.00  0.00    +0.000 OA
ATOM     12  H   UNL     1      46.522   2.887  15.077  0.00  0.00    +0.000 HD
ATOM     13  H   UNL     1      47.760   4.077  14.879  0.00  0.00    +0.000 HD
ENDBRANCH   2  10
ENDBRANCH   1   7
BRANCH   1  14
ATOM     14  S   UNL     1      48.948   8.742  15.572  0.00  0.00    +0.000 S 
BRANCH  14  15
ATOM     15  C   UNL     1      48.518   8.099  13.949  0.00  0.00    +0.000 A 
ATOM     16  C   UNL     1      49.358   8.431  12.883  0.00  0.00    +0.000 A 
ATOM     17  C   UNL     1      49.065   7.994  11.589  0.00  0.00    +0.000 A 
ATOM     18  C   UNL     1      47.924   7.225  11.358  0.00  0.00    +0.000 A 
ATOM     19  C   UNL     1      47.067   6.857  12.402  0.00  0.00    +0.000 A 
ATOM     20  C   UNL     1      47.392   7.300  13.691  0.00  0.00    +0.000 A 
BRANCH  19  21
ATOM     21  N   UNL     1      45.981   6.034  12.139  0.00  0.00    +0.000 N 
ATOM     22  C   UNL     1      44.762   6.093  12.962  0.00  0.00    +0.000 C 
ATOM     23  C   UNL     1      44.026   4.748  12.824  0.00  0.00    +0.000 C 
ATOM     24  O   UNL     1      43.716   4.450  11.451  0.00  0.00    +0.000 OA
ATOM     25  C   UNL     1      44.919   4.412  10.658  0.00  0.00    +0.000 C 
ATOM     26  C   UNL     1      45.676   5.748  10.723  0.00  0.00    +0.000 C 
ENDBRANCH  19  21
ENDBRANCH  14  15
ENDBRANCH   1  14
TORSDOF 5
ENDMDL
MODEL 8
REMARK VINA RESULT:    -5.810      3.852      7.731
REMARK INTER + INTRA:          -8.265
REMARK INTER:                  -7.357
REMARK INTRA:                  -0.908
REMARK UNBOUND:                -0.757
REMARK  Name = 
REMARK  5 active torsions:
REMARK  status: ('A' for Active; 'I' for Inactive)
REMARK    1  A    between atoms: C_2  and  C_4
REMARK    2  A    between atoms: C_9  and  C_10
REMARK    3  A    between atoms: C_10  and  S_11
REMARK    4  A    between atoms: S_11  and  C_12
REMARK    5  A    between atoms: C_16  and  N_17
REMARK                            x       y       z     vdW  Elec       q    Type
REMARK                         _______ _______ _______ _____ _____    ______ ____
ROOT
ATOM      1  C   UNL     1      48.131   8.350  12.319  0.00  0.00    +0.000 C 
ENDROOT
BRANCH   1   7
ATOM      2  C   UNL     1      46.173   5.156  12.973  0.00  0.00    +0.000 A 
ATOM      3  C   UNL     1      44.849   5.595  12.917  0.00  0.00    +0.000 A 
ATOM      4  C   UNL     1      44.574   6.930  12.609  0.00  0.00    +0.000 A 
ATOM      5  C   UNL     1      45.615   7.836  12.373  0.00  0.00    +0.000 A 
ATOM      6 BR   UNL     1      45.129   9.624  11.957  0.00  0.00    +0.000 Br
ATOM      7  C   UNL     1      46.953   7.422  12.467  0.00  0.00    +0.000 A 
ATOM      8  C   UNL     1      47.214   6.066  12.758  0.00  0.00    +0.000 A 
BRANCH   2  10
ATOM      9  N   UNL     1      45.688   2.779  12.803  0.00  0.00    +0.000 N 
ATOM     10  C   UNL     1      46.522   3.747  13.289  0.00  0.00    +0.000 C 
ATOM     11  O   UNL     1      47.532   3.459  13.922  0.00  0.00    +0.000 OA
ATOM     12  H   UNL     1      46.002   1.823  12.918  0.00  0.00    +0.000 HD
ATOM     13  H   UNL     1      45.013   2.963  12.074  0.00  0.00    +0.000 HD
ENDBRANCH   2  10
ENDBRANCH   1   7
BRANCH   1  14
ATOM     14  S   UNL     1      48.428   9.382  13.789  0.00  0.00    +0.000 S 
BRANCH  14  15
ATOM     15  C   UNL     1      49.477   8.330  14.801  0.00  0.00    +0.000 A 
ATOM     16  C   UNL     1      50.859   8.432  14.616  0.00  0.00    +0.000 A 
ATOM     17  C   UNL     1      51.732   7.620  15.345  0.00  0.00    +0.000 A 
ATOM     18  C   UNL     1      51.222   6.699  16.259  0.00  0.00    +0.000 A 
ATOM     19  C   UNL     1      49.845   6.580  16.486  0.00  0.00    +0.000 A 
ATOM     20  C   UNL     1      48.994   7.413  15.749  0.00  0.00    +0.000 A 
BRANCH  19  21
ATOM     21  N   UNL     1      49.384   5.698  17.454  0.00  0.00    +0.000 N 
ATOM     22  C   UNL     1      49.836   4.298  17.489  0.00  0.00    +0.000 C 
ATOM     23  C   UNL     1      48.775   3.471  18.237  0.00  0.00    +0.000 C 
ATOM     24  O   UNL     1      48.542   3.979  19.564  0.00  0.00    +0.000 OA
ATOM     25  C   UNL     1      48.116   5.355  19.510  0.00  0.00    +0.000 C 
ATOM     26  C   UNL     1      49.160   6.239  18.809  0.00  0.00    +0.000 C 
ENDBRANCH  19  21
ENDBRANCH  14  15
ENDBRANCH   1  14
TORSDOF 5
ENDMDL
MODEL 9
REMARK VINA RESULT:    -5.797      2.797      8.141
REMARK INTER + INTRA:          -8.249
REMARK INTER:                  -8.196
REMARK INTRA:                  -0.053
REMARK UNBOUND:                -0.757
REMARK  Name = 
REMARK  5 active torsions:
REMARK  status: ('A' for Active; 'I' for Inactive)
REMARK    1  A    between atoms: C_2  and  C_4
REMARK    2  A    between atoms: C_9  and  C_10
REMARK    3  A    between atoms: C_10  and  S_11
REMARK    4  A    between atoms: S_11  and  C_12
REMARK    5  A    between atoms: C_16  and  N_17
REMARK                            x       y       z     vdW  Elec       q    Type
REMARK                         _______ _______ _______ _____ _____    ______ ____
ROOT
ATOM      1  C   UNL     1      45.084   5.663  10.628  0.00  0.00    +0.000 C 
ENDROOT
BRANCH   1   7
ATOM      2  C   UNL     1      45.947   3.132   7.923  0.00  0.00    +0.000 A 
ATOM      3  C   UNL     1      45.306   1.977   8.373  0.00  0.00    +0.000 A 
ATOM      4  C   UNL     1      44.535   2.020   9.537  0.00  0.00    +0.000 A 
ATOM      5  C   UNL     1      44.414   3.210  10.268  0.00  0.00    +0.000 A 
ATOM      6 BR   UNL     1      43.336   3.159  11.831  0.00  0.00    +0.000 Br
ATOM      7  C   UNL     1      45.086   4.369   9.854  0.00  0.00    +0.000 A 
ATOM      8  C   UNL     1      45.843   4.315   8.665  0.00  0.00    +0.000 A 
BRANCH   2  10
ATOM      9  N   UNL     1      48.129   3.200   6.852  0.00  0.00    +0.000 N 
ATOM     10  C   UNL     1      46.773   3.144   6.689  0.00  0.00    +0.000 C 
ATOM     11  O   UNL     1      46.268   3.066   5.574  0.00  0.00    +0.000 OA
ATOM     12  H   UNL     1      48.683   3.083   6.012  0.00  0.00    +0.000 HD
ATOM     13  H   UNL     1      48.575   3.003   7.736  0.00  0.00    +0.000 HD
ENDBRANCH   2  10
ENDBRANCH   1   7
BRANCH   1  14
ATOM     14  S   UNL     1      45.475   5.449  12.393  0.00  0.00    +0.000 S 
BRANCH  14  15
ATOM     15  C   UNL     1      47.028   6.337  12.561  0.00  0.00    +0.000 A 
ATOM     16  C   UNL     1      47.471   7.074  11.459  0.00  0.00    +0.000 A 
ATOM     17  C   UNL     1      48.686   7.761  11.509  0.00  0.00    +0.000 A 
ATOM     18  C   UNL     1      49.466   7.707  12.664  0.00  0.00    +0.000 A 
ATOM     19  C   UNL     1      49.050   6.995  13.795  0.00  0.00    +0.000 A 
ATOM     20  C   UNL     1      47.822   6.325  13.720  0.00  0.00    +0.000 A 
BRANCH  19  21
ATOM     21  N   UNL     1      49.824   7.024  14.946  0.00  0.00    +0.000 N 
ATOM     22  C   UNL     1      51.052   7.831  15.021  0.00  0.00    +0.000 C 
ATOM     23  C   UNL     1      51.952   7.234  16.117  0.00  0.00    +0.000 C 
ATOM     24  O   UNL     1      51.280   7.185  17.389  0.00  0.00    +0.000 OA
ATOM     25  C   UNL     1      50.073   6.405  17.293  0.00  0.00    +0.000 C 
ATOM     26  C   UNL     1      49.113   6.982  16.240  0.00  0.00    +0.000 C 
ENDBRANCH  19  21
ENDBRANCH  14  15
ENDBRANCH   1  14
TORSDOF 5
ENDMDL
