MODEL 1
REMARK VINA RESULT:    -8.379      0.000      0.000
REMARK INTER + INTRA:         -12.507
REMARK INTER:                 -11.318
REMARK INTRA:                  -1.189
REMARK UNBOUND:                -1.189
REMARK  Name = 
REMARK  6 active torsions:
REMARK  status: ('A' for Active; 'I' for Inactive)
REMARK    1  A    between atoms: C_2  and  C_25
REMARK    2  A    between atoms: N_3  and  C_4
REMARK    3  A    between atoms: C_4  and  C_5
REMARK    4  A    between atoms: C_8  and  C_9
REMARK    5  A    between atoms: C_9  and  N_10
REMARK    6  A    between atoms: C_11  and  C_13
REMARK                            x       y       z     vdW  Elec       q    Type
REMARK                         _______ _______ _______ _____ _____    ______ ____
ROOT
ATOM      1  C   UNL     1      44.973   5.677  10.869  0.00  0.00    +0.000 A 
ATOM      2  C   UNL     1      46.281   6.083  10.570  0.00  0.00    +0.000 A 
ATOM      3  C   UNL     1      46.980   6.938  11.430  0.00  0.00    +0.000 A 
ATOM      4  C   UNL     1      46.394   7.391  12.620  0.00  0.00    +0.000 A 
ATOM      5  C   UNL     1      45.083   6.994  12.913  0.00  0.00    +0.000 A 
ATOM      6  C   UNL     1      44.385   6.136  12.055  0.00  0.00    +0.000 A 
ENDROOT
BRANCH   1   7
ATOM      7  C   UNL     1      44.214   4.776   9.928  0.00  0.00    +0.000 C 
BRANCH   7  10
ATOM      8  O   UNL     1      44.880   2.081   9.660  0.00  0.00    +0.000 OA
ATOM      9  C   UNL     1      45.300   2.879   8.827  0.00  0.00    +0.000 C 
ATOM     10  N   UNL     1      45.054   4.235   8.883  0.00  0.00    +0.000 N 
ATOM     11  H   UNL     1      45.228   4.809   8.068  0.00  0.00    +0.000 HD
BRANCH   9  12
ATOM     12  C   UNL     1      46.079   2.396   7.652  0.00  0.00    +0.000 A 
ATOM     13  C   UNL     1      46.220   3.238   6.541  0.00  0.00    +0.000 A 
ATOM     14  C   UNL     1      46.964   2.822   5.435  0.00  0.00    +0.000 A 
ATOM     15  C   UNL     1      47.557   1.560   5.429  0.00  0.00    +0.000 A 
ATOM     16  C   UNL     1      47.396   0.706   6.522  0.00  0.00    +0.000 A 
ATOM     17  C   UNL     1      46.654   1.119   7.631  0.00  0.00    +0.000 A 
ENDBRANCH   9  12
ENDBRANCH   7  10
ENDBRANCH   1   7
BRANCH   4  18
ATOM     18  C   UNL     1      47.152   8.290  13.564  0.00  0.00    +0.000 C 
BRANCH  18  19
ATOM     19  N   UNL     1      47.570   7.601  14.760  0.00  0.00    +0.000 N 
ATOM     20  C   UNL     1      48.772   6.937  14.800  0.00  0.00    +0.000 C 
ATOM     21  O   UNL     1      49.556   6.958  13.854  0.00  0.00    +0.000 OA
ATOM     22  H   UNL     1      46.856   7.387  15.450  0.00  0.00    +0.000 HD
BRANCH  20  23
ATOM     23  C   UNL     1      49.109   6.248  16.052  0.00  0.00    +0.000 A 
ATOM     24  C   UNL     1      50.172   6.700  16.823  0.00  0.00    +0.000 A 
ATOM     25  S   UNL     1      50.403   5.809  18.259  0.00  0.00    +0.000 S 
ATOM     26  C   UNL     1      49.122   4.757  17.875  0.00  0.00    +0.000 A 
ATOM     27  N   UNL     1      48.797   3.723  18.696  0.00  0.00    +0.000 NA
ATOM     28  C   UNL     1      47.825   2.989  18.269  0.00  0.00    +0.000 A 
ATOM     29  N   UNL     1      47.146   3.197  17.098  0.00  0.00    +0.000 N 
ATOM     30  C   UNL     1      47.420   4.244  16.250  0.00  0.00    +0.000 A 
ATOM     31  O   UNL     1      46.763   4.430  15.232  0.00  0.00    +0.000 OA
ATOM     32  C   UNL     1      48.514   5.094  16.680  0.00  0.00    +0.000 A 
ATOM     33  H   UNL     1      46.387   2.589  16.824  0.00  0.00    +0.000 HD
ENDBRANCH  20  23
ENDBRANCH  18  19
ENDBRANCH   4  18
TORSDOF 6
ENDMDL
MODEL 2
REMARK VINA RESULT:    -8.149      1.748      2.168
REMARK INTER + INTRA:         -12.197
REMARK INTER:                 -11.404
REMARK INTRA:                  -0.793
REMARK UNBOUND:                -1.189
REMARK  Name = 
REMARK  6 active torsions:
REMARK  status: ('A' for Active; 'I' for Inactive)
REMARK    1  A    between atoms: C_2  and  C_25
REMARK    2  A    between atoms: N_3  and  C_4
REMARK    3  A    between atoms: C_4  and  C_5
REMARK    4  A    between atoms: C_8  and  C_9
REMARK    5  A    between atoms: C_9  and  N_10
REMARK    6  A    between atoms: C_11  and  C_13
REMARK                            x       y       z     vdW  Elec       q    Type
REMARK                         _______ _______ _______ _____ _____    ______ ____
ROOT
ATOM      1  C   UNL     1      45.455   4.603  11.825  0.00  0.00    +0.000 A 
ATOM      2  C   UNL     1      46.089   4.314  13.040  0.00  0.00    +0.000 A 
ATOM      3  C   UNL     1      46.934   5.251  13.649  0.00  0.00    +0.000 A 
ATOM      4  C   UNL     1      47.145   6.507  13.064  0.00  0.00    +0.000 A 
ATOM      5  C   UNL     1      46.519   6.792  11.844  0.00  0.00    +0.000 A 
ATOM      6  C   UNL     1      45.673   5.856  11.237  0.00  0.00    +0.000 A 
ENDROOT
BRANCH   1   7
ATOM      7  C   UNL     1      44.567   3.582  11.160  0.00  0.00    +0.000 C 
BRANCH   7  10
ATOM      8  O   UNL     1      44.446   4.267   8.459  0.00  0.00    +0.000 OA
ATOM      9  C   UNL     1      45.136   3.309   8.795  0.00  0.00    +0.000 C 
ATOM     10  N   UNL     1      45.241   2.869  10.099  0.00  0.00    +0.000 N 
ATOM     11  H   UNL     1      45.982   2.229  10.352  0.00  0.00    +0.000 HD
BRANCH   9  12
ATOM     12  C   UNL     1      45.956   2.584   7.784  0.00  0.00    +0.000 A 
ATOM     13  C   UNL     1      46.349   1.266   8.051  0.00  0.00    +0.000 A 
ATOM     14  C   UNL     1      47.097   0.553   7.112  0.00  0.00    +0.000 A 
ATOM     15  C   UNL     1      47.467   1.158   5.911  0.00  0.00    +0.000 A 
ATOM     16  C   UNL     1      47.102   2.480   5.653  0.00  0.00    +0.000 A 
ATOM     17  C   UNL     1      46.351   3.196   6.588  0.00  0.00    +0.000 A 
ENDBRANCH   9  12
ENDBRANCH   7  10
ENDBRANCH   1   7
BRANCH   4  18
ATOM     18  C   UNL     1      48.031   7.532  13.728  0.00  0.00    +0.000 C 
BRANCH  18  19
ATOM     19  N   UNL     1      47.925   7.499  15.165  0.00  0.00    +0.000 N 
ATOM     20  C   UNL     1      48.962   7.028  15.933  0.00  0.00    +0.000 C 
ATOM     21  O   UNL     1      50.031   6.681  15.437  0.00  0.00    +0.000 OA
ATOM     22  H   UNL     1      46.994   7.564  15.566  0.00  0.00    +0.000 HD
BRANCH  20  23
ATOM     23  C   UNL     1      48.759   7.015  17.388  0.00  0.00    +0.000 A 
ATOM     24  C   UNL     1      48.474   8.200  18.054  0.00  0.00    +0.000 A 
ATOM     25  S   UNL     1      48.234   8.001  19.731  0.00  0.00    +0.000 S 
ATOM     26  C   UNL     1      48.551   6.332  19.632  0.00  0.00    +0.000 A 
ATOM     27  N   UNL     1      48.534   5.551  20.745  0.00  0.00    +0.000 NA
ATOM     28  C   UNL     1      48.821   4.310  20.529  0.00  0.00    +0.000 A 
ATOM     29  N   UNL     1      49.119   3.781  19.301  0.00  0.00    +0.000 N 
ATOM     30  C   UNL     1      49.121   4.525  18.145  0.00  0.00    +0.000 A 
ATOM     31  O   UNL     1      49.347   4.011  17.055  0.00  0.00    +0.000 OA
ATOM     32  C   UNL     1      48.816   5.930  18.336  0.00  0.00    +0.000 A 
ATOM     33  H   UNL     1      49.327   2.798  19.198  0.00  0.00    +0.000 HD
ENDBRANCH  20  23
ENDBRANCH  18  19
ENDBRANCH   4  18
TORSDOF 6
ENDMDL
MODEL 3
REMARK VINA RESULT:    -8.130      2.443      2.990
REMARK INTER + INTRA:         -12.171
REMARK INTER:                 -11.103
REMARK INTRA:                  -1.068
REMARK UNBOUND:                -1.189
REMARK  Name = 
REMARK  6 active torsions:
REMARK  status: ('A' for Active; 'I' for Inactive)
REMARK    1  A    between atoms: C_2  and  C_25
REMARK    2  A    between atoms: N_3  and  C_4
REMARK    3  A    between atoms: C_4  and  C_5
REMARK    4  A    between atoms: C_8  and  C_9
REMARK    5  A    between atoms: C_9  and  N_10
REMARK    6  A    between atoms: C_11  and  C_13
REMARK                            x       y       z     vdW  Elec       q    Type
REMARK                         _______ _______ _______ _____ _____    ______ ____
ROOT
ATOM      1  C   UNL     1      45.455   4.368  11.984  0.00  0.00    +0.000 A 
ATOM      2  C   UNL     1      46.012   3.863  13.166  0.00  0.00    +0.000 A 
ATOM      3  C   UNL     1      46.909   4.630  13.920  0.00  0.00    +0.000 A 
ATOM      4  C   UNL     1      47.252   5.928  13.518  0.00  0.00    +0.000 A 
ATOM      5  C   UNL     1      46.702   6.428  12.331  0.00  0.00    +0.000 A 
ATOM      6  C   UNL     1      45.803   5.663  11.579  0.00  0.00    +0.000 A 
ENDROOT
BRANCH   1   7
ATOM      7  C   UNL     1      44.509   3.529  11.162  0.00  0.00    +0.000 C 
BRANCH   7  10
ATOM      8  O   UNL     1      44.504   4.299   8.481  0.00  0.00    +0.000 OA
ATOM      9  C   UNL     1      45.138   3.300   8.807  0.00  0.00    +0.000 C 
ATOM     10  N   UNL     1      45.182   2.817  10.099  0.00  0.00    +0.000 N 
ATOM     11  H   UNL     1      45.885   2.136  10.354  0.00  0.00    +0.000 HD
BRANCH   9  12
ATOM     12  C   UNL     1      45.954   2.568   7.798  0.00  0.00    +0.000 A 
ATOM     13  C   UNL     1      46.338   1.248   8.068  0.00  0.00    +0.000 A 
ATOM     14  C   UNL     1      47.083   0.529   7.131  0.00  0.00    +0.000 A 
ATOM     15  C   UNL     1      47.458   1.129   5.930  0.00  0.00    +0.000 A 
ATOM     16  C   UNL     1      47.102   2.453   5.668  0.00  0.00    +0.000 A 
ATOM     17  C   UNL     1      46.355   3.176   6.602  0.00  0.00    +0.000 A 
ENDBRANCH   9  12
ENDBRANCH   7  10
ENDBRANCH   1   7
BRANCH   4  18
ATOM     18  C   UNL     1      48.195   6.770  14.340  0.00  0.00    +0.000 C 
BRANCH  18  19
ATOM     19  N   UNL     1      48.037   6.548  15.755  0.00  0.00    +0.000 N 
ATOM     20  C   UNL     1      49.116   6.206  16.534  0.00  0.00    +0.000 C 
ATOM     21  O   UNL     1      50.253   6.140  16.074  0.00  0.00    +0.000 OA
ATOM     22  H   UNL     1      47.097   6.378  16.099  0.00  0.00    +0.000 HD
BRANCH  20  23
ATOM     23  C   UNL     1      48.859   5.980  17.962  0.00  0.00    +0.000 A 
ATOM     24  C   UNL     1      49.137   4.741  18.525  0.00  0.00    +0.000 A 
ATOM     25  S   UNL     1      48.812   4.660  20.197  0.00  0.00    +0.000 S 
ATOM     26  C   UNL     1      48.241   6.264  20.217  0.00  0.00    +0.000 A 
ATOM     27  N   UNL     1      47.775   6.824  21.365  0.00  0.00    +0.000 NA
ATOM     28  C   UNL     1      47.347   8.035  21.230  0.00  0.00    +0.000 A 
ATOM     29  N   UNL     1      47.348   8.736  20.053  0.00  0.00    +0.000 N 
ATOM     30  C   UNL     1      47.835   8.222  18.875  0.00  0.00    +0.000 A 
ATOM     31  O   UNL     1      47.864   8.892  17.849  0.00  0.00    +0.000 OA
ATOM     32  C   UNL     1      48.318   6.857  18.971  0.00  0.00    +0.000 A 
ATOM     33  H   UNL     1      47.006   9.686  20.017  0.00  0.00    +0.000 HD
ENDBRANCH  20  23
ENDBRANCH  18  19
ENDBRANCH   4  18
TORSDOF 6
ENDMDL
MODEL 4
REMARK VINA RESULT:    -8.086      2.287      3.888
REMARK INTER + INTRA:         -12.111
REMARK INTER:                 -10.999
REMARK INTRA:                  -1.112
REMARK UNBOUND:                -1.189
REMARK  Name = 
REMARK  6 active torsions:
REMARK  status: ('A' for Active; 'I' for Inactive)
REMARK    1  A    between atoms: C_2  and  C_25
REMARK    2  A    between atoms: N_3  and  C_4
REMARK    3  A    between atoms: C_4  and  C_5
REMARK    4  A    between atoms: C_8  and  C_9
REMARK    5  A    between atoms: C_9  and  N_10
REMARK    6  A    between atoms: C_11  and  C_13
REMARK                            x       y       z     vdW  Elec       q    Type
REMARK                         _______ _______ _______ _____ _____    ______ ____
ROOT
ATOM      1  C   UNL     1      44.754   4.493  11.266  0.00  0.00    +0.000 A 
ATOM      2  C   UNL     1      45.135   3.339  11.963  0.00  0.00    +0.000 A 
ATOM      3  C   UNL     1      45.908   3.427  13.128  0.00  0.00    +0.000 A 
ATOM      4  C   UNL     1      46.299   4.675  13.633  0.00  0.00    +0.000 A 
ATOM      5  C   UNL     1      45.926   5.828  12.930  0.00  0.00    +0.000 A 
ATOM      6  C   UNL     1      45.151   5.740  11.768  0.00  0.00    +0.000 A 
ENDROOT
BRANCH   1   7
ATOM      7  C   UNL     1      43.943   4.392   9.999  0.00  0.00    +0.000 C 
BRANCH   7  10
ATOM      8  O   UNL     1      46.022   5.137   8.295  0.00  0.00    +0.000 OA
ATOM      9  C   UNL     1      45.598   3.986   8.242  0.00  0.00    +0.000 C 
ATOM     10  N   UNL     1      44.555   3.524   9.018  0.00  0.00    +0.000 N 
ATOM     11  H   UNL     1      44.394   2.529   9.097  0.00  0.00    +0.000 HD
BRANCH   9  12
ATOM     12  C   UNL     1      46.244   2.990   7.340  0.00  0.00    +0.000 A 
ATOM     13  C   UNL     1      46.538   1.715   7.842  0.00  0.00    +0.000 A 
ATOM     14  C   UNL     1      47.121   0.754   7.014  0.00  0.00    +0.000 A 
ATOM     15  C   UNL     1      47.425   1.066   5.689  0.00  0.00    +0.000 A 
ATOM     16  C   UNL     1      47.159   2.344   5.193  0.00  0.00    +0.000 A 
ATOM     17  C   UNL     1      46.574   3.308   6.017  0.00  0.00    +0.000 A 
ENDBRANCH   9  12
ENDBRANCH   7  10
ENDBRANCH   1   7
BRANCH   4  18
ATOM     18  C   UNL     1      47.107   4.779  14.901  0.00  0.00    +0.000 C 
BRANCH  18  19
ATOM     19  N   UNL     1      47.765   6.055  15.029  0.00  0.00    +0.000 N 
ATOM     20  C   UNL     1      48.875   6.194  15.826  0.00  0.00    +0.000 C 
ATOM     21  O   UNL     1      49.383   5.235  16.403  0.00  0.00    +0.000 OA
ATOM     22  H   UNL     1      47.242   6.880  14.751  0.00  0.00    +0.000 HD
BRANCH  20  23
ATOM     23  C   UNL     1      49.469   7.534  15.911  0.00  0.00    +0.000 A 
ATOM     24  C   UNL     1      49.612   8.147  17.149  0.00  0.00    +0.000 A 
ATOM     25  S   UNL     1      50.348   9.684  17.070  0.00  0.00    +0.000 S 
ATOM     26  C   UNL     1      50.457   9.604  15.374  0.00  0.00    +0.000 A 
ATOM     27  N   UNL     1      50.981  10.634  14.659  0.00  0.00    +0.000 NA
ATOM     28  C   UNL     1      50.975  10.452  13.380  0.00  0.00    +0.000 A 
ATOM     29  N   UNL     1      50.497   9.332  12.754  0.00  0.00    +0.000 N 
ATOM     30  C   UNL     1      49.984   8.254  13.436  0.00  0.00    +0.000 A 
ATOM     31  O   UNL     1      49.607   7.247  12.848  0.00  0.00    +0.000 OA
ATOM     32  C   UNL     1      49.958   8.414  14.877  0.00  0.00    +0.000 A 
ATOM     33  H   UNL     1      50.529   9.248  11.748  0.00  0.00    +0.000 HD
ENDBRANCH  20  23
ENDBRANCH  18  19
ENDBRANCH   4  18
TORSDOF 6
ENDMDL
MODEL 5
REMARK VINA RESULT:    -7.959      2.652      3.436
REMARK INTER + INTRA:         -11.940
REMARK INTER:                 -11.074
REMARK INTRA:                  -0.866
REMARK UNBOUND:                -1.189
REMARK  Name = 
REMARK  6 active torsions:
REMARK  status: ('A' for Active; 'I' for Inactive)
REMARK    1  A    between atoms: C_2  and  C_25
REMARK    2  A    between atoms: N_3  and  C_4
REMARK    3  A    between atoms: C_4  and  C_5
REMARK    4  A    between atoms: C_8  and  C_9
REMARK    5  A    between atoms: C_9  and  N_10
REMARK    6  A    between atoms: C_11  and  C_13
REMARK                            x       y       z     vdW  Elec       q    Type
REMARK                         _______ _______ _______ _____ _____    ______ ____
ROOT
ATOM      1  C   UNL     1      44.931   4.454  11.172  0.00  0.00    +0.000 A 
ATOM      2  C   UNL     1      45.187   3.270  11.876  0.00  0.00    +0.000 A 
ATOM      3  C   UNL     1      45.948   3.284  13.051  0.00  0.00    +0.000 A 
ATOM      4  C   UNL     1      46.454   4.488  13.560  0.00  0.00    +0.000 A 
ATOM      5  C   UNL     1      46.206   5.670  12.850  0.00  0.00    +0.000 A 
ATOM      6  C   UNL     1      45.443   5.656  11.677  0.00  0.00    +0.000 A 
ENDROOT
BRANCH   1   7
ATOM      7  C   UNL     1      44.132   4.430   9.893  0.00  0.00    +0.000 C 
BRANCH   7  10
ATOM      8  O   UNL     1      46.256   5.051   8.196  0.00  0.00    +0.000 OA
ATOM      9  C   UNL     1      45.761   3.930   8.136  0.00  0.00    +0.000 C 
ATOM     10  N   UNL     1      44.690   3.530   8.909  0.00  0.00    +0.000 N 
ATOM     11  H   UNL     1      44.466   2.547   8.983  0.00  0.00    +0.000 HD
BRANCH   9  12
ATOM     12  C   UNL     1      46.344   2.900   7.230  0.00  0.00    +0.000 A 
ATOM     13  C   UNL     1      46.654   1.637   7.753  0.00  0.00    +0.000 A 
ATOM     14  C   UNL     1      47.179   0.645   6.923  0.00  0.00    +0.000 A 
ATOM     15  C   UNL     1      47.410   0.913   5.574  0.00  0.00    +0.000 A 
ATOM     16  C   UNL     1      47.129   2.179   5.055  0.00  0.00    +0.000 A 
ATOM     17  C   UNL     1      46.601   3.174   5.881  0.00  0.00    +0.000 A 
ENDBRANCH   9  12
ENDBRANCH   7  10
ENDBRANCH   1   7
BRANCH   4  18
ATOM     18  C   UNL     1      47.251   4.515  14.839  0.00  0.00    +0.000 C 
BRANCH  18  19
ATOM     19  N   UNL     1      47.617   5.854  15.228  0.00  0.00    +0.000 N 
ATOM     20  C   UNL     1      48.623   6.067  16.140  0.00  0.00    +0.000 C 
ATOM     21  O   UNL     1      49.283   5.142  16.606  0.00  0.00    +0.000 OA
ATOM     22  H   UNL     1      46.951   6.596  15.034  0.00  0.00    +0.000 HD
BRANCH  20  23
ATOM     23  C   UNL     1      48.916   7.463  16.491  0.00  0.00    +0.000 A 
ATOM     24  C   UNL     1      49.697   8.236  15.643  0.00  0.00    +0.000 A 
ATOM     25  S   UNL     1      49.912   9.840  16.183  0.00  0.00    +0.000 S 
ATOM     26  C   UNL     1      49.009   9.541  17.594  0.00  0.00    +0.000 A 
ATOM     27  N   UNL     1      48.825  10.516  18.524  0.00  0.00    +0.000 NA
ATOM     28  C   UNL     1      48.146  10.144  19.558  0.00  0.00    +0.000 A 
ATOM     29  N   UNL     1      47.632   8.888  19.742  0.00  0.00    +0.000 N 
ATOM     30  C   UNL     1      47.768   7.879  18.818  0.00  0.00    +0.000 A 
ATOM     31  O   UNL     1      47.256   6.779  18.993  0.00  0.00    +0.000 OA
ATOM     32  C   UNL     1      48.534   8.244  17.642  0.00  0.00    +0.000 A 
ATOM     33  H   UNL     1      47.101   8.663  20.572  0.00  0.00    +0.000 HD
ENDBRANCH  20  23
ENDBRANCH  18  19
ENDBRANCH   4  18
TORSDOF 6
ENDMDL
MODEL 6
REMARK VINA RESULT:    -7.836      1.880      2.271
REMARK INTER + INTRA:         -11.773
REMARK INTER:                 -10.891
REMARK INTRA:                  -0.882
REMARK UNBOUND:                -1.189
REMARK  Name = 
REMARK  6 active torsions:
REMARK  status: ('A' for Active; 'I' for Inactive)
REMARK    1  A    between atoms: C_2  and  C_25
REMARK    2  A    between atoms: N_3  and  C_4
REMARK    3  A    between atoms: C_4  and  C_5
REMARK    4  A    between atoms: C_8  and  C_9
REMARK    5  A    between atoms: C_9  and  N_10
REMARK    6  A    between atoms: C_11  and  C_13
REMARK                            x       y       z     vdW  Elec       q    Type
REMARK                         _______ _______ _______ _____ _____    ______ ____
ROOT
ATOM      1  C   UNL     1      44.701   4.807  11.681  0.00  0.00    +0.000 A 
ATOM      2  C   UNL     1      44.047   6.013  11.393  0.00  0.00    +0.000 A 
ATOM      3  C   UNL     1      44.586   7.238  11.806  0.00  0.00    +0.000 A 
ATOM      4  C   UNL     1      45.804   7.285  12.498  0.00  0.00    +0.000 A 
ATOM      5  C   UNL     1      46.452   6.079  12.795  0.00  0.00    +0.000 A 
ATOM      6  C   UNL     1      45.914   4.855  12.380  0.00  0.00    +0.000 A 
ENDROOT
BRANCH   1   7
ATOM      7  C   UNL     1      44.104   3.489  11.257  0.00  0.00    +0.000 C 
BRANCH   7  10
ATOM      8  O   UNL     1      44.198   4.248   8.575  0.00  0.00    +0.000 OA
ATOM      9  C   UNL     1      44.885   3.301   8.945  0.00  0.00    +0.000 C 
ATOM     10  N   UNL     1      44.891   2.827  10.241  0.00  0.00    +0.000 N 
ATOM     11  H   UNL     1      45.627   2.202  10.542  0.00  0.00    +0.000 HD
BRANCH   9  12
ATOM     12  C   UNL     1      45.813   2.630   7.991  0.00  0.00    +0.000 A 
ATOM     13  C   UNL     1      46.289   3.353   6.889  0.00  0.00    +0.000 A 
ATOM     14  C   UNL     1      47.178   2.758   5.991  0.00  0.00    +0.000 A 
ATOM     15  C   UNL     1      47.582   1.437   6.182  0.00  0.00    +0.000 A 
ATOM     16  C   UNL     1      47.088   0.704   7.262  0.00  0.00    +0.000 A 
ATOM     17  C   UNL     1      46.201   1.296   8.165  0.00  0.00    +0.000 A 
ENDBRANCH   9  12
ENDBRANCH   7  10
ENDBRANCH   1   7
BRANCH   4  18
ATOM     18  C   UNL     1      46.405   8.602  12.921  0.00  0.00    +0.000 C 
BRANCH  18  19
ATOM     19  N   UNL     1      46.908   8.566  14.272  0.00  0.00    +0.000 N 
ATOM     20  C   UNL     1      48.177   9.008  14.557  0.00  0.00    +0.000 C 
ATOM     21  O   UNL     1      48.900   9.503  13.697  0.00  0.00    +0.000 OA
ATOM     22  H   UNL     1      46.425   7.966  14.934  0.00  0.00    +0.000 HD
BRANCH  20  23
ATOM     23  C   UNL     1      48.612   8.917  15.957  0.00  0.00    +0.000 A 
ATOM     24  C   UNL     1      48.835  10.078  16.686  0.00  0.00    +0.000 A 
ATOM     25  S   UNL     1      49.302   9.792  18.301  0.00  0.00    +0.000 S 
ATOM     26  C   UNL     1      49.271   8.107  18.068  0.00  0.00    +0.000 A 
ATOM     27  N   UNL     1      49.602   7.257  19.076  0.00  0.00    +0.000 NA
ATOM     28  C   UNL     1      49.565   6.007  18.752  0.00  0.00    +0.000 A 
ATOM     29  N   UNL     1      49.221   5.532  17.514  0.00  0.00    +0.000 N 
ATOM     30  C   UNL     1      48.852   6.351  16.473  0.00  0.00    +0.000 A 
ATOM     31  O   UNL     1      48.506   5.892  15.391  0.00  0.00    +0.000 OA
ATOM     32  C   UNL     1      48.890   7.767  16.783  0.00  0.00    +0.000 A 
ATOM     33  H   UNL     1      49.203   4.539  17.328  0.00  0.00    +0.000 HD
ENDBRANCH  20  23
ENDBRANCH  18  19
ENDBRANCH   4  18
TORSDOF 6
ENDMDL
MODEL 7
REMARK VINA RESULT:    -7.731      2.037      2.312
REMARK INTER + INTRA:         -11.631
REMARK INTER:                 -10.856
REMARK INTRA:                  -0.775
REMARK UNBOUND:                -1.189
REMARK  Name = 
REMARK  6 active torsions:
REMARK  status: ('A' for Active; 'I' for Inactive)
REMARK    1  A    between atoms: C_2  and  C_25
REMARK    2  A    between atoms: N_3  and  C_4
REMARK    3  A    between atoms: C_4  and  C_5
REMARK    4  A    between atoms: C_8  and  C_9
REMARK    5  A    between atoms: C_9  and  N_10
REMARK    6  A    between atoms: C_11  and  C_13
REMARK                            x       y       z     vdW  Elec       q    Type
REMARK                         _______ _______ _______ _____ _____    ______ ____
ROOT
ATOM      1  C   UNL     1      45.167   4.086  11.854  0.00  0.00    +0.000 A 
ATOM      2  C   UNL     1      45.269   5.451  11.552  0.00  0.00    +0.000 A 
ATOM      3  C   UNL     1      46.059   6.302  12.335  0.00  0.00    +0.000 A 
ATOM      4  C   UNL     1      46.784   5.801  13.425  0.00  0.00    +0.000 A 
ATOM      5  C   UNL     1      46.674   4.439  13.733  0.00  0.00    +0.000 A 
ATOM      6  C   UNL     1      45.886   3.588  12.949  0.00  0.00    +0.000 A 
ENDROOT
BRANCH   1   7
ATOM      7  C   UNL     1      44.295   3.179  11.025  0.00  0.00    +0.000 C 
BRANCH   7  10
ATOM      8  O   UNL     1      44.574   4.280   8.478  0.00  0.00    +0.000 OA
ATOM      9  C   UNL     1      45.116   3.206   8.719  0.00  0.00    +0.000 C 
ATOM     10  N   UNL     1      45.017   2.562   9.935  0.00  0.00    +0.000 N 
ATOM     11  H   UNL     1      45.653   1.806  10.154  0.00  0.00    +0.000 HD
BRANCH   9  12
ATOM     12  C   UNL     1      45.975   2.552   7.692  0.00  0.00    +0.000 A 
ATOM     13  C   UNL     1      46.256   3.244   6.506  0.00  0.00    +0.000 A 
ATOM     14  C   UNL     1      47.076   2.666   5.535  0.00  0.00    +0.000 A 
ATOM     15  C   UNL     1      47.606   1.392   5.738  0.00  0.00    +0.000 A 
ATOM     16  C   UNL     1      47.306   0.688   6.905  0.00  0.00    +0.000 A 
ATOM     17  C   UNL     1      46.488   1.263   7.880  0.00  0.00    +0.000 A 
ENDBRANCH   9  12
ENDBRANCH   7  10
ENDBRANCH   1   7
BRANCH   4  18
ATOM     18  C   UNL     1      47.659   6.706  14.255  0.00  0.00    +0.000 C 
BRANCH  18  19
ATOM     19  N   UNL     1      48.194   6.038  15.415  0.00  0.00    +0.000 N 
ATOM     20  C   UNL     1      48.977   6.719  16.315  0.00  0.00    +0.000 C 
ATOM     21  O   UNL     1      49.198   7.922  16.203  0.00  0.00    +0.000 OA
ATOM     22  H   UNL     1      48.212   5.022  15.402  0.00  0.00    +0.000 HD
BRANCH  20  23
ATOM     23  C   UNL     1      49.494   5.953  17.458  0.00  0.00    +0.000 A 
ATOM     24  C   UNL     1      50.604   5.136  17.294  0.00  0.00    +0.000 A 
ATOM     25  S   UNL     1      51.090   4.347  18.726  0.00  0.00    +0.000 S 
ATOM     26  C   UNL     1      49.803   5.032  19.603  0.00  0.00    +0.000 A 
ATOM     27  N   UNL     1      49.621   4.740  20.918  0.00  0.00    +0.000 NA
ATOM     28  C   UNL     1      48.590   5.306  21.452  0.00  0.00    +0.000 A 
ATOM     29  N   UNL     1      47.729   6.140  20.790  0.00  0.00    +0.000 N 
ATOM     30  C   UNL     1      47.888   6.486  19.469  0.00  0.00    +0.000 A 
ATOM     31  O   UNL     1      47.125   7.272  18.918  0.00  0.00    +0.000 OA
ATOM     32  C   UNL     1      49.027   5.867  18.820  0.00  0.00    +0.000 A 
ATOM     33  H   UNL     1      46.943   6.558  21.268  0.00  0.00    +0.000 HD
ENDBRANCH  20  23
ENDBRANCH  18  19
ENDBRANCH   4  18
TORSDOF 6
ENDMDL
MODEL 8
REMARK VINA RESULT:    -7.437      2.372      3.879
REMARK INTER + INTRA:         -11.235
REMARK INTER:                 -10.112
REMARK INTRA:                  -1.122
REMARK UNBOUND:                -1.189
REMARK  Name = 
REMARK  6 active torsions:
REMARK  status: ('A' for Active; 'I' for Inactive)
REMARK    1  A    between atoms: C_2  and  C_25
REMARK    2  A    between atoms: N_3  and  C_4
REMARK    3  A    between atoms: C_4  and  C_5
REMARK    4  A    between atoms: C_8  and  C_9
REMARK    5  A    between atoms: C_9  and  N_10
REMARK    6  A    between atoms: C_11  and  C_13
REMARK                            x       y       z     vdW  Elec       q    Type
REMARK                         _______ _______ _______ _____ _____    ______ ____
ROOT
ATOM      1  C   UNL     1      45.256   4.682  11.626  0.00  0.00    +0.000 A 
ATOM      2  C   UNL     1      46.024   5.813  11.936  0.00  0.00    +0.000 A 
ATOM      3  C   UNL     1      46.814   5.848  13.092  0.00  0.00    +0.000 A 
ATOM      4  C   UNL     1      46.870   4.744  13.953  0.00  0.00    +0.000 A 
ATOM      5  C   UNL     1      46.094   3.618  13.649  0.00  0.00    +0.000 A 
ATOM      6  C   UNL     1      45.307   3.581  12.491  0.00  0.00    +0.000 A 
ENDROOT
BRANCH   1   7
ATOM      7  C   UNL     1      44.388   4.657  10.394  0.00  0.00    +0.000 C 
BRANCH   7  10
ATOM      8  O   UNL     1      46.159   5.324   8.346  0.00  0.00    +0.000 OA
ATOM      9  C   UNL     1      45.771   4.163   8.437  0.00  0.00    +0.000 C 
ATOM     10  N   UNL     1      44.874   3.735   9.393  0.00  0.00    +0.000 N 
ATOM     11  H   UNL     1      44.760   2.744   9.564  0.00  0.00    +0.000 HD
BRANCH   9  12
ATOM     12  C   UNL     1      46.307   3.120   7.517  0.00  0.00    +0.000 A 
ATOM     13  C   UNL     1      46.476   1.815   7.999  0.00  0.00    +0.000 A 
ATOM     14  C   UNL     1      46.953   0.812   7.154  0.00  0.00    +0.000 A 
ATOM     15  C   UNL     1      47.277   1.110   5.831  0.00  0.00    +0.000 A 
ATOM     16  C   UNL     1      47.138   2.414   5.354  0.00  0.00    +0.000 A 
ATOM     17  C   UNL     1      46.658   3.421   6.195  0.00  0.00    +0.000 A 
ENDBRANCH   9  12
ENDBRANCH   7  10
ENDBRANCH   1   7
BRANCH   4  18
ATOM     18  C   UNL     1      47.740   4.765  15.185  0.00  0.00    +0.000 C 
BRANCH  18  19
ATOM     19  N   UNL     1      47.844   6.082  15.760  0.00  0.00    +0.000 N 
ATOM     20  C   UNL     1      49.015   6.501  16.343  0.00  0.00    +0.000 C 
ATOM     21  O   UNL     1      50.026   5.803  16.340  0.00  0.00    +0.000 OA
ATOM     22  H   UNL     1      46.978   6.570  15.969  0.00  0.00    +0.000 HD
BRANCH  20  23
ATOM     23  C   UNL     1      49.024   7.851  16.920  0.00  0.00    +0.000 A 
ATOM     24  C   UNL     1      49.080   8.011  18.299  0.00  0.00    +0.000 A 
ATOM     25  S   UNL     1      49.117   9.642  18.797  0.00  0.00    +0.000 S 
ATOM     26  C   UNL     1      49.009  10.191  17.190  0.00  0.00    +0.000 A 
ATOM     27  N   UNL     1      48.968  11.520  16.908  0.00  0.00    +0.000 NA
ATOM     28  C   UNL     1      48.857  11.794  15.651  0.00  0.00    +0.000 A 
ATOM     29  N   UNL     1      48.788  10.860  14.652  0.00  0.00    +0.000 N 
ATOM     30  C   UNL     1      48.853   9.506  14.886  0.00  0.00    +0.000 A 
ATOM     31  O   UNL     1      48.835   8.697  13.966  0.00  0.00    +0.000 OA
ATOM     32  C   UNL     1      48.967   9.146  16.286  0.00  0.00    +0.000 A 
ATOM     33  H   UNL     1      48.710  11.141  13.685  0.00  0.00    +0.000 HD
ENDBRANCH  20  23
ENDBRANCH  18  19
ENDBRANCH   4  18
TORSDOF 6
ENDMDL
MODEL 9
REMARK VINA RESULT:    -7.252      3.363      5.313
REMARK INTER + INTRA:         -10.985
REMARK INTER:                 -10.095
REMARK INTRA:                  -0.890
REMARK UNBOUND:                -1.189
REMARK  Name = 
REMARK  6 active torsions:
REMARK  status: ('A' for Active; 'I' for Inactive)
REMARK    1  A    between atoms: C_2  and  C_25
REMARK    2  A    between atoms: N_3  and  C_4
REMARK    3  A    between atoms: C_4  and  C_5
REMARK    4  A    between atoms: C_8  and  C_9
REMARK    5  A    between atoms: C_9  and  N_10
REMARK    6  A    between atoms: C_11  and  C_13
REMARK                            x       y       z     vdW  Elec       q    Type
REMARK                         _______ _______ _______ _____ _____    ______ ____
ROOT
ATOM      1  C   UNL     1      45.231   4.157  11.847  0.00  0.00    +0.000 A 
ATOM      2  C   UNL     1      45.968   3.499  12.840  0.00  0.00    +0.000 A 
ATOM      3  C   UNL     1      46.858   4.205  13.659  0.00  0.00    +0.000 A 
ATOM      4  C   UNL     1      47.015   5.590  13.515  0.00  0.00    +0.000 A 
ATOM      5  C   UNL     1      46.286   6.246  12.515  0.00  0.00    +0.000 A 
ATOM      6  C   UNL     1      45.393   5.541  11.699  0.00  0.00    +0.000 A 
ENDROOT
BRANCH   1   7
ATOM      7  C   UNL     1      44.292   3.389  10.951  0.00  0.00    +0.000 C 
BRANCH   7  10
ATOM      8  O   UNL     1      44.813   4.529   8.460  0.00  0.00    +0.000 OA
ATOM      9  C   UNL     1      45.210   3.390   8.682  0.00  0.00    +0.000 C 
ATOM     10  N   UNL     1      44.981   2.724   9.868  0.00  0.00    +0.000 N 
ATOM     11  H   UNL     1      45.511   1.889  10.084  0.00  0.00    +0.000 HD
BRANCH   9  12
ATOM     12  C   UNL     1      46.027   2.669   7.665  0.00  0.00    +0.000 A 
ATOM     13  C   UNL     1      46.452   1.362   7.942  0.00  0.00    +0.000 A 
ATOM     14  C   UNL     1      47.199   0.653   6.998  0.00  0.00    +0.000 A 
ATOM     15  C   UNL     1      47.535   1.250   5.784  0.00  0.00    +0.000 A 
ATOM     16  C   UNL     1      47.138   2.562   5.516  0.00  0.00    +0.000 A 
ATOM     17  C   UNL     1      46.389   3.274   6.455  0.00  0.00    +0.000 A 
ENDBRANCH   9  12
ENDBRANCH   7  10
ENDBRANCH   1   7
BRANCH   4  18
ATOM     18  C   UNL     1      47.951   6.361  14.411  0.00  0.00    +0.000 C 
BRANCH  18  19
ATOM     19  N   UNL     1      48.997   7.023  13.671  0.00  0.00    +0.000 N 
ATOM     20  C   UNL     1      49.073   8.395  13.643  0.00  0.00    +0.000 C 
ATOM     21  O   UNL     1      48.303   9.100  14.289  0.00  0.00    +0.000 OA
ATOM     22  H   UNL     1      49.487   6.479  12.968  0.00  0.00    +0.000 HD
BRANCH  20  23
ATOM     23  C   UNL     1      50.160   8.983  12.849  0.00  0.00    +0.000 A 
ATOM     24  C   UNL     1      51.478   8.649  13.132  0.00  0.00    +0.000 A 
ATOM     25  S   UNL     1      52.609   9.393  12.095  0.00  0.00    +0.000 S 
ATOM     26  C   UNL     1      51.380  10.226  11.265  0.00  0.00    +0.000 A 
ATOM     27  N   UNL     1      51.678  11.078  10.248  0.00  0.00    +0.000 NA
ATOM     28  C   UNL     1      50.653  11.665   9.726  0.00  0.00    +0.000 A 
ATOM     29  N   UNL     1      49.357  11.472  10.127  0.00  0.00    +0.000 N 
ATOM     30  C   UNL     1      49.005  10.601  11.130  0.00  0.00    +0.000 A 
ATOM     31  O   UNL     1      47.831  10.417  11.434  0.00  0.00    +0.000 OA
ATOM     32  C   UNL     1      50.124   9.925  11.757  0.00  0.00    +0.000 A 
ATOM     33  H   UNL     1      48.597  11.957   9.670  0.00  0.00    +0.000 HD
ENDBRANCH  20  23
ENDBRANCH  18  19
ENDBRANCH   4  18
TORSDOF 6
ENDMDL
