MODEL 1
REMARK VINA RESULT:    -7.866      0.000      0.000
REMARK INTER + INTRA:         -10.940
REMARK INTER:                 -10.395
REMARK INTRA:                  -0.544
REMARK UNBOUND:                -0.544
REMARK  Name = 
REMARK  6 active torsions:
REMARK  status: ('A' for Active; 'I' for Inactive)
REMARK    1  A    between atoms: N_1  and  S_2
REMARK    2  A    between atoms: S_2  and  C_5
REMARK    3  A    between atoms: C_8  and  C_9
REMARK    4  A    between atoms: C_9  and  O_10
REMARK    5  A    between atoms: O_10  and  C_11
REMARK    6  A    between atoms: C_16  and  C_17
REMARK                            x       y       z     vdW  Elec       q    Type
REMARK                         _______ _______ _______ _____ _____    ______ ____
ROOT
ATOM      1  O   UNL     1      44.448   5.389  10.874  0.00  0.00    +0.000 OA
ENDROOT
BRANCH   1   2
ATOM      2  C   UNL     1      45.390   5.439  11.862  0.00  0.00    +0.000 A 
ATOM      3  C   UNL     1      45.702   4.421  12.753  0.00  0.00    +0.000 A 
ATOM      4  C   UNL     1      46.704   4.634  13.692  0.00  0.00    +0.000 A 
ATOM      5  F   UNL     1      47.023   3.648  14.541  0.00  0.00    +0.000 F 
ATOM      6  C   UNL     1      47.389   5.845  13.766  0.00  0.00    +0.000 A 
ATOM      7  C   UNL     1      47.075   6.899  12.895  0.00  0.00    +0.000 A 
ATOM      8  C   UNL     1      46.076   6.660  11.938  0.00  0.00    +0.000 A 
BRANCH   7   9
ATOM      9  C   UNL     1      47.856   8.210  12.982  0.00  0.00    +0.000 C 
ATOM     10  C   UNL     1      48.725   8.481  11.737  0.00  0.00    +0.000 C 
ATOM     11  C   UNL     1      50.020   7.671  11.745  0.00  0.00    +0.000 C 
ATOM     12  N   UNL     1      50.815   7.920  12.950  0.00  0.00    +0.000 NA
ATOM     13  C   UNL     1      50.055   7.620  14.160  0.00  0.00    +0.000 C 
ATOM     14  C   UNL     1      48.740   8.403  14.232  0.00  0.00    +0.000 C 
ATOM     15  H   UNL     1      51.103   8.898  12.967  0.00  0.00    +0.000 HD
ENDBRANCH   7   9
ENDBRANCH   1   2
BRANCH   1  16
ATOM     16  C   UNL     1      43.904   4.115  10.552  0.00  0.00    +0.000 C 
BRANCH  16  20
ATOM     17  C   UNL     1      46.245   2.556   7.397  0.00  0.00    +0.000 A 
ATOM     18  C   UNL     1      45.854   1.665   8.378  0.00  0.00    +0.000 A 
ATOM     19  C   UNL     1      45.078   2.168   9.419  0.00  0.00    +0.000 A 
ATOM     20  C   UNL     1      44.729   3.527   9.437  0.00  0.00    +0.000 A 
ATOM     21  C   UNL     1      45.175   4.327   8.389  0.00  0.00    +0.000 A 
ATOM     22  N   UNL     1      45.924   3.877   7.361  0.00  0.00    +0.000 NA
BRANCH  17  23
ATOM     23  S   UNL     1      47.261   2.031   6.023  0.00  0.00    +0.000 S 
ATOM     24  O   UNL     1      46.886   2.788   4.846  0.00  0.00    +0.000 OA
ATOM     25  O   UNL     1      47.341   0.588   6.003  0.00  0.00    +0.000 OA
BRANCH  23  26
ATOM     26  N   UNL     1      48.795   2.592   6.441  0.00  0.00    +0.000 NA
ATOM     27  H   UNL     1      49.251   1.928   7.062  0.00  0.00    +0.000 HD
ATOM     28  H   UNL     1      48.725   3.545   6.802  0.00  0.00    +0.000 HD
ENDBRANCH  23  26
ENDBRANCH  17  23
ENDBRANCH  16  20
ENDBRANCH   1  16
TORSDOF 6
ENDMDL
MODEL 2
REMARK VINA RESULT:    -7.372      5.683      8.419
REMARK INTER + INTRA:         -10.286
REMARK INTER:                  -9.884
REMARK INTRA:                  -0.402
REMARK UNBOUND:                -0.544
REMARK  Name = 
REMARK  6 active torsions:
REMARK  status: ('A' for Active; 'I' for Inactive)
REMARK    1  A    between atoms: N_1  and  S_2
REMARK    2  A    between atoms: S_2  and  C_5
REMARK    3  A    between atoms: C_8  and  C_9
REMARK    4  A    between atoms: C_9  and  O_10
REMARK    5  A    between atoms: O_10  and  C_11
REMARK    6  A    between atoms: C_16  and  C_17
REMARK                            x       y       z     vdW  Elec       q    Type
REMARK                         _______ _______ _______ _____ _____    ______ ____
ROOT
ATOM      1  O   UNL     1      46.975   3.814  15.224  0.00  0.00    +0.000 OA
ENDROOT
BRANCH   1   2
ATOM      2  C   UNL     1      46.881   4.694  14.185  0.00  0.00    +0.000 A 
ATOM      3  C   UNL     1      47.757   5.734  13.904  0.00  0.00    +0.000 A 
ATOM      4  C   UNL     1      47.520   6.531  12.790  0.00  0.00    +0.000 A 
ATOM      5  F   UNL     1      48.374   7.522  12.504  0.00  0.00    +0.000 F 
ATOM      6  C   UNL     1      46.420   6.318  11.962  0.00  0.00    +0.000 A 
ATOM      7  C   UNL     1      45.505   5.291  12.239  0.00  0.00    +0.000 A 
ATOM      8  C   UNL     1      45.771   4.481  13.354  0.00  0.00    +0.000 A 
BRANCH   7   9
ATOM      9  C   UNL     1      44.318   5.065  11.301  0.00  0.00    +0.000 C 
ATOM     10  C   UNL     1      43.177   4.257  11.952  0.00  0.00    +0.000 C 
ATOM     11  C   UNL     1      43.476   2.759  11.989  0.00  0.00    +0.000 C 
ATOM     12  N   UNL     1      43.746   2.220  10.655  0.00  0.00    +0.000 NA
ATOM     13  C   UNL     1      44.861   2.914  10.017  0.00  0.00    +0.000 C 
ATOM     14  C   UNL     1      44.634   4.427   9.932  0.00  0.00    +0.000 C 
ATOM     15  H   UNL     1      42.912   2.320  10.076  0.00  0.00    +0.000 HD
ENDBRANCH   7   9
ENDBRANCH   1   2
BRANCH   1  16
ATOM     16  C   UNL     1      47.456   4.316  16.466  0.00  0.00    +0.000 C 
BRANCH  16  20
ATOM     17  C   UNL     1      50.939   2.112  17.397  0.00  0.00    +0.000 A 
ATOM     18  C   UNL     1      50.908   3.428  17.814  0.00  0.00    +0.000 A 
ATOM     19  C   UNL     1      49.763   4.161  17.517  0.00  0.00    +0.000 A 
ATOM     20  C   UNL     1      48.707   3.555  16.821  0.00  0.00    +0.000 A 
ATOM     21  C   UNL     1      48.848   2.218  16.459  0.00  0.00    +0.000 A 
ATOM     22  N   UNL     1      49.939   1.473  16.733  0.00  0.00    +0.000 NA
BRANCH  17  23
ATOM     23  S   UNL     1      52.366   1.078  17.703  0.00  0.00    +0.000 S 
ATOM     24  O   UNL     1      53.190   1.705  18.718  0.00  0.00    +0.000 OA
ATOM     25  O   UNL     1      52.920   0.632  16.445  0.00  0.00    +0.000 OA
BRANCH  23  26
ATOM     26  N   UNL     1      51.705  -0.283  18.447  0.00  0.00    +0.000 NA
ATOM     27  H   UNL     1      52.389  -1.034  18.469  0.00  0.00    +0.000 HD
ATOM     28  H   UNL     1      50.817  -0.520  18.002  0.00  0.00    +0.000 HD
ENDBRANCH  23  26
ENDBRANCH  17  23
ENDBRANCH  16  20
ENDBRANCH   1  16
TORSDOF 6
ENDMDL
MODEL 3
REMARK VINA RESULT:    -7.322      1.761      2.417
REMARK INTER + INTRA:         -10.220
REMARK INTER:                  -9.829
REMARK INTRA:                  -0.392
REMARK UNBOUND:                -0.544
REMARK  Name = 
REMARK  6 active torsions:
REMARK  status: ('A' for Active; 'I' for Inactive)
REMARK    1  A    between atoms: N_1  and  S_2
REMARK    2  A    between atoms: S_2  and  C_5
REMARK    3  A    between atoms: C_8  and  C_9
REMARK    4  A    between atoms: C_9  and  O_10
REMARK    5  A    between atoms: O_10  and  C_11
REMARK    6  A    between atoms: C_16  and  C_17
REMARK                            x       y       z     vdW  Elec       q    Type
REMARK                         _______ _______ _______ _____ _____    ______ ____
ROOT
ATOM      1  O   UNL     1      44.715   4.143  11.833  0.00  0.00    +0.000 OA
ENDROOT
BRANCH   1   2
ATOM      2  C   UNL     1      45.166   5.431  11.867  0.00  0.00    +0.000 A 
ATOM      3  C   UNL     1      44.418   6.572  11.608  0.00  0.00    +0.000 A 
ATOM      4  C   UNL     1      45.033   7.815  11.703  0.00  0.00    +0.000 A 
ATOM      5  F   UNL     1      44.310   8.919  11.474  0.00  0.00    +0.000 F 
ATOM      6  C   UNL     1      46.379   7.939  12.038  0.00  0.00    +0.000 A 
ATOM      7  C   UNL     1      47.164   6.801  12.278  0.00  0.00    +0.000 A 
ATOM      8  C   UNL     1      46.523   5.555  12.200  0.00  0.00    +0.000 A 
BRANCH   7   9
ATOM      9  C   UNL     1      48.634   6.965  12.666  0.00  0.00    +0.000 C 
ATOM     10  C   UNL     1      48.859   6.989  14.191  0.00  0.00    +0.000 C 
ATOM     11  C   UNL     1      48.512   8.343  14.808  0.00  0.00    +0.000 C 
ATOM     12  N   UNL     1      49.268   9.436  14.193  0.00  0.00    +0.000 NA
ATOM     13  C   UNL     1      49.041   9.494  12.751  0.00  0.00    +0.000 C 
ATOM     14  C   UNL     1      49.376   8.172  12.055  0.00  0.00    +0.000 C 
ATOM     15  H   UNL     1      50.263   9.300  14.371  0.00  0.00    +0.000 HD
ENDBRANCH   7   9
ENDBRANCH   1   2
BRANCH   1  16
ATOM     16  C   UNL     1      43.861   3.776  10.756  0.00  0.00    +0.000 C 
BRANCH  16  20
ATOM     17  C   UNL     1      46.266   2.600   7.486  0.00  0.00    +0.000 A 
ATOM     18  C   UNL     1      46.027   3.953   7.625  0.00  0.00    +0.000 A 
ATOM     19  C   UNL     1      45.241   4.351   8.702  0.00  0.00    +0.000 A 
ATOM     20  C   UNL     1      44.729   3.390   9.587  0.00  0.00    +0.000 A 
ATOM     21  C   UNL     1      45.044   2.054   9.350  0.00  0.00    +0.000 A 
ATOM     22  N   UNL     1      45.806   1.630   8.321  0.00  0.00    +0.000 NA
BRANCH  17  23
ATOM     23  S   UNL     1      47.244   1.968   6.129  0.00  0.00    +0.000 S 
ATOM     24  O   UNL     1      46.829   2.626   4.906  0.00  0.00    +0.000 OA
ATOM     25  O   UNL     1      47.332   0.529   6.223  0.00  0.00    +0.000 OA
BRANCH  23  26
ATOM     26  N   UNL     1      48.787   2.567   6.453  0.00  0.00    +0.000 NA
ATOM     27  H   UNL     1      48.986   3.360   5.849  0.00  0.00    +0.000 HD
ATOM     28  H   UNL     1      49.467   1.806   6.406  0.00  0.00    +0.000 HD
ENDBRANCH  23  26
ENDBRANCH  17  23
ENDBRANCH  16  20
ENDBRANCH   1  16
TORSDOF 6
ENDMDL
MODEL 4
REMARK VINA RESULT:    -7.237      2.928      3.632
REMARK INTER + INTRA:         -10.109
REMARK INTER:                  -9.388
REMARK INTRA:                  -0.721
REMARK UNBOUND:                -0.544
REMARK  Name = 
REMARK  6 active torsions:
REMARK  status: ('A' for Active; 'I' for Inactive)
REMARK    1  A    between atoms: N_1  and  S_2
REMARK    2  A    between atoms: S_2  and  C_5
REMARK    3  A    between atoms: C_8  and  C_9
REMARK    4  A    between atoms: C_9  and  O_10
REMARK    5  A    between atoms: O_10  and  C_11
REMARK    6  A    between atoms: C_16  and  C_17
REMARK                            x       y       z     vdW  Elec       q    Type
REMARK                         _______ _______ _______ _____ _____    ______ ____
ROOT
ATOM      1  O   UNL     1      45.373   5.330  11.727  0.00  0.00    +0.000 OA
ENDROOT
BRANCH   1   2
ATOM      2  C   UNL     1      46.004   6.535  11.852  0.00  0.00    +0.000 A 
ATOM      3  C   UNL     1      47.375   6.740  11.936  0.00  0.00    +0.000 A 
ATOM      4  C   UNL     1      47.854   8.040  12.046  0.00  0.00    +0.000 A 
ATOM      5  F   UNL     1      49.177   8.245  12.107  0.00  0.00    +0.000 F 
ATOM      6  C   UNL     1      46.993   9.134  12.085  0.00  0.00    +0.000 A 
ATOM      7  C   UNL     1      45.602   8.952  12.028  0.00  0.00    +0.000 A 
ATOM      8  C   UNL     1      45.136   7.635  11.895  0.00  0.00    +0.000 A 
BRANCH   7   9
ATOM      9  C   UNL     1      44.680  10.171  12.050  0.00  0.00    +0.000 C 
ATOM     10  C   UNL     1      43.448  10.015  11.135  0.00  0.00    +0.000 C 
ATOM     11  C   UNL     1      43.784  10.256   9.664  0.00  0.00    +0.000 C 
ATOM     12  N   UNL     1      44.381  11.575   9.447  0.00  0.00    +0.000 NA
ATOM     13  C   UNL     1      45.588  11.752  10.249  0.00  0.00    +0.000 C 
ATOM     14  C   UNL     1      45.332  11.535  11.744  0.00  0.00    +0.000 C 
ATOM     15  H   UNL     1      43.704  12.297   9.696  0.00  0.00    +0.000 HD
ENDBRANCH   7   9
ENDBRANCH   1   2
BRANCH   1  16
ATOM     16  C   UNL     1      44.439   5.188  10.663  0.00  0.00    +0.000 C 
BRANCH  16  20
ATOM     17  C   UNL     1      46.278   2.862   7.653  0.00  0.00    +0.000 A 
ATOM     18  C   UNL     1      45.551   2.178   8.607  0.00  0.00    +0.000 A 
ATOM     19  C   UNL     1      44.936   2.936   9.600  0.00  0.00    +0.000 A 
ATOM     20  C   UNL     1      45.074   4.332   9.599  0.00  0.00    +0.000 A 
ATOM     21  C   UNL     1      45.826   4.911   8.580  0.00  0.00    +0.000 A 
ATOM     22  N   UNL     1      46.432   4.212   7.598  0.00  0.00    +0.000 NA
BRANCH  17  23
ATOM     23  S   UNL     1      47.129   1.994   6.341  0.00  0.00    +0.000 S 
ATOM     24  O   UNL     1      46.621   2.458   5.065  0.00  0.00    +0.000 OA
ATOM     25  O   UNL     1      47.205   0.587   6.660  0.00  0.00    +0.000 OA
BRANCH  23  26
ATOM     26  N   UNL     1      48.701   2.595   6.437  0.00  0.00    +0.000 NA
ATOM     27  H   UNL     1      48.708   3.469   6.956  0.00  0.00    +0.000 HD
ATOM     28  H   UNL     1      49.108   2.644   5.502  0.00  0.00    +0.000 HD
ENDBRANCH  23  26
ENDBRANCH  17  23
ENDBRANCH  16  20
ENDBRANCH   1  16
TORSDOF 6
ENDMDL
MODEL 5
REMARK VINA RESULT:    -6.950      5.757      9.298
REMARK INTER + INTRA:          -9.729
REMARK INTER:                  -9.346
REMARK INTRA:                  -0.383
REMARK UNBOUND:                -0.544
REMARK  Name = 
REMARK  6 active torsions:
REMARK  status: ('A' for Active; 'I' for Inactive)
REMARK    1  A    between atoms: N_1  and  S_2
REMARK    2  A    between atoms: S_2  and  C_5
REMARK    3  A    between atoms: C_8  and  C_9
REMARK    4  A    between atoms: C_9  and  O_10
REMARK    5  A    between atoms: O_10  and  C_11
REMARK    6  A    between atoms: C_16  and  C_17
REMARK                            x       y       z     vdW  Elec       q    Type
REMARK                         _______ _______ _______ _____ _____    ______ ____
ROOT
ATOM      1  O   UNL     1      46.535   4.247  15.074  0.00  0.00    +0.000 OA
ENDROOT
BRANCH   1   2
ATOM      2  C   UNL     1      46.591   4.973  13.919  0.00  0.00    +0.000 A 
ATOM      3  C   UNL     1      47.548   5.923  13.589  0.00  0.00    +0.000 A 
ATOM      4  C   UNL     1      47.465   6.562  12.358  0.00  0.00    +0.000 A 
ATOM      5  F   UNL     1      48.398   7.464  12.026  0.00  0.00    +0.000 F 
ATOM      6  C   UNL     1      46.439   6.280  11.458  0.00  0.00    +0.000 A 
ATOM      7  C   UNL     1      45.444   5.344  11.777  0.00  0.00    +0.000 A 
ATOM      8  C   UNL     1      45.556   4.691  13.015  0.00  0.00    +0.000 A 
BRANCH   7   9
ATOM      9  C   UNL     1      44.342   5.037  10.763  0.00  0.00    +0.000 C 
ATOM     10  C   UNL     1      43.134   4.305  11.384  0.00  0.00    +0.000 C 
ATOM     11  C   UNL     1      43.404   2.815  11.591  0.00  0.00    +0.000 C 
ATOM     12  N   UNL     1      43.782   2.148  10.344  0.00  0.00    +0.000 NA
ATOM     13  C   UNL     1      44.961   2.767   9.745  0.00  0.00    +0.000 C 
ATOM     14  C   UNL     1      44.768   4.266   9.496  0.00  0.00    +0.000 C 
ATOM     15  H   UNL     1      43.005   2.198   9.685  0.00  0.00    +0.000 HD
ENDBRANCH   7   9
ENDBRANCH   1   2
BRANCH   1  16
ATOM     16  C   UNL     1      47.690   3.495  15.431  0.00  0.00    +0.000 C 
BRANCH  16  20
ATOM     17  C   UNL     1      48.757   4.695  19.340  0.00  0.00    +0.000 A 
ATOM     18  C   UNL     1      49.626   3.837  18.696  0.00  0.00    +0.000 A 
ATOM     19  C   UNL     1      49.286   3.440  17.406  0.00  0.00    +0.000 A 
ATOM     20  C   UNL     1      48.103   3.912  16.819  0.00  0.00    +0.000 A 
ATOM     21  C   UNL     1      47.308   4.780  17.563  0.00  0.00    +0.000 A 
ATOM     22  N   UNL     1      47.606   5.191  18.813  0.00  0.00    +0.000 NA
BRANCH  17  23
ATOM     23  S   UNL     1      49.077   5.256  21.008  0.00  0.00    +0.000 S 
ATOM     24  O   UNL     1      48.158   4.590  21.911  0.00  0.00    +0.000 OA
ATOM     25  O   UNL     1      49.239   6.691  21.014  0.00  0.00    +0.000 OA
BRANCH  23  26
ATOM     26  N   UNL     1      50.591   4.598  21.352  0.00  0.00    +0.000 NA
ATOM     27  H   UNL     1      51.236   5.335  21.624  0.00  0.00    +0.000 HD
ATOM     28  H   UNL     1      50.900   4.020  20.569  0.00  0.00    +0.000 HD
ENDBRANCH  23  26
ENDBRANCH  17  23
ENDBRANCH  16  20
ENDBRANCH   1  16
TORSDOF 6
ENDMDL
MODEL 6
REMARK VINA RESULT:    -6.778      4.892      7.907
REMARK INTER + INTRA:          -9.502
REMARK INTER:                  -9.134
REMARK INTRA:                  -0.368
REMARK UNBOUND:                -0.544
REMARK  Name = 
REMARK  6 active torsions:
REMARK  status: ('A' for Active; 'I' for Inactive)
REMARK    1  A    between atoms: N_1  and  S_2
REMARK    2  A    between atoms: S_2  and  C_5
REMARK    3  A    between atoms: C_8  and  C_9
REMARK    4  A    between atoms: C_9  and  O_10
REMARK    5  A    between atoms: O_10  and  C_11
REMARK    6  A    between atoms: C_16  and  C_17
REMARK                            x       y       z     vdW  Elec       q    Type
REMARK                         _______ _______ _______ _____ _____    ______ ____
ROOT
ATOM      1  O   UNL     1      48.360   7.520  12.600  0.00  0.00    +0.000 OA
ENDROOT
BRANCH   1   2
ATOM      2  C   UNL     1      47.070   7.798  12.248  0.00  0.00    +0.000 A 
ATOM      3  C   UNL     1      46.455   9.042  12.291  0.00  0.00    +0.000 A 
ATOM      4  C   UNL     1      45.132   9.152  11.879  0.00  0.00    +0.000 A 
ATOM      5  F   UNL     1      44.540  10.353  11.900  0.00  0.00    +0.000 F 
ATOM      6  C   UNL     1      44.410   8.044  11.439  0.00  0.00    +0.000 A 
ATOM      7  C   UNL     1      45.000   6.771  11.412  0.00  0.00    +0.000 A 
ATOM      8  C   UNL     1      46.344   6.681  11.809  0.00  0.00    +0.000 A 
BRANCH   7   9
ATOM      9  C   UNL     1      44.194   5.576  10.903  0.00  0.00    +0.000 C 
ATOM     10  C   UNL     1      42.834   5.416  11.614  0.00  0.00    +0.000 C 
ATOM     11  C   UNL     1      42.974   4.776  12.995  0.00  0.00    +0.000 C 
ATOM     12  N   UNL     1      43.640   3.473  12.930  0.00  0.00    +0.000 NA
ATOM     13  C   UNL     1      44.961   3.580  12.317  0.00  0.00    +0.000 C 
ATOM     14  C   UNL     1      44.906   4.207  10.921  0.00  0.00    +0.000 C 
ATOM     15  H   UNL     1      43.067   2.829  12.385  0.00  0.00    +0.000 HD
ENDBRANCH   7   9
ENDBRANCH   1   2
BRANCH   1  16
ATOM     16  C   UNL     1      48.818   8.017  13.852  0.00  0.00    +0.000 C 
BRANCH  16  20
ATOM     17  C   UNL     1      48.465   4.837  16.613  0.00  0.00    +0.000 A 
ATOM     18  C   UNL     1      49.250   5.907  16.997  0.00  0.00    +0.000 A 
ATOM     19  C   UNL     1      49.368   6.962  16.096  0.00  0.00    +0.000 A 
ATOM     20  C   UNL     1      48.704   6.904  14.862  0.00  0.00    +0.000 A 
ATOM     21  C   UNL     1      47.934   5.777  14.589  0.00  0.00    +0.000 A 
ATOM     22  N   UNL     1      47.791   4.737  15.436  0.00  0.00    +0.000 NA
BRANCH  17  23
ATOM     23  S   UNL     1      48.256   3.415  17.677  0.00  0.00    +0.000 S 
ATOM     24  O   UNL     1      48.482   3.820  19.051  0.00  0.00    +0.000 OA
ATOM     25  O   UNL     1      48.933   2.276  17.102  0.00  0.00    +0.000 OA
BRANCH  23  26
ATOM     26  N   UNL     1      46.604   3.095  17.575  0.00  0.00    +0.000 NA
ATOM     27  H   UNL     1      46.074   3.885  17.933  0.00  0.00    +0.000 HD
ATOM     28  H   UNL     1      46.400   2.199  18.021  0.00  0.00    +0.000 HD
ENDBRANCH  23  26
ENDBRANCH  17  23
ENDBRANCH  16  20
ENDBRANCH   1  16
TORSDOF 6
ENDMDL
MODEL 7
REMARK VINA RESULT:    -6.639      4.094      6.109
REMARK INTER + INTRA:          -9.319
REMARK INTER:                  -8.639
REMARK INTRA:                  -0.680
REMARK UNBOUND:                -0.544
REMARK  Name = 
REMARK  6 active torsions:
REMARK  status: ('A' for Active; 'I' for Inactive)
REMARK    1  A    between atoms: N_1  and  S_2
REMARK    2  A    between atoms: S_2  and  C_5
REMARK    3  A    between atoms: C_8  and  C_9
REMARK    4  A    between atoms: C_9  and  O_10
REMARK    5  A    between atoms: O_10  and  C_11
REMARK    6  A    between atoms: C_16  and  C_17
REMARK                            x       y       z     vdW  Elec       q    Type
REMARK                         _______ _______ _______ _____ _____    ______ ____
ROOT
ATOM      1  O   UNL     1      48.376   7.525  14.187  0.00  0.00    +0.000 OA
ENDROOT
BRANCH   1   2
ATOM      2  C   UNL     1      48.907   7.286  15.422  0.00  0.00    +0.000 A 
ATOM      3  C   UNL     1      49.761   8.125  16.127  0.00  0.00    +0.000 A 
ATOM      4  C   UNL     1      50.198   7.733  17.387  0.00  0.00    +0.000 A 
ATOM      5  F   UNL     1      51.006   8.548  18.079  0.00  0.00    +0.000 F 
ATOM      6  C   UNL     1      49.811   6.519  17.949  0.00  0.00    +0.000 A 
ATOM      7  C   UNL     1      48.971   5.641  17.247  0.00  0.00    +0.000 A 
ATOM      8  C   UNL     1      48.520   6.062  15.985  0.00  0.00    +0.000 A 
BRANCH   7   9
ATOM      9  C   UNL     1      48.543   4.325  17.895  0.00  0.00    +0.000 C 
ATOM     10  C   UNL     1      49.733   3.420  18.272  0.00  0.00    +0.000 C 
ATOM     11  C   UNL     1      50.302   2.677  17.063  0.00  0.00    +0.000 C 
ATOM     12  N   UNL     1      49.283   1.874  16.384  0.00  0.00    +0.000 NA
ATOM     13  C   UNL     1      48.157   2.697  15.953  0.00  0.00    +0.000 C 
ATOM     14  C   UNL     1      47.523   3.471  17.113  0.00  0.00    +0.000 C 
ATOM     15  H   UNL     1      48.946   1.150  17.018  0.00  0.00    +0.000 HD
ENDBRANCH   7   9
ENDBRANCH   1   2
BRANCH   1  16
ATOM     16  C   UNL     1      48.610   6.552  13.175  0.00  0.00    +0.000 C 
BRANCH  16  20
ATOM     17  C   UNL     1      44.870   5.123  11.821  0.00  0.00    +0.000 A 
ATOM     18  C   UNL     1      45.445   4.449  12.881  0.00  0.00    +0.000 A 
ATOM     19  C   UNL     1      46.674   4.916  13.338  0.00  0.00    +0.000 A 
ATOM     20  C   UNL     1      47.274   6.024  12.722  0.00  0.00    +0.000 A 
ATOM     21  C   UNL     1      46.596   6.627  11.666  0.00  0.00    +0.000 A 
ATOM     22  N   UNL     1      45.402   6.208  11.198  0.00  0.00    +0.000 NA
BRANCH  17  23
ATOM     23  S   UNL     1      43.304   4.602  11.134  0.00  0.00    +0.000 S 
ATOM     24  O   UNL     1      42.288   5.570  11.497  0.00  0.00    +0.000 OA
ATOM     25  O   UNL     1      43.119   3.187  11.365  0.00  0.00    +0.000 OA
BRANCH  23  26
ATOM     26  N   UNL     1      43.527   4.794   9.474  0.00  0.00    +0.000 NA
ATOM     27  H   UNL     1      43.302   3.929   8.990  0.00  0.00    +0.000 HD
ATOM     28  H   UNL     1      44.464   5.160   9.294  0.00  0.00    +0.000 HD
ENDBRANCH  23  26
ENDBRANCH  17  23
ENDBRANCH  16  20
ENDBRANCH   1  16
TORSDOF 6
ENDMDL
MODEL 8
REMARK VINA RESULT:    -6.590      4.084      6.181
REMARK INTER + INTRA:          -9.254
REMARK INTER:                  -8.793
REMARK INTRA:                  -0.461
REMARK UNBOUND:                -0.544
REMARK  Name = 
REMARK  6 active torsions:
REMARK  status: ('A' for Active; 'I' for Inactive)
REMARK    1  A    between atoms: N_1  and  S_2
REMARK    2  A    between atoms: S_2  and  C_5
REMARK    3  A    between atoms: C_8  and  C_9
REMARK    4  A    between atoms: C_9  and  O_10
REMARK    5  A    between atoms: O_10  and  C_11
REMARK    6  A    between atoms: C_16  and  C_17
REMARK                            x       y       z     vdW  Elec       q    Type
REMARK                         _______ _______ _______ _____ _____    ______ ____
ROOT
ATOM      1  O   UNL     1      48.592   7.468  14.195  0.00  0.00    +0.000 OA
ENDROOT
BRANCH   1   2
ATOM      2  C   UNL     1      49.566   7.096  15.076  0.00  0.00    +0.000 A 
ATOM      3  C   UNL     1      50.875   7.559  15.098  0.00  0.00    +0.000 A 
ATOM      4  C   UNL     1      51.739   7.085  16.079  0.00  0.00    +0.000 A 
ATOM      5  F   UNL     1      52.997   7.543  16.117  0.00  0.00    +0.000 F 
ATOM      6  C   UNL     1      51.325   6.151  17.027  0.00  0.00    +0.000 A 
ATOM      7  C   UNL     1      50.015   5.648  17.010  0.00  0.00    +0.000 A 
ATOM      8  C   UNL     1      49.149   6.154  16.027  0.00  0.00    +0.000 A 
BRANCH   7   9
ATOM      9  C   UNL     1      49.580   4.641  18.074  0.00  0.00    +0.000 C 
ATOM     10  C   UNL     1      49.166   3.277  17.485  0.00  0.00    +0.000 C 
ATOM     11  C   UNL     1      47.758   3.306  16.891  0.00  0.00    +0.000 C 
ATOM     12  N   UNL     1      46.757   3.731  17.871  0.00  0.00    +0.000 NA
ATOM     13  C   UNL     1      47.073   5.048  18.418  0.00  0.00    +0.000 C 
ATOM     14  C   UNL     1      48.470   5.100  19.043  0.00  0.00    +0.000 C 
ATOM     15  H   UNL     1      46.720   3.052  18.631  0.00  0.00    +0.000 HD
ENDBRANCH   7   9
ENDBRANCH   1   2
BRANCH   1  16
ATOM     16  C   UNL     1      48.680   6.961  12.869  0.00  0.00    +0.000 C 
BRANCH  16  20
ATOM     17  C   UNL     1      44.964   5.254  11.802  0.00  0.00    +0.000 A 
ATOM     18  C   UNL     1      45.549   4.790  12.964  0.00  0.00    +0.000 A 
ATOM     19  C   UNL     1      46.770   5.350  13.327  0.00  0.00    +0.000 A 
ATOM     20  C   UNL     1      47.352   6.340  12.521  0.00  0.00    +0.000 A 
ATOM     21  C   UNL     1      46.665   6.734  11.376  0.00  0.00    +0.000 A 
ATOM     22  N   UNL     1      45.478   6.219  10.993  0.00  0.00    +0.000 NA
BRANCH  17  23
ATOM     23  S   UNL     1      43.406   4.594  11.224  0.00  0.00    +0.000 S 
ATOM     24  O   UNL     1      42.344   5.511  11.589  0.00  0.00    +0.000 OA
ATOM     25  O   UNL     1      43.331   3.185  11.534  0.00  0.00    +0.000 OA
BRANCH  23  26
ATOM     26  N   UNL     1      43.535   4.712   9.547  0.00  0.00    +0.000 NA
ATOM     27  H   UNL     1      44.479   4.474   9.253  0.00  0.00    +0.000 HD
ATOM     28  H   UNL     1      43.205   5.628   9.240  0.00  0.00    +0.000 HD
ENDBRANCH  23  26
ENDBRANCH  17  23
ENDBRANCH  16  20
ENDBRANCH   1  16
TORSDOF 6
ENDMDL
MODEL 9
REMARK VINA RESULT:    -6.414      4.426      6.244
REMARK INTER + INTRA:          -9.021
REMARK INTER:                  -8.394
REMARK INTRA:                  -0.627
REMARK UNBOUND:                -0.544
REMARK  Name = 
REMARK  6 active torsions:
REMARK  status: ('A' for Active; 'I' for Inactive)
REMARK    1  A    between atoms: N_1  and  S_2
REMARK    2  A    between atoms: S_2  and  C_5
REMARK    3  A    between atoms: C_8  and  C_9
REMARK    4  A    between atoms: C_9  and  O_10
REMARK    5  A    between atoms: O_10  and  C_11
REMARK    6  A    between atoms: C_16  and  C_17
REMARK                            x       y       z     vdW  Elec       q    Type
REMARK                         _______ _______ _______ _____ _____    ______ ____
ROOT
ATOM      1  O   UNL     1      48.935   6.480  14.071  0.00  0.00    +0.000 OA
ENDROOT
BRANCH   1   2
ATOM      2  C   UNL     1      48.954   6.994  15.336  0.00  0.00    +0.000 A 
ATOM      3  C   UNL     1      48.454   8.229  15.729  0.00  0.00    +0.000 A 
ATOM      4  C   UNL     1      48.541   8.593  17.068  0.00  0.00    +0.000 A 
ATOM      5  F   UNL     1      48.042   9.774  17.456  0.00  0.00    +0.000 F 
ATOM      6  C   UNL     1      49.127   7.757  18.015  0.00  0.00    +0.000 A 
ATOM      7  C   UNL     1      49.664   6.516  17.639  0.00  0.00    +0.000 A 
ATOM      8  C   UNL     1      49.548   6.153  16.288  0.00  0.00    +0.000 A 
BRANCH   7   9
ATOM      9  C   UNL     1      50.282   5.608  18.702  0.00  0.00    +0.000 C 
ATOM     10  C   UNL     1      50.234   4.113  18.323  0.00  0.00    +0.000 C 
ATOM     11  C   UNL     1      48.853   3.501  18.556  0.00  0.00    +0.000 C 
ATOM     12  N   UNL     1      48.409   3.661  19.942  0.00  0.00    +0.000 NA
ATOM     13  C   UNL     1      48.380   5.068  20.332  0.00  0.00    +0.000 C 
ATOM     14  C   UNL     1      49.735   5.755  20.136  0.00  0.00    +0.000 C 
ATOM     15  H   UNL     1      49.043   3.154  20.560  0.00  0.00    +0.000 HD
ENDBRANCH   7   9
ENDBRANCH   1   2
BRANCH   1  16
ATOM     16  C   UNL     1      48.211   7.201  13.081  0.00  0.00    +0.000 C 
BRANCH  16  20
ATOM     17  C   UNL     1      45.165   4.631  11.674  0.00  0.00    +0.000 A 
ATOM     18  C   UNL     1      45.547   5.659  10.834  0.00  0.00    +0.000 A 
ATOM     19  C   UNL     1      46.553   6.507  11.286  0.00  0.00    +0.000 A 
ATOM     20  C   UNL     1      47.130   6.297  12.547  0.00  0.00    +0.000 A 
ATOM     21  C   UNL     1      46.669   5.223  13.303  0.00  0.00    +0.000 A 
ATOM     22  N   UNL     1      45.700   4.376  12.898  0.00  0.00    +0.000 NA
BRANCH  17  23
ATOM     23  S   UNL     1      43.867   3.491  11.211  0.00  0.00    +0.000 S 
ATOM     24  O   UNL     1      44.287   2.756  10.034  0.00  0.00    +0.000 OA
ATOM     25  O   UNL     1      42.589   4.162  11.269  0.00  0.00    +0.000 OA
BRANCH  23  26
ATOM     26  N   UNL     1      43.877   2.364  12.465  0.00  0.00    +0.000 NA
ATOM     27  H   UNL     1      43.526   1.471  12.132  0.00  0.00    +0.000 HD
ATOM     28  H   UNL     1      43.387   2.748  13.275  0.00  0.00    +0.000 HD
ENDBRANCH  23  26
ENDBRANCH  17  23
ENDBRANCH  16  20
ENDBRANCH   1  16
TORSDOF 6
ENDMDL
