MODEL 1
REMARK VINA RESULT:    -8.300      0.000      0.000
REMARK INTER + INTRA:         -12.147
REMARK INTER:                 -11.211
REMARK INTRA:                  -0.936
REMARK UNBOUND:                -0.936
REMARK  Name = 
REMARK  6 active torsions:
REMARK  status: ('A' for Active; 'I' for Inactive)
REMARK    1  A    between atoms: C_2  and  C_19
REMARK    2  A    between atoms: N_3  and  C_4
REMARK    3  A    between atoms: C_4  and  C_5
REMARK    4  A    between atoms: C_8  and  C_9
REMARK    5  A    between atoms: C_9  and  C_10
REMARK    6  A    between atoms: C_10  and  C_11
REMARK                            x       y       z     vdW  Elec       q    Type
REMARK                         _______ _______ _______ _____ _____    ______ ____
ROOT
ATOM      1  C   UNL     1      46.071   7.122  12.444  0.00  0.00    +0.000 C 
ENDROOT
BRANCH   1   2
ATOM      2  C   UNL     1      45.710   5.894  11.648  0.00  0.00    +0.000 A 
ATOM      3  C   UNL     1      45.305   4.728  12.305  0.00  0.00    +0.000 A 
ATOM      4  C   UNL     1      44.924   3.593  11.580  0.00  0.00    +0.000 A 
ATOM      5  C   UNL     1      44.954   3.584  10.178  0.00  0.00    +0.000 A 
ATOM      6  C   UNL     1      45.397   4.743   9.521  0.00  0.00    +0.000 A 
ATOM      7  C   UNL     1      45.775   5.882  10.248  0.00  0.00    +0.000 A 
BRANCH   5   8
ATOM      8  C   UNL     1      44.541   2.347   9.393  0.00  0.00    +0.000 C 
BRANCH   8   9
ATOM      9  C   UNL     1      45.131   2.338   7.978  0.00  0.00    +0.000 C 
BRANCH   9  10
ATOM     10  C   UNL     1      46.650   2.118   7.788  0.00  0.00    +0.000 C 
ATOM     11  C   UNL     1      47.380   3.166   6.930  0.00  0.00    +0.000 C 
ATOM     12  C   UNL     1      47.535   2.793   5.457  0.00  0.00    +0.000 C 
ATOM     13  N   UNL     1      48.048   1.436   5.280  0.00  0.00    +0.000 NA
ATOM     14  C   UNL     1      47.137   0.467   5.885  0.00  0.00    +0.000 C 
ATOM     15  C   UNL     1      47.018   0.682   7.389  0.00  0.00    +0.000 C 
ATOM     16  H   UNL     1      48.961   1.361   5.734  0.00  0.00    +0.000 HD
ENDBRANCH   9  10
ENDBRANCH   8   9
ENDBRANCH   5   8
ENDBRANCH   1   2
BRANCH   1  19
ATOM     17  O   UNL     1      48.788   6.427  12.922  0.00  0.00    +0.000 OA
ATOM     18  C   UNL     1      48.001   6.500  13.861  0.00  0.00    +0.000 C 
ATOM     19  N   UNL     1      46.673   6.793  13.705  0.00  0.00    +0.000 N 
ATOM     20  H   UNL     1      46.127   7.045  14.519  0.00  0.00    +0.000 HD
BRANCH  18  21
ATOM     21  C   UNL     1      48.421   6.223  15.242  0.00  0.00    +0.000 A 
ATOM     22  C   UNL     1      49.217   7.124  15.940  0.00  0.00    +0.000 A 
ATOM     23  S   UNL     1      49.573   6.615  17.532  0.00  0.00    +0.000 S 
ATOM     24  C   UNL     1      48.662   5.190  17.344  0.00  0.00    +0.000 A 
ATOM     25  N   UNL     1      48.524   4.295  18.360  0.00  0.00    +0.000 NA
ATOM     26  C   UNL     1      47.787   3.272  18.074  0.00  0.00    +0.000 A 
ATOM     27  N   UNL     1      47.182   3.050  16.869  0.00  0.00    +0.000 N 
ATOM     28  C   UNL     1      47.357   3.886  15.797  0.00  0.00    +0.000 A 
ATOM     29  O   UNL     1      46.916   3.575  14.690  0.00  0.00    +0.000 OA
ATOM     30  C   UNL     1      48.122   5.082  16.074  0.00  0.00    +0.000 A 
ATOM     31  H   UNL     1      46.658   2.209  16.686  0.00  0.00    +0.000 HD
ENDBRANCH  18  21
ENDBRANCH   1  19
TORSDOF 6
ENDMDL
MODEL 2
REMARK VINA RESULT:    -7.637      1.416      2.025
REMARK INTER + INTRA:         -11.252
REMARK INTER:                 -10.238
REMARK INTRA:                  -1.015
REMARK UNBOUND:                -0.936
REMARK  Name = 
REMARK  6 active torsions:
REMARK  status: ('A' for Active; 'I' for Inactive)
REMARK    1  A    between atoms: C_2  and  C_19
REMARK    2  A    between atoms: N_3  and  C_4
REMARK    3  A    between atoms: C_4  and  C_5
REMARK    4  A    between atoms: C_8  and  C_9
REMARK    5  A    between atoms: C_9  and  C_10
REMARK    6  A    between atoms: C_10  and  C_11
REMARK                            x       y       z     vdW  Elec       q    Type
REMARK                         _______ _______ _______ _____ _____    ______ ____
ROOT
ATOM      1  C   UNL     1      45.745   6.498  12.884  0.00  0.00    +0.000 C 
ENDROOT
BRANCH   1   2
ATOM      2  C   UNL     1      45.507   5.582  11.711  0.00  0.00    +0.000 A 
ATOM      3  C   UNL     1      44.919   4.329  11.910  0.00  0.00    +0.000 A 
ATOM      4  C   UNL     1      44.651   3.483  10.826  0.00  0.00    +0.000 A 
ATOM      5  C   UNL     1      44.978   3.859   9.515  0.00  0.00    +0.000 A 
ATOM      6  C   UNL     1      45.602   5.101   9.322  0.00  0.00    +0.000 A 
ATOM      7  C   UNL     1      45.868   5.950  10.407  0.00  0.00    +0.000 A 
BRANCH   5   8
ATOM      8  C   UNL     1      44.686   2.936   8.340  0.00  0.00    +0.000 C 
BRANCH   8   9
ATOM      9  C   UNL     1      45.607   1.710   8.327  0.00  0.00    +0.000 C 
BRANCH   9  10
ATOM     10  C   UNL     1      47.027   1.830   7.724  0.00  0.00    +0.000 C 
ATOM     11  C   UNL     1      47.306   3.104   6.908  0.00  0.00    +0.000 C 
ATOM     12  C   UNL     1      47.100   2.958   5.402  0.00  0.00    +0.000 C 
ATOM     13  N   UNL     1      47.756   1.767   4.865  0.00  0.00    +0.000 NA
ATOM     14  C   UNL     1      47.221   0.565   5.500  0.00  0.00    +0.000 C 
ATOM     15  C   UNL     1      47.495   0.560   6.998  0.00  0.00    +0.000 C 
ATOM     16  H   UNL     1      48.759   1.824   5.054  0.00  0.00    +0.000 HD
ENDBRANCH   9  10
ENDBRANCH   8   9
ENDBRANCH   5   8
ENDBRANCH   1   2
BRANCH   1  19
ATOM     17  O   UNL     1      48.449   6.059  13.652  0.00  0.00    +0.000 OA
ATOM     18  C   UNL     1      47.537   5.645  14.362  0.00  0.00    +0.000 C 
ATOM     19  N   UNL     1      46.214   5.787  14.040  0.00  0.00    +0.000 N 
ATOM     20  H   UNL     1      45.515   5.620  14.753  0.00  0.00    +0.000 HD
BRANCH  18  21
ATOM     21  C   UNL     1      47.801   4.910  15.606  0.00  0.00    +0.000 A 
ATOM     22  C   UNL     1      47.459   3.569  15.730  0.00  0.00    +0.000 A 
ATOM     23  S   UNL     1      47.870   2.905  17.250  0.00  0.00    +0.000 S 
ATOM     24  C   UNL     1      48.535   4.380  17.780  0.00  0.00    +0.000 A 
ATOM     25  N   UNL     1      49.100   4.503  19.012  0.00  0.00    +0.000 NA
ATOM     26  C   UNL     1      49.580   5.677  19.264  0.00  0.00    +0.000 A 
ATOM     27  N   UNL     1      49.543   6.743  18.410  0.00  0.00    +0.000 N 
ATOM     28  C   UNL     1      48.916   6.683  17.192  0.00  0.00    +0.000 A 
ATOM     29  O   UNL     1      48.776   7.703  16.516  0.00  0.00    +0.000 OA
ATOM     30  C   UNL     1      48.414   5.377  16.827  0.00  0.00    +0.000 A 
ATOM     31  H   UNL     1      49.889   7.650  18.679  0.00  0.00    +0.000 HD
ENDBRANCH  18  21
ENDBRANCH   1  19
TORSDOF 6
ENDMDL
MODEL 3
REMARK VINA RESULT:    -7.519      3.440      8.109
REMARK INTER + INTRA:         -11.093
REMARK INTER:                  -9.946
REMARK INTRA:                  -1.147
REMARK UNBOUND:                -0.936
REMARK  Name = 
REMARK  6 active torsions:
REMARK  status: ('A' for Active; 'I' for Inactive)
REMARK    1  A    between atoms: C_2  and  C_19
REMARK    2  A    between atoms: N_3  and  C_4
REMARK    3  A    between atoms: C_4  and  C_5
REMARK    4  A    between atoms: C_8  and  C_9
REMARK    5  A    between atoms: C_9  and  C_10
REMARK    6  A    between atoms: C_10  and  C_11
REMARK                            x       y       z     vdW  Elec       q    Type
REMARK                         _______ _______ _______ _____ _____    ______ ____
ROOT
ATOM      1  C   UNL     1      48.454   7.828  12.008  0.00  0.00    +0.000 C 
ENDROOT
BRANCH   1   2
ATOM      2  C   UNL     1      48.938   7.487  13.394  0.00  0.00    +0.000 A 
ATOM      3  C   UNL     1      48.150   6.693  14.234  0.00  0.00    +0.000 A 
ATOM      4  C   UNL     1      48.602   6.330  15.508  0.00  0.00    +0.000 A 
ATOM      5  C   UNL     1      49.848   6.764  15.986  0.00  0.00    +0.000 A 
ATOM      6  C   UNL     1      50.620   7.591  15.157  0.00  0.00    +0.000 A 
ATOM      7  C   UNL     1      50.168   7.953  13.878  0.00  0.00    +0.000 A 
BRANCH   5   8
ATOM      8  C   UNL     1      50.336   6.369  17.373  0.00  0.00    +0.000 C 
BRANCH   8   9
ATOM      9  C   UNL     1      50.696   4.881  17.455  0.00  0.00    +0.000 C 
BRANCH   9  10
ATOM     10  C   UNL     1      49.739   3.904  18.178  0.00  0.00    +0.000 C 
ATOM     11  C   UNL     1      49.278   2.684  17.362  0.00  0.00    +0.000 C 
ATOM     12  C   UNL     1      47.938   2.859  16.649  0.00  0.00    +0.000 C 
ATOM     13  N   UNL     1      46.904   3.390  17.536  0.00  0.00    +0.000 NA
ATOM     14  C   UNL     1      47.301   4.699  18.050  0.00  0.00    +0.000 C 
ATOM     15  C   UNL     1      48.570   4.603  18.889  0.00  0.00    +0.000 C 
ATOM     16  H   UNL     1      46.776   2.750  18.322  0.00  0.00    +0.000 HD
ENDBRANCH   9  10
ENDBRANCH   8   9
ENDBRANCH   5   8
ENDBRANCH   1   2
BRANCH   1  19
ATOM     17  O   UNL     1      45.617   7.796  11.796  0.00  0.00    +0.000 OA
ATOM     18  C   UNL     1      46.275   6.860  11.350  0.00  0.00    +0.000 C 
ATOM     19  N   UNL     1      47.638   6.789  11.447  0.00  0.00    +0.000 N 
ATOM     20  H   UNL     1      48.135   6.111  10.884  0.00  0.00    +0.000 HD
BRANCH  18  21
ATOM     21  C   UNL     1      45.633   5.703  10.713  0.00  0.00    +0.000 A 
ATOM     22  C   UNL     1      45.790   5.456   9.354  0.00  0.00    +0.000 A 
ATOM     23  S   UNL     1      44.975   4.051   8.824  0.00  0.00    +0.000 S 
ATOM     24  C   UNL     1      44.404   3.719  10.392  0.00  0.00    +0.000 A 
ATOM     25  N   UNL     1      43.647   2.619  10.655  0.00  0.00    +0.000 NA
ATOM     26  C   UNL     1      43.306   2.490  11.895  0.00  0.00    +0.000 A 
ATOM     27  N   UNL     1      43.639   3.357  12.898  0.00  0.00    +0.000 N 
ATOM     28  C   UNL     1      44.334   4.515  12.664  0.00  0.00    +0.000 A 
ATOM     29  O   UNL     1      44.487   5.340  13.565  0.00  0.00    +0.000 OA
ATOM     30  C   UNL     1      44.798   4.684  11.304  0.00  0.00    +0.000 A 
ATOM     31  H   UNL     1      43.303   3.232  13.840  0.00  0.00    +0.000 HD
ENDBRANCH  18  21
ENDBRANCH   1  19
TORSDOF 6
ENDMDL
MODEL 4
REMARK VINA RESULT:    -7.367      2.140      3.662
REMARK INTER + INTRA:         -10.887
REMARK INTER:                  -9.594
REMARK INTRA:                  -1.294
REMARK UNBOUND:                -0.936
REMARK  Name = 
REMARK  6 active torsions:
REMARK  status: ('A' for Active; 'I' for Inactive)
REMARK    1  A    between atoms: C_2  and  C_19
REMARK    2  A    between atoms: N_3  and  C_4
REMARK    3  A    between atoms: C_4  and  C_5
REMARK    4  A    between atoms: C_8  and  C_9
REMARK    5  A    between atoms: C_9  and  C_10
REMARK    6  A    between atoms: C_10  and  C_11
REMARK                            x       y       z     vdW  Elec       q    Type
REMARK                         _______ _______ _______ _____ _____    ______ ____
ROOT
ATOM      1  C   UNL     1      46.179   5.003  13.969  0.00  0.00    +0.000 C 
ENDROOT
BRANCH   1   2
ATOM      2  C   UNL     1      45.788   4.738  12.538  0.00  0.00    +0.000 A 
ATOM      3  C   UNL     1      45.300   3.481  12.167  0.00  0.00    +0.000 A 
ATOM      4  C   UNL     1      44.892   3.231  10.852  0.00  0.00    +0.000 A 
ATOM      5  C   UNL     1      44.973   4.225   9.866  0.00  0.00    +0.000 A 
ATOM      6  C   UNL     1      45.497   5.474  10.231  0.00  0.00    +0.000 A 
ATOM      7  C   UNL     1      45.905   5.726  11.550  0.00  0.00    +0.000 A 
BRANCH   5   8
ATOM      8  C   UNL     1      44.529   3.948   8.436  0.00  0.00    +0.000 C 
BRANCH   8   9
ATOM      9  C   UNL     1      45.100   2.631   7.899  0.00  0.00    +0.000 C 
BRANCH   9  10
ATOM     10  C   UNL     1      46.629   2.481   7.719  0.00  0.00    +0.000 C 
ATOM     11  C   UNL     1      47.282   3.426   6.696  0.00  0.00    +0.000 C 
ATOM     12  C   UNL     1      47.450   2.839   5.296  0.00  0.00    +0.000 C 
ATOM     13  N   UNL     1      48.049   1.506   5.322  0.00  0.00    +0.000 NA
ATOM     14  C   UNL     1      47.208   0.587   6.085  0.00  0.00    +0.000 C 
ATOM     15  C   UNL     1      47.086   1.025   7.540  0.00  0.00    +0.000 C 
ATOM     16  H   UNL     1      48.968   1.561   5.766  0.00  0.00    +0.000 HD
ENDBRANCH   9  10
ENDBRANCH   8   9
ENDBRANCH   5   8
ENDBRANCH   1   2
BRANCH   1  19
ATOM     17  O   UNL     1      48.506   5.365  15.567  0.00  0.00    +0.000 OA
ATOM     18  C   UNL     1      48.092   6.287  14.870  0.00  0.00    +0.000 C 
ATOM     19  N   UNL     1      46.962   6.199  14.104  0.00  0.00    +0.000 N 
ATOM     20  H   UNL     1      46.790   6.905  13.399  0.00  0.00    +0.000 HD
BRANCH  18  21
ATOM     21  C   UNL     1      48.764   7.594  14.845  0.00  0.00    +0.000 A 
ATOM     22  C   UNL     1      48.870   8.365  15.996  0.00  0.00    +0.000 A 
ATOM     23  S   UNL     1      49.702   9.837  15.748  0.00  0.00    +0.000 S 
ATOM     24  C   UNL     1      49.962   9.481  14.104  0.00  0.00    +0.000 A 
ATOM     25  N   UNL     1      50.652  10.329  13.294  0.00  0.00    +0.000 NA
ATOM     26  C   UNL     1      50.786   9.913  12.077  0.00  0.00    +0.000 A 
ATOM     27  N   UNL     1      50.290   8.738  11.586  0.00  0.00    +0.000 N 
ATOM     28  C   UNL     1      49.525   7.893  12.348  0.00  0.00    +0.000 A 
ATOM     29  O   UNL     1      48.975   6.919  11.831  0.00  0.00    +0.000 OA
ATOM     30  C   UNL     1      49.392   8.274  13.737  0.00  0.00    +0.000 A 
ATOM     31  H   UNL     1      50.383   8.487  10.615  0.00  0.00    +0.000 HD
ENDBRANCH  18  21
ENDBRANCH   1  19
TORSDOF 6
ENDMDL
MODEL 5
REMARK VINA RESULT:    -7.280      2.114      2.797
REMARK INTER + INTRA:         -10.769
REMARK INTER:                  -9.757
REMARK INTRA:                  -1.012
REMARK UNBOUND:                -0.936
REMARK  Name = 
REMARK  6 active torsions:
REMARK  status: ('A' for Active; 'I' for Inactive)
REMARK    1  A    between atoms: C_2  and  C_19
REMARK    2  A    between atoms: N_3  and  C_4
REMARK    3  A    between atoms: C_4  and  C_5
REMARK    4  A    between atoms: C_8  and  C_9
REMARK    5  A    between atoms: C_9  and  C_10
REMARK    6  A    between atoms: C_10  and  C_11
REMARK                            x       y       z     vdW  Elec       q    Type
REMARK                         _______ _______ _______ _____ _____    ______ ____
ROOT
ATOM      1  C   UNL     1      45.206   6.026  13.245  0.00  0.00    +0.000 C 
ENDROOT
BRANCH   1   2
ATOM      2  C   UNL     1      45.054   5.337  11.913  0.00  0.00    +0.000 A 
ATOM      3  C   UNL     1      44.286   4.174  11.810  0.00  0.00    +0.000 A 
ATOM      4  C   UNL     1      44.099   3.545  10.573  0.00  0.00    +0.000 A 
ATOM      5  C   UNL     1      44.688   4.053   9.406  0.00  0.00    +0.000 A 
ATOM      6  C   UNL     1      45.489   5.199   9.517  0.00  0.00    +0.000 A 
ATOM      7  C   UNL     1      45.675   5.831  10.756  0.00  0.00    +0.000 A 
BRANCH   5   8
ATOM      8  C   UNL     1      44.483   3.366   8.063  0.00  0.00    +0.000 C 
BRANCH   8   9
ATOM      9  C   UNL     1      45.223   2.026   7.981  0.00  0.00    +0.000 C 
BRANCH   9  10
ATOM     10  C   UNL     1      46.745   2.012   7.703  0.00  0.00    +0.000 C 
ATOM     11  C   UNL     1      47.286   3.183   6.865  0.00  0.00    +0.000 C 
ATOM     12  C   UNL     1      47.402   2.901   5.368  0.00  0.00    +0.000 C 
ATOM     13  N   UNL     1      48.071   1.630   5.094  0.00  0.00    +0.000 NA
ATOM     14  C   UNL     1      47.325   0.526   5.692  0.00  0.00    +0.000 C 
ATOM     15  C   UNL     1      47.267   0.654   7.209  0.00  0.00    +0.000 C 
ATOM     16  H   UNL     1      49.010   1.653   5.496  0.00  0.00    +0.000 HD
ENDBRANCH   9  10
ENDBRANCH   8   9
ENDBRANCH   5   8
ENDBRANCH   1   2
BRANCH   1  19
ATOM     17  O   UNL     1      47.698   4.795  13.856  0.00  0.00    +0.000 OA
ATOM     18  C   UNL     1      47.648   6.003  13.644  0.00  0.00    +0.000 C 
ATOM     19  N   UNL     1      46.482   6.670  13.380  0.00  0.00    +0.000 N 
ATOM     20  H   UNL     1      46.527   7.611  13.009  0.00  0.00    +0.000 HD
BRANCH  18  21
ATOM     21  C   UNL     1      48.849   6.847  13.709  0.00  0.00    +0.000 A 
ATOM     22  C   UNL     1      49.366   7.443  12.564  0.00  0.00    +0.000 A 
ATOM     23  S   UNL     1      50.753   8.394  12.867  0.00  0.00    +0.000 S 
ATOM     24  C   UNL     1      50.693   8.057  14.534  0.00  0.00    +0.000 A 
ATOM     25  N   UNL     1      51.596   8.592  15.400  0.00  0.00    +0.000 NA
ATOM     26  C   UNL     1      51.410   8.260  16.636  0.00  0.00    +0.000 A 
ATOM     27  N   UNL     1      50.417   7.440  17.091  0.00  0.00    +0.000 N 
ATOM     28  C   UNL     1      49.534   6.821  16.245  0.00  0.00    +0.000 A 
ATOM     29  O   UNL     1      48.749   5.977  16.677  0.00  0.00    +0.000 OA
ATOM     30  C   UNL     1      49.653   7.201  14.854  0.00  0.00    +0.000 A 
ATOM     31  H   UNL     1      50.349   7.177  18.061  0.00  0.00    +0.000 HD
ENDBRANCH  18  21
ENDBRANCH   1  19
TORSDOF 6
ENDMDL
MODEL 6
REMARK VINA RESULT:    -7.233      1.897      2.735
REMARK INTER + INTRA:         -10.707
REMARK INTER:                  -9.684
REMARK INTRA:                  -1.022
REMARK UNBOUND:                -0.936
REMARK  Name = 
REMARK  6 active torsions:
REMARK  status: ('A' for Active; 'I' for Inactive)
REMARK    1  A    between atoms: C_2  and  C_19
REMARK    2  A    between atoms: N_3  and  C_4
REMARK    3  A    between atoms: C_4  and  C_5
REMARK    4  A    between atoms: C_8  and  C_9
REMARK    5  A    between atoms: C_9  and  C_10
REMARK    6  A    between atoms: C_10  and  C_11
REMARK                            x       y       z     vdW  Elec       q    Type
REMARK                         _______ _______ _______ _____ _____    ______ ____
ROOT
ATOM      1  C   UNL     1      48.415   7.211  13.697  0.00  0.00    +0.000 C 
ENDROOT
BRANCH   1   2
ATOM      2  C   UNL     1      47.337   6.417  13.003  0.00  0.00    +0.000 A 
ATOM      3  C   UNL     1      46.829   5.258  13.599  0.00  0.00    +0.000 A 
ATOM      4  C   UNL     1      45.798   4.533  12.989  0.00  0.00    +0.000 A 
ATOM      5  C   UNL     1      45.257   4.936  11.760  0.00  0.00    +0.000 A 
ATOM      6  C   UNL     1      45.794   6.077  11.146  0.00  0.00    +0.000 A 
ATOM      7  C   UNL     1      46.825   6.806  11.758  0.00  0.00    +0.000 A 
BRANCH   5   8
ATOM      8  C   UNL     1      44.136   4.144  11.100  0.00  0.00    +0.000 C 
BRANCH   8   9
ATOM      9  C   UNL     1      44.633   2.811  10.526  0.00  0.00    +0.000 C 
BRANCH   9  10
ATOM     10  C   UNL     1      44.506   2.542   9.008  0.00  0.00    +0.000 C 
ATOM     11  C   UNL     1      45.253   1.305   8.480  0.00  0.00    +0.000 C 
ATOM     12  C   UNL     1      46.646   1.589   7.920  0.00  0.00    +0.000 C 
ATOM     13  N   UNL     1      46.649   2.715   6.987  0.00  0.00    +0.000 NA
ATOM     14  C   UNL     1      46.190   3.929   7.657  0.00  0.00    +0.000 C 
ATOM     15  C   UNL     1      44.752   3.785   8.141  0.00  0.00    +0.000 C 
ATOM     16  H   UNL     1      46.020   2.507   6.209  0.00  0.00    +0.000 HD
ENDBRANCH   9  10
ENDBRANCH   8   9
ENDBRANCH   5   8
ENDBRANCH   1   2
BRANCH   1  19
ATOM     17  O   UNL     1      50.474   6.677  15.587  0.00  0.00    +0.000 OA
ATOM     18  C   UNL     1      49.337   6.931  15.975  0.00  0.00    +0.000 C 
ATOM     19  N   UNL     1      48.289   7.162  15.126  0.00  0.00    +0.000 N 
ATOM     20  H   UNL     1      47.439   7.569  15.495  0.00  0.00    +0.000 HD
BRANCH  18  21
ATOM     21  C   UNL     1      48.999   6.956  17.405  0.00  0.00    +0.000 A 
ATOM     22  C   UNL     1      48.663   8.146  18.039  0.00  0.00    +0.000 A 
ATOM     23  S   UNL     1      48.289   7.947  19.694  0.00  0.00    +0.000 S 
ATOM     24  C   UNL     1      48.545   6.267  19.611  0.00  0.00    +0.000 A 
ATOM     25  N   UNL     1      48.366   5.466  20.696  0.00  0.00    +0.000 NA
ATOM     26  C   UNL     1      48.579   4.210  20.473  0.00  0.00    +0.000 A 
ATOM     27  N   UNL     1      48.961   3.676  19.275  0.00  0.00    +0.000 N 
ATOM     28  C   UNL     1      49.226   4.455  18.178  0.00  0.00    +0.000 A 
ATOM     29  O   UNL     1      49.708   3.953  17.163  0.00  0.00    +0.000 OA
ATOM     30  C   UNL     1      48.946   5.864  18.348  0.00  0.00    +0.000 A 
ATOM     31  H   UNL     1      49.160   2.694  19.171  0.00  0.00    +0.000 HD
ENDBRANCH  18  21
ENDBRANCH   1  19
TORSDOF 6
ENDMDL
MODEL 7
REMARK VINA RESULT:    -7.051      2.524      3.640
REMARK INTER + INTRA:         -10.460
REMARK INTER:                  -9.388
REMARK INTRA:                  -1.073
REMARK UNBOUND:                -0.936
REMARK  Name = 
REMARK  6 active torsions:
REMARK  status: ('A' for Active; 'I' for Inactive)
REMARK    1  A    between atoms: C_2  and  C_19
REMARK    2  A    between atoms: N_3  and  C_4
REMARK    3  A    between atoms: C_4  and  C_5
REMARK    4  A    between atoms: C_8  and  C_9
REMARK    5  A    between atoms: C_9  and  C_10
REMARK    6  A    between atoms: C_10  and  C_11
REMARK                            x       y       z     vdW  Elec       q    Type
REMARK                         _______ _______ _______ _____ _____    ______ ____
ROOT
ATOM      1  C   UNL     1      48.300   6.931  14.395  0.00  0.00    +0.000 C 
ENDROOT
BRANCH   1   2
ATOM      2  C   UNL     1      47.281   6.206  13.553  0.00  0.00    +0.000 A 
ATOM      3  C   UNL     1      46.720   6.836  12.438  0.00  0.00    +0.000 A 
ATOM      4  C   UNL     1      45.805   6.162  11.620  0.00  0.00    +0.000 A 
ATOM      5  C   UNL     1      45.413   4.845  11.902  0.00  0.00    +0.000 A 
ATOM      6  C   UNL     1      45.949   4.228  13.042  0.00  0.00    +0.000 A 
ATOM      7  C   UNL     1      46.868   4.902  13.861  0.00  0.00    +0.000 A 
BRANCH   5   8
ATOM      8  C   UNL     1      44.416   4.117  11.010  0.00  0.00    +0.000 C 
BRANCH   8   9
ATOM      9  C   UNL     1      44.997   2.818  10.438  0.00  0.00    +0.000 C 
BRANCH   9  10
ATOM     10  C   UNL     1      44.772   2.475   8.947  0.00  0.00    +0.000 C 
ATOM     11  C   UNL     1      45.480   1.211   8.432  0.00  0.00    +0.000 C 
ATOM     12  C   UNL     1      46.834   1.459   7.769  0.00  0.00    +0.000 C 
ATOM     13  N   UNL     1      46.779   2.538   6.784  0.00  0.00    +0.000 NA
ATOM     14  C   UNL     1      46.367   3.786   7.422  0.00  0.00    +0.000 C 
ATOM     15  C   UNL     1      44.964   3.673   8.005  0.00  0.00    +0.000 C 
ATOM     16  H   UNL     1      46.100   2.295   6.060  0.00  0.00    +0.000 HD
ENDBRANCH   9  10
ENDBRANCH   8   9
ENDBRANCH   5   8
ENDBRANCH   1   2
BRANCH   1  19
ATOM     17  O   UNL     1      50.364   6.068  16.154  0.00  0.00    +0.000 OA
ATOM     18  C   UNL     1      49.225   6.234  16.582  0.00  0.00    +0.000 C 
ATOM     19  N   UNL     1      48.175   6.613  15.790  0.00  0.00    +0.000 N 
ATOM     20  H   UNL     1      47.321   6.935  16.227  0.00  0.00    +0.000 HD
BRANCH  18  21
ATOM     21  C   UNL     1      48.887   5.986  17.990  0.00  0.00    +0.000 A 
ATOM     22  C   UNL     1      49.130   4.750  18.576  0.00  0.00    +0.000 A 
ATOM     23  S   UNL     1      48.680   4.683  20.223  0.00  0.00    +0.000 S 
ATOM     24  C   UNL     1      48.166   6.306  20.209  0.00  0.00    +0.000 A 
ATOM     25  N   UNL     1      47.681   6.908  21.329  0.00  0.00    +0.000 NA
ATOM     26  C   UNL     1      47.351   8.147  21.168  0.00  0.00    +0.000 A 
ATOM     27  N   UNL     1      47.447   8.843  19.996  0.00  0.00    +0.000 N 
ATOM     28  C   UNL     1      47.857   8.254  18.828  0.00  0.00    +0.000 A 
ATOM     29  O   UNL     1      47.791   8.872  17.765  0.00  0.00    +0.000 OA
ATOM     30  C   UNL     1      48.300   6.883  18.958  0.00  0.00    +0.000 A 
ATOM     31  H   UNL     1      47.128   9.795  19.916  0.00  0.00    +0.000 HD
ENDBRANCH  18  21
ENDBRANCH   1  19
TORSDOF 6
ENDMDL
MODEL 8
REMARK VINA RESULT:    -7.031      4.449     10.091
REMARK INTER + INTRA:         -10.434
REMARK INTER:                  -9.260
REMARK INTRA:                  -1.174
REMARK UNBOUND:                -0.936
REMARK  Name = 
REMARK  6 active torsions:
REMARK  status: ('A' for Active; 'I' for Inactive)
REMARK    1  A    between atoms: C_2  and  C_19
REMARK    2  A    between atoms: N_3  and  C_4
REMARK    3  A    between atoms: C_4  and  C_5
REMARK    4  A    between atoms: C_8  and  C_9
REMARK    5  A    between atoms: C_9  and  C_10
REMARK    6  A    between atoms: C_10  and  C_11
REMARK                            x       y       z     vdW  Elec       q    Type
REMARK                         _______ _______ _______ _____ _____    ______ ____
ROOT
ATOM      1  C   UNL     1      47.576   3.627  16.416  0.00  0.00    +0.000 C 
ENDROOT
BRANCH   1   2
ATOM      2  C   UNL     1      47.799   4.253  17.769  0.00  0.00    +0.000 A 
ATOM      3  C   UNL     1      46.996   5.318  18.188  0.00  0.00    +0.000 A 
ATOM      4  C   UNL     1      47.161   5.883  19.459  0.00  0.00    +0.000 A 
ATOM      5  C   UNL     1      48.144   5.410  20.340  0.00  0.00    +0.000 A 
ATOM      6  C   UNL     1      48.973   4.366  19.903  0.00  0.00    +0.000 A 
ATOM      7  C   UNL     1      48.807   3.798  18.631  0.00  0.00    +0.000 A 
BRANCH   5   8
ATOM      8  C   UNL     1      48.320   6.027  21.721  0.00  0.00    +0.000 C 
BRANCH   8   9
ATOM      9  C   UNL     1      47.359   7.199  21.956  0.00  0.00    +0.000 C 
BRANCH   9  10
ATOM     10  C   UNL     1      47.873   8.649  21.797  0.00  0.00    +0.000 C 
ATOM     11  C   UNL     1      46.877   9.654  21.193  0.00  0.00    +0.000 C 
ATOM     12  C   UNL     1      47.004   9.855  19.684  0.00  0.00    +0.000 C 
ATOM     13  N   UNL     1      48.387  10.087  19.271  0.00  0.00    +0.000 NA
ATOM     14  C   UNL     1      49.222   8.944  19.633  0.00  0.00    +0.000 C 
ATOM     15  C   UNL     1      49.260   8.742  21.143  0.00  0.00    +0.000 C 
ATOM     16  H   UNL     1      48.743  10.920  19.744  0.00  0.00    +0.000 HD
ENDBRANCH   9  10
ENDBRANCH   8   9
ENDBRANCH   5   8
ENDBRANCH   1   2
BRANCH   1  19
ATOM     17  O   UNL     1      46.997   3.157  13.670  0.00  0.00    +0.000 OA
ATOM     18  C   UNL     1      46.714   4.238  14.179  0.00  0.00    +0.000 C 
ATOM     19  N   UNL     1      46.994   4.549  15.481  0.00  0.00    +0.000 N 
ATOM     20  H   UNL     1      46.554   5.360  15.898  0.00  0.00    +0.000 HD
BRANCH  18  21
ATOM     21  C   UNL     1      46.087   5.315  13.400  0.00  0.00    +0.000 A 
ATOM     22  C   UNL     1      46.765   6.503  13.150  0.00  0.00    +0.000 A 
ATOM     23  S   UNL     1      45.863   7.611  12.213  0.00  0.00    +0.000 S 
ATOM     24  C   UNL     1      44.550   6.533  12.097  0.00  0.00    +0.000 A 
ATOM     25  N   UNL     1      43.430   6.851  11.392  0.00  0.00    +0.000 NA
ATOM     26  C   UNL     1      42.529   5.924  11.377  0.00  0.00    +0.000 A 
ATOM     27  N   UNL     1      42.631   4.715  12.005  0.00  0.00    +0.000 N 
ATOM     28  C   UNL     1      43.708   4.386  12.787  0.00  0.00    +0.000 A 
ATOM     29  O   UNL     1      43.697   3.350  13.452  0.00  0.00    +0.000 OA
ATOM     30  C   UNL     1      44.779   5.358  12.792  0.00  0.00    +0.000 A 
ATOM     31  H   UNL     1      41.875   4.049  12.000  0.00  0.00    +0.000 HD
ENDBRANCH  18  21
ENDBRANCH   1  19
TORSDOF 6
ENDMDL
MODEL 9
REMARK VINA RESULT:    -6.943      4.041      8.412
REMARK INTER + INTRA:         -10.314
REMARK INTER:                  -8.808
REMARK INTRA:                  -1.507
REMARK UNBOUND:                -0.936
REMARK  Name = 
REMARK  6 active torsions:
REMARK  status: ('A' for Active; 'I' for Inactive)
REMARK    1  A    between atoms: C_2  and  C_19
REMARK    2  A    between atoms: N_3  and  C_4
REMARK    3  A    between atoms: C_4  and  C_5
REMARK    4  A    between atoms: C_8  and  C_9
REMARK    5  A    between atoms: C_9  and  C_10
REMARK    6  A    between atoms: C_10  and  C_11
REMARK                            x       y       z     vdW  Elec       q    Type
REMARK                         _______ _______ _______ _____ _____    ______ ____
ROOT
ATOM      1  C   UNL     1      47.785   8.988  13.802  0.00  0.00    +0.000 C 
ENDROOT
BRANCH   1   2
ATOM      2  C   UNL     1      48.466   8.376  14.999  0.00  0.00    +0.000 A 
ATOM      3  C   UNL     1      49.180   7.182  14.863  0.00  0.00    +0.000 A 
ATOM      4  C   UNL     1      49.855   6.622  15.955  0.00  0.00    +0.000 A 
ATOM      5  C   UNL     1      49.821   7.231  17.218  0.00  0.00    +0.000 A 
ATOM      6  C   UNL     1      49.073   8.409  17.361  0.00  0.00    +0.000 A 
ATOM      7  C   UNL     1      48.399   8.972  16.267  0.00  0.00    +0.000 A 
BRANCH   5   8
ATOM      8  C   UNL     1      50.555   6.618  18.402  0.00  0.00    +0.000 C 
BRANCH   8   9
ATOM      9  C   UNL     1      50.556   5.086  18.350  0.00  0.00    +0.000 C 
BRANCH   9  10
ATOM     10  C   UNL     1      49.330   4.305  18.878  0.00  0.00    +0.000 C 
ATOM     11  C   UNL     1      48.442   3.644  17.810  0.00  0.00    +0.000 C 
ATOM     12  C   UNL     1      47.238   4.475  17.373  0.00  0.00    +0.000 C 
ATOM     13  N   UNL     1      46.486   5.002  18.511  0.00  0.00    +0.000 NA
ATOM     14  C   UNL     1      47.339   5.861  19.328  0.00  0.00    +0.000 C 
ATOM     15  C   UNL     1      48.508   5.081  19.918  0.00  0.00    +0.000 C 
ATOM     16  H   UNL     1      46.155   4.222  19.083  0.00  0.00    +0.000 HD
ENDBRANCH   9  10
ENDBRANCH   8   9
ENDBRANCH   5   8
ENDBRANCH   1   2
BRANCH   1  19
ATOM     17  O   UNL     1      47.669   7.116  11.662  0.00  0.00    +0.000 OA
ATOM     18  C   UNL     1      46.675   7.316  12.356  0.00  0.00    +0.000 C 
ATOM     19  N   UNL     1      46.645   8.225  13.378  0.00  0.00    +0.000 N 
ATOM     20  H   UNL     1      45.880   8.195  14.040  0.00  0.00    +0.000 HD
BRANCH  18  21
ATOM     21  C   UNL     1      45.407   6.617  12.104  0.00  0.00    +0.000 A 
ATOM     22  C   UNL     1      44.310   7.294  11.586  0.00  0.00    +0.000 A 
ATOM     23  S   UNL     1      42.946   6.290  11.355  0.00  0.00    +0.000 S 
ATOM     24  C   UNL     1      43.784   4.921  11.920  0.00  0.00    +0.000 A 
ATOM     25  N   UNL     1      43.196   3.694  11.960  0.00  0.00    +0.000 NA
ATOM     26  C   UNL     1      43.965   2.749  12.394  0.00  0.00    +0.000 A 
ATOM     27  N   UNL     1      45.259   2.909  12.799  0.00  0.00    +0.000 N 
ATOM     28  C   UNL     1      45.864   4.138  12.846  0.00  0.00    +0.000 A 
ATOM     29  O   UNL     1      46.979   4.262  13.354  0.00  0.00    +0.000 OA
ATOM     30  C   UNL     1      45.075   5.228  12.314  0.00  0.00    +0.000 A 
ATOM     31  H   UNL     1      45.796   2.144  13.174  0.00  0.00    +0.000 HD
ENDBRANCH  18  21
ENDBRANCH   1  19
TORSDOF 6
ENDMDL
