MODEL 1
REMARK VINA RESULT:    -7.432      0.000      0.000
REMARK INTER + INTRA:         -12.950
REMARK INTER:                 -11.777
REMARK INTRA:                  -1.173
REMARK UNBOUND:                -1.173
REMARK  Name = 
REMARK  11 active torsions:
REMARK  status: ('A' for Active; 'I' for Inactive)
REMARK    1  A    between atoms: C_1  and  O_2
REMARK    2  A    between atoms: O_2  and  C_3
REMARK    3  A    between atoms: C_3  and  C_4
REMARK    4  A    between atoms: C_4  and  N_5
REMARK    5  A    between atoms: N_5  and  C_6
REMARK    6  A    between atoms: C_6  and  C_7
REMARK    7  A    between atoms: C_11  and  C_12
REMARK    8  A    between atoms: C_12  and  C_13
REMARK    9  A    between atoms: C_16  and  C_17
REMARK   10  A    between atoms: C_17  and  N_18
REMARK   11  A    between atoms: C_19  and  C_21
REMARK                            x       y       z     vdW  Elec       q    Type
REMARK                         _______ _______ _______ _____ _____    ______ ____
ROOT
ATOM      1  C   UNL     1      44.900   6.342  11.294  0.00  0.00    +0.000 A 
ATOM      2  C   UNL     1      46.035   5.684  11.788  0.00  0.00    +0.000 A 
ATOM      3  C   UNL     1      46.939   6.348  12.622  0.00  0.00    +0.000 A 
ATOM      4  C   UNL     1      46.727   7.687  12.972  0.00  0.00    +0.000 A 
ATOM      5  C   UNL     1      45.639   8.368  12.411  0.00  0.00    +0.000 A 
ATOM      6  C   UNL     1      44.726   7.699  11.591  0.00  0.00    +0.000 A 
ENDROOT
BRANCH   1   7
ATOM      7  C   UNL     1      43.857   5.582  10.502  0.00  0.00    +0.000 C 
BRANCH   7  12
ATOM      8  C   UNL     1      45.739   3.510   8.079  0.00  0.00    +0.000 A 
ATOM      9  C   UNL     1      45.451   2.199   8.447  0.00  0.00    +0.000 A 
ATOM     10  C   UNL     1      44.582   1.981   9.507  0.00  0.00    +0.000 A 
ATOM     11  C   UNL     1      44.038   3.073  10.175  0.00  0.00    +0.000 A 
ATOM     12  C   UNL     1      44.385   4.363   9.772  0.00  0.00    +0.000 A 
ATOM     13  N   UNL     1      45.234   4.587   8.738  0.00  0.00    +0.000 NA
BRANCH   8  14
ATOM     14  C   UNL     1      46.534   3.782   6.818  0.00  0.00    +0.000 C 
BRANCH  14  15
ATOM     15  N   UNL     1      47.633   2.822   6.594  0.00  0.00    +0.000 NA
ATOM     16  H   UNL     1      48.506   3.276   6.856  0.00  0.00    +0.000 HD
BRANCH  15  17
ATOM     17  C   UNL     1      47.709   2.430   5.177  0.00  0.00    +0.000 C 
BRANCH  17  18
ATOM     18  C   UNL     1      47.391   0.943   5.000  0.00  0.00    +0.000 C 
BRANCH  18  20
ATOM     19  C   UNL     1      46.088   0.559   3.080  0.00  0.00    +0.000 C 
ATOM     20  O   UNL     1      47.406   0.628   3.607  0.00  0.00    +0.000 OA
ENDBRANCH  18  20
ENDBRANCH  17  18
ENDBRANCH  15  17
ENDBRANCH  14  15
ENDBRANCH   8  14
ENDBRANCH   7  12
ENDBRANCH   1   7
BRANCH   4  21
ATOM     21  C   UNL     1      47.652   8.389  13.932  0.00  0.00    +0.000 C 
BRANCH  21  22
ATOM     22  N   UNL     1      47.911   7.588  15.098  0.00  0.00    +0.000 N 
ATOM     23  C   UNL     1      49.143   7.023  15.309  0.00  0.00    +0.000 C 
ATOM     24  O   UNL     1      50.089   7.213  14.549  0.00  0.00    +0.000 OA
ATOM     25  H   UNL     1      47.103   7.218  15.588  0.00  0.00    +0.000 HD
BRANCH  23  26
ATOM     26  C   UNL     1      49.293   6.231  16.535  0.00  0.00    +0.000 A 
ATOM     27  C   UNL     1      50.255   6.585  17.472  0.00  0.00    +0.000 A 
ATOM     28  S   UNL     1      50.254   5.593  18.859  0.00  0.00    +0.000 S 
ATOM     29  C   UNL     1      49.004   4.622  18.231  0.00  0.00    +0.000 A 
ATOM     30  N   UNL     1      48.535   3.549  18.922  0.00  0.00    +0.000 NA
ATOM     31  C   UNL     1      47.605   2.889  18.314  0.00  0.00    +0.000 A 
ATOM     32  N   UNL     1      47.099   3.203  17.085  0.00  0.00    +0.000 N 
ATOM     33  C   UNL     1      47.526   4.290  16.358  0.00  0.00    +0.000 A 
ATOM     34  O   UNL     1      47.025   4.568  15.273  0.00  0.00    +0.000 OA
ATOM     35  C   UNL     1      48.579   5.062  16.990  0.00  0.00    +0.000 A 
ATOM     36  H   UNL     1      46.366   2.650  16.667  0.00  0.00    +0.000 HD
ENDBRANCH  23  26
ENDBRANCH  21  22
ENDBRANCH   4  21
TORSDOF 10
ENDMDL
MODEL 2
REMARK VINA RESULT:    -6.993      3.174      9.148
REMARK INTER + INTRA:         -12.255
REMARK INTER:                 -10.527
REMARK INTRA:                  -1.728
REMARK UNBOUND:                -1.173
REMARK  Name = 
REMARK  11 active torsions:
REMARK  status: ('A' for Active; 'I' for Inactive)
REMARK    1  A    between atoms: C_1  and  O_2
REMARK    2  A    between atoms: O_2  and  C_3
REMARK    3  A    between atoms: C_3  and  C_4
REMARK    4  A    between atoms: C_4  and  N_5
REMARK    5  A    between atoms: N_5  and  C_6
REMARK    6  A    between atoms: C_6  and  C_7
REMARK    7  A    between atoms: C_11  and  C_12
REMARK    8  A    between atoms: C_12  and  C_13
REMARK    9  A    between atoms: C_16  and  C_17
REMARK   10  A    between atoms: C_17  and  N_18
REMARK   11  A    between atoms: C_19  and  C_21
REMARK                            x       y       z     vdW  Elec       q    Type
REMARK                         _______ _______ _______ _____ _____    ______ ____
ROOT
ATOM      1  C   UNL     1      49.586   8.478  15.682  0.00  0.00    +0.000 A 
ATOM      2  C   UNL     1      48.948   9.567  15.072  0.00  0.00    +0.000 A 
ATOM      3  C   UNL     1      48.395   9.447  13.795  0.00  0.00    +0.000 A 
ATOM      4  C   UNL     1      48.476   8.234  13.099  0.00  0.00    +0.000 A 
ATOM      5  C   UNL     1      49.187   7.172  13.673  0.00  0.00    +0.000 A 
ATOM      6  C   UNL     1      49.725   7.287  14.958  0.00  0.00    +0.000 A 
ENDROOT
BRANCH   1   7
ATOM      7  C   UNL     1      50.065   8.573  17.115  0.00  0.00    +0.000 C 
BRANCH   7  12
ATOM      8  C   UNL     1      48.926   5.928  19.441  0.00  0.00    +0.000 A 
ATOM      9  C   UNL     1      47.753   6.434  19.994  0.00  0.00    +0.000 A 
ATOM     10  C   UNL     1      47.297   7.673  19.567  0.00  0.00    +0.000 A 
ATOM     11  C   UNL     1      48.028   8.375  18.614  0.00  0.00    +0.000 A 
ATOM     12  C   UNL     1      49.209   7.823  18.116  0.00  0.00    +0.000 A 
ATOM     13  N   UNL     1      49.664   6.613  18.527  0.00  0.00    +0.000 NA
BRANCH   8  14
ATOM     14  C   UNL     1      49.351   4.506  19.747  0.00  0.00    +0.000 C 
BRANCH  14  15
ATOM     15  N   UNL     1      48.375   3.490  19.308  0.00  0.00    +0.000 NA
ATOM     16  H   UNL     1      48.511   2.656  19.876  0.00  0.00    +0.000 HD
BRANCH  15  17
ATOM     17  C   UNL     1      48.583   3.138  17.893  0.00  0.00    +0.000 C 
BRANCH  17  18
ATOM     18  C   UNL     1      47.380   3.551  17.041  0.00  0.00    +0.000 C 
BRANCH  18  20
ATOM     19  C   UNL     1      47.067   4.303  14.835  0.00  0.00    +0.000 C 
ATOM     20  O   UNL     1      47.689   3.332  15.664  0.00  0.00    +0.000 OA
ENDBRANCH  18  20
ENDBRANCH  17  18
ENDBRANCH  15  17
ENDBRANCH  14  15
ENDBRANCH   8  14
ENDBRANCH   7  12
ENDBRANCH   1   7
BRANCH   4  21
ATOM     21  C   UNL     1      47.817   8.070  11.754  0.00  0.00    +0.000 C 
BRANCH  21  22
ATOM     22  N   UNL     1      47.055   6.852  11.685  0.00  0.00    +0.000 N 
ATOM     23  C   UNL     1      45.683   6.872  11.709  0.00  0.00    +0.000 C 
ATOM     24  O   UNL     1      45.045   7.921  11.741  0.00  0.00    +0.000 OA
ATOM     25  H   UNL     1      47.545   5.993  11.911  0.00  0.00    +0.000 HD
BRANCH  23  26
ATOM     26  C   UNL     1      45.014   5.569  11.627  0.00  0.00    +0.000 A 
ATOM     27  C   UNL     1      44.314   5.084  12.724  0.00  0.00    +0.000 A 
ATOM     28  S   UNL     1      43.552   3.585  12.438  0.00  0.00    +0.000 S 
ATOM     29  C   UNL     1      44.177   3.507  10.856  0.00  0.00    +0.000 A 
ATOM     30  N   UNL     1      43.921   2.440  10.053  0.00  0.00    +0.000 NA
ATOM     31  C   UNL     1      44.481   2.503   8.890  0.00  0.00    +0.000 A 
ATOM     32  N   UNL     1      45.264   3.533   8.454  0.00  0.00    +0.000 N 
ATOM     33  C   UNL     1      45.532   4.643   9.221  0.00  0.00    +0.000 A 
ATOM     34  O   UNL     1      46.210   5.569   8.786  0.00  0.00    +0.000 OA
ATOM     35  C   UNL     1      44.937   4.620  10.544  0.00  0.00    +0.000 A 
ATOM     36  H   UNL     1      45.666   3.526   7.529  0.00  0.00    +0.000 HD
ENDBRANCH  23  26
ENDBRANCH  21  22
ENDBRANCH   4  21
TORSDOF 10
ENDMDL
MODEL 3
REMARK VINA RESULT:    -6.810      1.590      2.398
REMARK INTER + INTRA:         -11.964
REMARK INTER:                 -10.521
REMARK INTRA:                  -1.443
REMARK UNBOUND:                -1.173
REMARK  Name = 
REMARK  11 active torsions:
REMARK  status: ('A' for Active; 'I' for Inactive)
REMARK    1  A    between atoms: C_1  and  O_2
REMARK    2  A    between atoms: O_2  and  C_3
REMARK    3  A    between atoms: C_3  and  C_4
REMARK    4  A    between atoms: C_4  and  N_5
REMARK    5  A    between atoms: N_5  and  C_6
REMARK    6  A    between atoms: C_6  and  C_7
REMARK    7  A    between atoms: C_11  and  C_12
REMARK    8  A    between atoms: C_12  and  C_13
REMARK    9  A    between atoms: C_16  and  C_17
REMARK   10  A    between atoms: C_17  and  N_18
REMARK   11  A    between atoms: C_19  and  C_21
REMARK                            x       y       z     vdW  Elec       q    Type
REMARK                         _______ _______ _______ _____ _____    ______ ____
ROOT
ATOM      1  C   UNL     1      45.935   7.591  11.953  0.00  0.00    +0.000 A 
ATOM      2  C   UNL     1      47.076   6.827  11.673  0.00  0.00    +0.000 A 
ATOM      3  C   UNL     1      48.292   7.102  12.303  0.00  0.00    +0.000 A 
ATOM      4  C   UNL     1      48.392   8.154  13.222  0.00  0.00    +0.000 A 
ATOM      5  C   UNL     1      47.273   8.970  13.439  0.00  0.00    +0.000 A 
ATOM      6  C   UNL     1      46.052   8.683  12.822  0.00  0.00    +0.000 A 
ENDROOT
BRANCH   1   7
ATOM      7  C   UNL     1      44.592   7.206  11.371  0.00  0.00    +0.000 C 
BRANCH   7  12
ATOM      8  C   UNL     1      44.175   3.581  10.746  0.00  0.00    +0.000 A 
ATOM      9  C   UNL     1      43.612   3.089  11.921  0.00  0.00    +0.000 A 
ATOM     10  C   UNL     1      43.325   3.980  12.945  0.00  0.00    +0.000 A 
ATOM     11  C   UNL     1      43.620   5.329  12.774  0.00  0.00    +0.000 A 
ATOM     12  C   UNL     1      44.206   5.754  11.582  0.00  0.00    +0.000 A 
ATOM     13  N   UNL     1      44.491   4.892  10.574  0.00  0.00    +0.000 NA
BRANCH   8  14
ATOM     14  C   UNL     1      44.329   2.669   9.545  0.00  0.00    +0.000 C 
BRANCH  14  15
ATOM     15  N   UNL     1      45.116   3.265   8.448  0.00  0.00    +0.000 NA
ATOM     16  H   UNL     1      44.481   3.464   7.677  0.00  0.00    +0.000 HD
BRANCH  15  17
ATOM     17  C   UNL     1      46.155   2.333   7.979  0.00  0.00    +0.000 C 
BRANCH  17  18
ATOM     18  C   UNL     1      47.213   3.061   7.147  0.00  0.00    +0.000 C 
BRANCH  18  20
ATOM     19  C   UNL     1      47.404   0.860   6.342  0.00  0.00    +0.000 C 
ATOM     20  O   UNL     1      48.076   2.095   6.545  0.00  0.00    +0.000 OA
ENDBRANCH  18  20
ENDBRANCH  17  18
ENDBRANCH  15  17
ENDBRANCH  14  15
ENDBRANCH   8  14
ENDBRANCH   7  12
ENDBRANCH   1   7
BRANCH   4  21
ATOM     21  C   UNL     1      49.677   8.411  13.965  0.00  0.00    +0.000 C 
BRANCH  21  22
ATOM     22  N   UNL     1      49.762   7.621  15.164  0.00  0.00    +0.000 N 
ATOM     23  C   UNL     1      49.362   8.125  16.375  0.00  0.00    +0.000 C 
ATOM     24  O   UNL     1      48.871   9.246  16.487  0.00  0.00    +0.000 OA
ATOM     25  H   UNL     1      50.382   6.818  15.138  0.00  0.00    +0.000 HD
BRANCH  23  26
ATOM     26  C   UNL     1      49.490   7.226  17.527  0.00  0.00    +0.000 A 
ATOM     27  C   UNL     1      50.101   7.678  18.689  0.00  0.00    +0.000 A 
ATOM     28  S   UNL     1      50.115   6.524  19.945  0.00  0.00    +0.000 S 
ATOM     29  C   UNL     1      49.354   5.363  18.960  0.00  0.00    +0.000 A 
ATOM     30  N   UNL     1      49.090   4.113  19.427  0.00  0.00    +0.000 NA
ATOM     31  C   UNL     1      48.533   3.329  18.563  0.00  0.00    +0.000 A 
ATOM     32  N   UNL     1      48.212   3.679  17.283  0.00  0.00    +0.000 N 
ATOM     33  C   UNL     1      48.438   4.936  16.774  0.00  0.00    +0.000 A 
ATOM     34  O   UNL     1      48.103   5.231  15.630  0.00  0.00    +0.000 OA
ATOM     35  C   UNL     1      49.073   5.856  17.699  0.00  0.00    +0.000 A 
ATOM     36  H   UNL     1      47.770   3.020  16.659  0.00  0.00    +0.000 HD
ENDBRANCH  23  26
ENDBRANCH  21  22
ENDBRANCH   4  21
TORSDOF 10
ENDMDL
MODEL 4
REMARK VINA RESULT:    -6.563      5.561     10.458
REMARK INTER + INTRA:         -11.572
REMARK INTER:                 -10.701
REMARK INTRA:                  -0.872
REMARK UNBOUND:                -1.173
REMARK  Name = 
REMARK  11 active torsions:
REMARK  status: ('A' for Active; 'I' for Inactive)
REMARK    1  A    between atoms: C_1  and  O_2
REMARK    2  A    between atoms: O_2  and  C_3
REMARK    3  A    between atoms: C_3  and  C_4
REMARK    4  A    between atoms: C_4  and  N_5
REMARK    5  A    between atoms: N_5  and  C_6
REMARK    6  A    between atoms: C_6  and  C_7
REMARK    7  A    between atoms: C_11  and  C_12
REMARK    8  A    between atoms: C_12  and  C_13
REMARK    9  A    between atoms: C_16  and  C_17
REMARK   10  A    between atoms: C_17  and  N_18
REMARK   11  A    between atoms: C_19  and  C_21
REMARK                            x       y       z     vdW  Elec       q    Type
REMARK                         _______ _______ _______ _____ _____    ______ ____
ROOT
ATOM      1  C   UNL     1      51.811   3.015  17.824  0.00  0.00    +0.000 A 
ATOM      2  C   UNL     1      51.180   4.261  17.938  0.00  0.00    +0.000 A 
ATOM      3  C   UNL     1      49.821   4.403  17.647  0.00  0.00    +0.000 A 
ATOM      4  C   UNL     1      49.067   3.299  17.229  0.00  0.00    +0.000 A 
ATOM      5  C   UNL     1      49.716   2.073  17.034  0.00  0.00    +0.000 A 
ATOM      6  C   UNL     1      51.071   1.927  17.343  0.00  0.00    +0.000 A 
ENDROOT
BRANCH   1   7
ATOM      7  C   UNL     1      53.247   2.839  18.268  0.00  0.00    +0.000 C 
BRANCH   7  12
ATOM      8  C   UNL     1      54.132  -0.755  18.213  0.00  0.00    +0.000 A 
ATOM      9  C   UNL     1      54.932  -0.898  17.082  0.00  0.00    +0.000 A 
ATOM     10  C   UNL     1      55.223   0.228  16.327  0.00  0.00    +0.000 A 
ATOM     11  C   UNL     1      54.698   1.458  16.711  0.00  0.00    +0.000 A 
ATOM     12  C   UNL     1      53.883   1.530  17.841  0.00  0.00    +0.000 A 
ATOM     13  N   UNL     1      53.592   0.435  18.587  0.00  0.00    +0.000 NA
BRANCH   8  14
ATOM     14  C   UNL     1      53.947  -1.926  19.158  0.00  0.00    +0.000 C 
BRANCH  14  15
ATOM     15  N   UNL     1      53.557  -3.177  18.479  0.00  0.00    +0.000 NA
ATOM     16  H   UNL     1      52.957  -2.935  17.692  0.00  0.00    +0.000 HD
BRANCH  15  17
ATOM     17  C   UNL     1      52.808  -4.058  19.391  0.00  0.00    +0.000 C 
BRANCH  17  18
ATOM     18  C   UNL     1      52.749  -5.488  18.849  0.00  0.00    +0.000 C 
BRANCH  18  20
ATOM     19  C   UNL     1      52.535  -6.024  16.569  0.00  0.00    +0.000 C 
ATOM     20  O   UNL     1      51.873  -5.521  17.721  0.00  0.00    +0.000 OA
ENDBRANCH  18  20
ENDBRANCH  17  18
ENDBRANCH  15  17
ENDBRANCH  14  15
ENDBRANCH   8  14
ENDBRANCH   7  12
ENDBRANCH   1   7
BRANCH   4  21
ATOM     21  C   UNL     1      47.585   3.423  16.987  0.00  0.00    +0.000 C 
BRANCH  21  22
ATOM     22  N   UNL     1      47.289   4.463  16.038  0.00  0.00    +0.000 N 
ATOM     23  C   UNL     1      47.195   4.192  14.697  0.00  0.00    +0.000 C 
ATOM     24  O   UNL     1      47.306   3.053  14.250  0.00  0.00    +0.000 OA
ATOM     25  H   UNL     1      47.444   5.418  16.344  0.00  0.00    +0.000 HD
BRANCH  23  26
ATOM     26  C   UNL     1      46.884   5.330  13.826  0.00  0.00    +0.000 A 
ATOM     27  C   UNL     1      47.811   6.353  13.670  0.00  0.00    +0.000 A 
ATOM     28  S   UNL     1      47.312   7.566  12.581  0.00  0.00    +0.000 S 
ATOM     29  C   UNL     1      45.816   6.795  12.321  0.00  0.00    +0.000 A 
ATOM     30  N   UNL     1      44.882   7.338  11.496  0.00  0.00    +0.000 NA
ATOM     31  C   UNL     1      43.786   6.658  11.414  0.00  0.00    +0.000 A 
ATOM     32  N   UNL     1      43.539   5.488  12.073  0.00  0.00    +0.000 N 
ATOM     33  C   UNL     1      44.462   4.889  12.900  0.00  0.00    +0.000 A 
ATOM     34  O   UNL     1      44.224   3.818  13.450  0.00  0.00    +0.000 OA
ATOM     35  C   UNL     1      45.709   5.617  13.038  0.00  0.00    +0.000 A 
ATOM     36  H   UNL     1      42.663   5.001  11.960  0.00  0.00    +0.000 HD
ENDBRANCH  23  26
ENDBRANCH  21  22
ENDBRANCH   4  21
TORSDOF 10
ENDMDL
MODEL 5
REMARK VINA RESULT:    -6.347      4.219      9.009
REMARK INTER + INTRA:         -11.230
REMARK INTER:                  -9.921
REMARK INTRA:                  -1.309
REMARK UNBOUND:                -1.173
REMARK  Name = 
REMARK  11 active torsions:
REMARK  status: ('A' for Active; 'I' for Inactive)
REMARK    1  A    between atoms: C_1  and  O_2
REMARK    2  A    between atoms: O_2  and  C_3
REMARK    3  A    between atoms: C_3  and  C_4
REMARK    4  A    between atoms: C_4  and  N_5
REMARK    5  A    between atoms: N_5  and  C_6
REMARK    6  A    between atoms: C_6  and  C_7
REMARK    7  A    between atoms: C_11  and  C_12
REMARK    8  A    between atoms: C_12  and  C_13
REMARK    9  A    between atoms: C_16  and  C_17
REMARK   10  A    between atoms: C_17  and  N_18
REMARK   11  A    between atoms: C_19  and  C_21
REMARK                            x       y       z     vdW  Elec       q    Type
REMARK                         _______ _______ _______ _____ _____    ______ ____
ROOT
ATOM      1  C   UNL     1      48.473   8.055  16.657  0.00  0.00    +0.000 A 
ATOM      2  C   UNL     1      48.791   6.843  16.030  0.00  0.00    +0.000 A 
ATOM      3  C   UNL     1      48.842   6.753  14.636  0.00  0.00    +0.000 A 
ATOM      4  C   UNL     1      48.568   7.874  13.843  0.00  0.00    +0.000 A 
ATOM      5  C   UNL     1      48.168   9.063  14.468  0.00  0.00    +0.000 A 
ATOM      6  C   UNL     1      48.135   9.158  15.862  0.00  0.00    +0.000 A 
ENDROOT
BRANCH   1   7
ATOM      7  C   UNL     1      48.549   8.182  18.164  0.00  0.00    +0.000 C 
BRANCH   7  12
ATOM      8  C   UNL     1      50.330   5.241  19.536  0.00  0.00    +0.000 A 
ATOM      9  C   UNL     1      49.360   4.556  20.263  0.00  0.00    +0.000 A 
ATOM     10  C   UNL     1      48.066   5.054  20.279  0.00  0.00    +0.000 A 
ATOM     11  C   UNL     1      47.780   6.225  19.583  0.00  0.00    +0.000 A 
ATOM     12  C   UNL     1      48.803   6.877  18.894  0.00  0.00    +0.000 A 
ATOM     13  N   UNL     1      50.072   6.399  18.872  0.00  0.00    +0.000 NA
BRANCH   8  14
ATOM     14  C   UNL     1      51.704   4.628  19.348  0.00  0.00    +0.000 C 
BRANCH  14  15
ATOM     15  N   UNL     1      51.668   3.244  18.837  0.00  0.00    +0.000 NA
ATOM     16  H   UNL     1      52.613   2.867  18.880  0.00  0.00    +0.000 HD
BRANCH  15  17
ATOM     17  C   UNL     1      51.208   3.212  17.439  0.00  0.00    +0.000 C 
BRANCH  17  18
ATOM     18  C   UNL     1      50.668   1.828  17.069  0.00  0.00    +0.000 C 
BRANCH  18  20
ATOM     19  C   UNL     1      48.523   2.746  16.771  0.00  0.00    +0.000 C 
ATOM     20  O   UNL     1      49.564   1.984  16.176  0.00  0.00    +0.000 OA
ENDBRANCH  18  20
ENDBRANCH  17  18
ENDBRANCH  15  17
ENDBRANCH  14  15
ENDBRANCH   8  14
ENDBRANCH   7  12
ENDBRANCH   1   7
BRANCH   4  21
ATOM     21  C   UNL     1      48.696   7.809  12.343  0.00  0.00    +0.000 C 
BRANCH  21  22
ATOM     22  N   UNL     1      47.878   6.764  11.788  0.00  0.00    +0.000 N 
ATOM     23  C   UNL     1      46.548   6.971  11.523  0.00  0.00    +0.000 C 
ATOM     24  O   UNL     1      46.008   8.061  11.697  0.00  0.00    +0.000 OA
ATOM     25  H   UNL     1      48.227   5.815  11.875  0.00  0.00    +0.000 HD
BRANCH  23  26
ATOM     26  C   UNL     1      45.816   5.835  10.953  0.00  0.00    +0.000 A 
ATOM     27  C   UNL     1      45.837   5.620   9.581  0.00  0.00    +0.000 A 
ATOM     28  S   UNL     1      44.981   4.227   9.096  0.00  0.00    +0.000 S 
ATOM     29  C   UNL     1      44.507   3.894  10.697  0.00  0.00    +0.000 A 
ATOM     30  N   UNL     1      43.715   2.827  10.985  0.00  0.00    +0.000 NA
ATOM     31  C   UNL     1      43.413   2.711  12.237  0.00  0.00    +0.000 A 
ATOM     32  N   UNL     1      43.832   3.558  13.224  0.00  0.00    +0.000 N 
ATOM     33  C   UNL     1      44.651   4.636  12.984  0.00  0.00    +0.000 A 
ATOM     34  O   UNL     1      45.041   5.357  13.898  0.00  0.00    +0.000 OA
ATOM     35  C   UNL     1      45.013   4.820  11.591  0.00  0.00    +0.000 A 
ATOM     36  H   UNL     1      43.567   3.408  14.186  0.00  0.00    +0.000 HD
ENDBRANCH  23  26
ENDBRANCH  21  22
ENDBRANCH   4  21
TORSDOF 10
ENDMDL
MODEL 6
REMARK VINA RESULT:    -6.337      3.000      4.192
REMARK INTER + INTRA:         -11.215
REMARK INTER:                  -9.898
REMARK INTRA:                  -1.316
REMARK UNBOUND:                -1.173
REMARK  Name = 
REMARK  11 active torsions:
REMARK  status: ('A' for Active; 'I' for Inactive)
REMARK    1  A    between atoms: C_1  and  O_2
REMARK    2  A    between atoms: O_2  and  C_3
REMARK    3  A    between atoms: C_3  and  C_4
REMARK    4  A    between atoms: C_4  and  N_5
REMARK    5  A    between atoms: N_5  and  C_6
REMARK    6  A    between atoms: C_6  and  C_7
REMARK    7  A    between atoms: C_11  and  C_12
REMARK    8  A    between atoms: C_12  and  C_13
REMARK    9  A    between atoms: C_16  and  C_17
REMARK   10  A    between atoms: C_17  and  N_18
REMARK   11  A    between atoms: C_19  and  C_21
REMARK                            x       y       z     vdW  Elec       q    Type
REMARK                         _______ _______ _______ _____ _____    ______ ____
ROOT
ATOM      1  C   UNL     1      46.855   4.522  14.467  0.00  0.00    +0.000 A 
ATOM      2  C   UNL     1      47.472   5.611  13.836  0.00  0.00    +0.000 A 
ATOM      3  C   UNL     1      48.405   6.396  14.518  0.00  0.00    +0.000 A 
ATOM      4  C   UNL     1      48.733   6.111  15.849  0.00  0.00    +0.000 A 
ATOM      5  C   UNL     1      48.055   5.076  16.505  0.00  0.00    +0.000 A 
ATOM      6  C   UNL     1      47.135   4.278  15.818  0.00  0.00    +0.000 A 
ENDROOT
BRANCH   1   7
ATOM      7  C   UNL     1      45.948   3.595  13.686  0.00  0.00    +0.000 C 
BRANCH   7  12
ATOM      8  C   UNL     1      44.807   4.874  10.405  0.00  0.00    +0.000 A 
ATOM      9  C   UNL     1      43.564   5.444  10.668  0.00  0.00    +0.000 A 
ATOM     10  C   UNL     1      43.094   5.441  11.973  0.00  0.00    +0.000 A 
ATOM     11  C   UNL     1      43.868   4.860  12.972  0.00  0.00    +0.000 A 
ATOM     12  C   UNL     1      45.094   4.284  12.639  0.00  0.00    +0.000 A 
ATOM     13  N   UNL     1      45.564   4.281  11.367  0.00  0.00    +0.000 NA
BRANCH   8  14
ATOM     14  C   UNL     1      45.429   5.023   9.030  0.00  0.00    +0.000 C 
BRANCH  14  15
ATOM     15  N   UNL     1      44.906   4.063   8.039  0.00  0.00    +0.000 NA
ATOM     16  H   UNL     1      44.088   3.609   8.441  0.00  0.00    +0.000 HD
BRANCH  15  17
ATOM     17  C   UNL     1      45.912   3.035   7.722  0.00  0.00    +0.000 C 
BRANCH  17  18
ATOM     18  C   UNL     1      45.656   1.753   8.518  0.00  0.00    +0.000 C 
BRANCH  18  20
ATOM     19  C   UNL     1      47.295   1.124   6.952  0.00  0.00    +0.000 C 
ATOM     20  O   UNL     1      46.650   0.787   8.172  0.00  0.00    +0.000 OA
ENDBRANCH  18  20
ENDBRANCH  17  18
ENDBRANCH  15  17
ENDBRANCH  14  15
ENDBRANCH   8  14
ENDBRANCH   7  12
ENDBRANCH   1   7
BRANCH   4  21
ATOM     21  C   UNL     1      49.794   6.903  16.569  0.00  0.00    +0.000 C 
BRANCH  21  22
ATOM     22  N   UNL     1      50.833   6.050  17.082  0.00  0.00    +0.000 N 
ATOM     23  C   UNL     1      50.901   5.741  18.417  0.00  0.00    +0.000 C 
ATOM     24  O   UNL     1      50.059   6.130  19.222  0.00  0.00    +0.000 OA
ATOM     25  H   UNL     1      51.656   5.933  16.500  0.00  0.00    +0.000 HD
BRANCH  23  26
ATOM     26  C   UNL     1      52.000   4.859  18.823  0.00  0.00    +0.000 A 
ATOM     27  C   UNL     1      52.985   5.335  19.679  0.00  0.00    +0.000 A 
ATOM     28  S   UNL     1      54.154   4.164  20.092  0.00  0.00    +0.000 S 
ATOM     29  C   UNL     1      53.415   2.996  19.098  0.00  0.00    +0.000 A 
ATOM     30  N   UNL     1      53.941   1.748  18.972  0.00  0.00    +0.000 NA
ATOM     31  C   UNL     1      53.291   0.976  18.165  0.00  0.00    +0.000 A 
ATOM     32  N   UNL     1      52.165   1.331  17.478  0.00  0.00    +0.000 N 
ATOM     33  C   UNL     1      51.584   2.573  17.591  0.00  0.00    +0.000 A 
ATOM     34  O   UNL     1      50.550   2.850  16.989  0.00  0.00    +0.000 OA
ATOM     35  C   UNL     1      52.280   3.487  18.477  0.00  0.00    +0.000 A 
ATOM     36  H   UNL     1      51.699   0.677  16.868  0.00  0.00    +0.000 HD
ENDBRANCH  23  26
ENDBRANCH  21  22
ENDBRANCH   4  21
TORSDOF 10
ENDMDL
MODEL 7
REMARK VINA RESULT:    -6.202      4.055      9.379
REMARK INTER + INTRA:         -11.001
REMARK INTER:                  -9.280
REMARK INTRA:                  -1.722
REMARK UNBOUND:                -1.173
REMARK  Name = 
REMARK  11 active torsions:
REMARK  status: ('A' for Active; 'I' for Inactive)
REMARK    1  A    between atoms: C_1  and  O_2
REMARK    2  A    between atoms: O_2  and  C_3
REMARK    3  A    between atoms: C_3  and  C_4
REMARK    4  A    between atoms: C_4  and  N_5
REMARK    5  A    between atoms: N_5  and  C_6
REMARK    6  A    between atoms: C_6  and  C_7
REMARK    7  A    between atoms: C_11  and  C_12
REMARK    8  A    between atoms: C_12  and  C_13
REMARK    9  A    between atoms: C_16  and  C_17
REMARK   10  A    between atoms: C_17  and  N_18
REMARK   11  A    between atoms: C_19  and  C_21
REMARK                            x       y       z     vdW  Elec       q    Type
REMARK                         _______ _______ _______ _____ _____    ______ ____
ROOT
ATOM      1  C   UNL     1      51.022   4.341  18.567  0.00  0.00    +0.000 A 
ATOM      2  C   UNL     1      50.837   3.233  17.728  0.00  0.00    +0.000 A 
ATOM      3  C   UNL     1      49.566   2.904  17.250  0.00  0.00    +0.000 A 
ATOM      4  C   UNL     1      48.452   3.674  17.609  0.00  0.00    +0.000 A 
ATOM      5  C   UNL     1      48.624   4.729  18.514  0.00  0.00    +0.000 A 
ATOM      6  C   UNL     1      49.898   5.069  18.978  0.00  0.00    +0.000 A 
ENDROOT
BRANCH   1   7
ATOM      7  C   UNL     1      52.415   4.771  18.974  0.00  0.00    +0.000 C 
BRANCH   7  12
ATOM      8  C   UNL     1      53.874   6.771  16.222  0.00  0.00    +0.000 A 
ATOM      9  C   UNL     1      54.949   6.009  15.771  0.00  0.00    +0.000 A 
ATOM     10  C   UNL     1      55.187   4.778  16.366  0.00  0.00    +0.000 A 
ATOM     11  C   UNL     1      54.358   4.351  17.398  0.00  0.00    +0.000 A 
ATOM     12  C   UNL     1      53.312   5.173  17.819  0.00  0.00    +0.000 A 
ATOM     13  N   UNL     1      53.070   6.377  17.245  0.00  0.00    +0.000 NA
BRANCH   8  14
ATOM     14  C   UNL     1      53.477   8.029  15.475  0.00  0.00    +0.000 C 
BRANCH  14  15
ATOM     15  N   UNL     1      52.776   7.764  14.203  0.00  0.00    +0.000 NA
ATOM     16  H   UNL     1      53.412   7.990  13.440  0.00  0.00    +0.000 HD
BRANCH  15  17
ATOM     17  C   UNL     1      51.573   8.604  14.082  0.00  0.00    +0.000 C 
BRANCH  17  18
ATOM     18  C   UNL     1      50.306   7.747  14.036  0.00  0.00    +0.000 C 
BRANCH  18  20
ATOM     19  C   UNL     1      49.519   7.514  16.240  0.00  0.00    +0.000 C 
ATOM     20  O   UNL     1      50.268   6.912  15.194  0.00  0.00    +0.000 OA
ENDBRANCH  18  20
ENDBRANCH  17  18
ENDBRANCH  15  17
ENDBRANCH  14  15
ENDBRANCH   8  14
ENDBRANCH   7  12
ENDBRANCH   1   7
BRANCH   4  21
ATOM     21  C   UNL     1      47.091   3.375  17.037  0.00  0.00    +0.000 C 
BRANCH  21  22
ATOM     22  N   UNL     1      46.756   4.278  15.969  0.00  0.00    +0.000 N 
ATOM     23  C   UNL     1      46.977   3.938  14.659  0.00  0.00    +0.000 C 
ATOM     24  O   UNL     1      47.419   2.839  14.334  0.00  0.00    +0.000 OA
ATOM     25  H   UNL     1      46.635   5.254  16.218  0.00  0.00    +0.000 HD
BRANCH  23  26
ATOM     26  C   UNL     1      46.591   4.936  13.656  0.00  0.00    +0.000 A 
ATOM     27  C   UNL     1      47.259   6.153  13.602  0.00  0.00    +0.000 A 
ATOM     28  S   UNL     1      46.722   7.171  12.343  0.00  0.00    +0.000 S 
ATOM     29  C   UNL     1      45.541   6.043  11.861  0.00  0.00    +0.000 A 
ATOM     30  N   UNL     1      44.696   6.311  10.830  0.00  0.00    +0.000 NA
ATOM     31  C   UNL     1      43.835   5.377  10.592  0.00  0.00    +0.000 A 
ATOM     32  N   UNL     1      43.743   4.202  11.283  0.00  0.00    +0.000 N 
ATOM     33  C   UNL     1      44.590   3.878  12.318  0.00  0.00    +0.000 A 
ATOM     34  O   UNL     1      44.506   2.798  12.895  0.00  0.00    +0.000 OA
ATOM     35  C   UNL     1      45.571   4.897  12.636  0.00  0.00    +0.000 A 
ATOM     36  H   UNL     1      43.052   3.508  11.041  0.00  0.00    +0.000 HD
ENDBRANCH  23  26
ENDBRANCH  21  22
ENDBRANCH   4  21
TORSDOF 10
ENDMDL
MODEL 8
REMARK VINA RESULT:    -6.075      4.207     10.526
REMARK INTER + INTRA:         -10.800
REMARK INTER:                  -9.495
REMARK INTRA:                  -1.304
REMARK UNBOUND:                -1.173
REMARK  Name = 
REMARK  11 active torsions:
REMARK  status: ('A' for Active; 'I' for Inactive)
REMARK    1  A    between atoms: C_1  and  O_2
REMARK    2  A    between atoms: O_2  and  C_3
REMARK    3  A    between atoms: C_3  and  C_4
REMARK    4  A    between atoms: C_4  and  N_5
REMARK    5  A    between atoms: N_5  and  C_6
REMARK    6  A    between atoms: C_6  and  C_7
REMARK    7  A    between atoms: C_11  and  C_12
REMARK    8  A    between atoms: C_12  and  C_13
REMARK    9  A    between atoms: C_16  and  C_17
REMARK   10  A    between atoms: C_17  and  N_18
REMARK   11  A    between atoms: C_19  and  C_21
REMARK                            x       y       z     vdW  Elec       q    Type
REMARK                         _______ _______ _______ _____ _____    ______ ____
ROOT
ATOM      1  C   UNL     1      50.400   2.567  17.490  0.00  0.00    +0.000 A 
ATOM      2  C   UNL     1      49.022   2.749  17.310  0.00  0.00    +0.000 A 
ATOM      3  C   UNL     1      48.504   4.008  16.991  0.00  0.00    +0.000 A 
ATOM      4  C   UNL     1      49.355   5.111  16.855  0.00  0.00    +0.000 A 
ATOM      5  C   UNL     1      50.722   4.946  17.119  0.00  0.00    +0.000 A 
ATOM      6  C   UNL     1      51.242   3.684  17.419  0.00  0.00    +0.000 A 
ENDROOT
BRANCH   1   7
ATOM      7  C   UNL     1      50.969   1.180  17.702  0.00  0.00    +0.000 C 
BRANCH   7  12
ATOM      8  C   UNL     1      54.432   1.582  18.944  0.00  0.00    +0.000 A 
ATOM      9  C   UNL     1      55.223   0.981  17.968  0.00  0.00    +0.000 A 
ATOM     10  C   UNL     1      54.605   0.454  16.844  0.00  0.00    +0.000 A 
ATOM     11  C   UNL     1      53.220   0.529  16.732  0.00  0.00    +0.000 A 
ATOM     12  C   UNL     1      52.483   1.122  17.757  0.00  0.00    +0.000 A 
ATOM     13  N   UNL     1      53.077   1.641  18.860  0.00  0.00    +0.000 NA
BRANCH   8  14
ATOM     14  C   UNL     1      55.087   2.327  20.091  0.00  0.00    +0.000 C 
BRANCH  14  15
ATOM     15  N   UNL     1      54.123   2.896  21.052  0.00  0.00    +0.000 NA
ATOM     16  H   UNL     1      53.184   2.669  20.729  0.00  0.00    +0.000 HD
BRANCH  15  17
ATOM     17  C   UNL     1      54.256   4.361  21.125  0.00  0.00    +0.000 C 
BRANCH  17  18
ATOM     18  C   UNL     1      53.266   5.051  20.183  0.00  0.00    +0.000 C 
BRANCH  18  20
ATOM     19  C   UNL     1      51.927   6.983  20.113  0.00  0.00    +0.000 C 
ATOM     20  O   UNL     1      53.160   6.428  20.549  0.00  0.00    +0.000 OA
ENDBRANCH  18  20
ENDBRANCH  17  18
ENDBRANCH  15  17
ENDBRANCH  14  15
ENDBRANCH   8  14
ENDBRANCH   7  12
ENDBRANCH   1   7
BRANCH   4  21
ATOM     21  C   UNL     1      48.817   6.454  16.437  0.00  0.00    +0.000 C 
BRANCH  21  22
ATOM     22  N   UNL     1      47.782   6.324  15.447  0.00  0.00    +0.000 N 
ATOM     23  C   UNL     1      48.064   6.429  14.108  0.00  0.00    +0.000 C 
ATOM     24  O   UNL     1      49.209   6.586  13.692  0.00  0.00    +0.000 OA
ATOM     25  H   UNL     1      46.827   6.448  15.766  0.00  0.00    +0.000 HD
BRANCH  23  26
ATOM     26  C   UNL     1      46.930   6.274  13.192  0.00  0.00    +0.000 A 
ATOM     27  C   UNL     1      46.395   7.390  12.561  0.00  0.00    +0.000 A 
ATOM     28  S   UNL     1      45.121   7.023  11.489  0.00  0.00    +0.000 S 
ATOM     29  C   UNL     1      45.203   5.366  11.872  0.00  0.00    +0.000 A 
ATOM     30  N   UNL     1      44.346   4.473  11.308  0.00  0.00    +0.000 NA
ATOM     31  C   UNL     1      44.507   3.255  11.710  0.00  0.00    +0.000 A 
ATOM     32  N   UNL     1      45.444   2.847  12.616  0.00  0.00    +0.000 N 
ATOM     33  C   UNL     1      46.346   3.709  13.196  0.00  0.00    +0.000 A 
ATOM     34  O   UNL     1      47.200   3.305  13.978  0.00  0.00    +0.000 OA
ATOM     35  C   UNL     1      46.204   5.094  12.788  0.00  0.00    +0.000 A 
ATOM     36  H   UNL     1      45.522   1.878  12.883  0.00  0.00    +0.000 HD
ENDBRANCH  23  26
ENDBRANCH  21  22
ENDBRANCH   4  21
TORSDOF 10
ENDMDL
MODEL 9
REMARK VINA RESULT:    -6.020      4.896      9.052
REMARK INTER + INTRA:         -10.713
REMARK INTER:                  -8.679
REMARK INTRA:                  -2.034
REMARK UNBOUND:                -1.173
REMARK  Name = 
REMARK  11 active torsions:
REMARK  status: ('A' for Active; 'I' for Inactive)
REMARK    1  A    between atoms: C_1  and  O_2
REMARK    2  A    between atoms: O_2  and  C_3
REMARK    3  A    between atoms: C_3  and  C_4
REMARK    4  A    between atoms: C_4  and  N_5
REMARK    5  A    between atoms: N_5  and  C_6
REMARK    6  A    between atoms: C_6  and  C_7
REMARK    7  A    between atoms: C_11  and  C_12
REMARK    8  A    between atoms: C_12  and  C_13
REMARK    9  A    between atoms: C_16  and  C_17
REMARK   10  A    between atoms: C_17  and  N_18
REMARK   11  A    between atoms: C_19  and  C_21
REMARK                            x       y       z     vdW  Elec       q    Type
REMARK                         _______ _______ _______ _____ _____    ______ ____
ROOT
ATOM      1  C   UNL     1      51.150   4.818  18.370  0.00  0.00    +0.000 A 
ATOM      2  C   UNL     1      51.021   3.595  17.697  0.00  0.00    +0.000 A 
ATOM      3  C   UNL     1      49.762   3.116  17.323  0.00  0.00    +0.000 A 
ATOM      4  C   UNL     1      48.607   3.849  17.622  0.00  0.00    +0.000 A 
ATOM      5  C   UNL     1      48.730   5.028  18.368  0.00  0.00    +0.000 A 
ATOM      6  C   UNL     1      49.990   5.517  18.726  0.00  0.00    +0.000 A 
ENDROOT
BRANCH   1   7
ATOM      7  C   UNL     1      52.521   5.395  18.654  0.00  0.00    +0.000 C 
BRANCH   7  12
ATOM      8  C   UNL     1      53.680   7.079  15.568  0.00  0.00    +0.000 A 
ATOM      9  C   UNL     1      54.829   6.383  15.203  0.00  0.00    +0.000 A 
ATOM     10  C   UNL     1      55.223   5.300  15.975  0.00  0.00    +0.000 A 
ATOM     11  C   UNL     1      54.470   4.952  17.092  0.00  0.00    +0.000 A 
ATOM     12  C   UNL     1      53.342   5.705  17.417  0.00  0.00    +0.000 A 
ATOM     13  N   UNL     1      52.948   6.767  16.670  0.00  0.00    +0.000 NA
BRANCH   8  14
ATOM     14  C   UNL     1      53.122   8.147  14.648  0.00  0.00    +0.000 C 
BRANCH  14  15
ATOM     15  N   UNL     1      51.792   7.817  14.098  0.00  0.00    +0.000 NA
ATOM     16  H   UNL     1      51.743   6.806  13.978  0.00  0.00    +0.000 HD
BRANCH  15  17
ATOM     17  C   UNL     1      51.591   8.459  12.788  0.00  0.00    +0.000 C 
BRANCH  17  18
ATOM     18  C   UNL     1      52.873   9.145  12.309  0.00  0.00    +0.000 C 
BRANCH  18  20
ATOM     19  C   UNL     1      53.825   7.606  10.808  0.00  0.00    +0.000 C 
ATOM     20  O   UNL     1      53.091   8.815  10.937  0.00  0.00    +0.000 OA
ENDBRANCH  18  20
ENDBRANCH  17  18
ENDBRANCH  15  17
ENDBRANCH  14  15
ENDBRANCH   8  14
ENDBRANCH   7  12
ENDBRANCH   1   7
BRANCH   4  21
ATOM     21  C   UNL     1      47.253   3.381  17.156  0.00  0.00    +0.000 C 
BRANCH  21  22
ATOM     22  N   UNL     1      46.704   4.261  16.160  0.00  0.00    +0.000 N 
ATOM     23  C   UNL     1      46.911   4.036  14.823  0.00  0.00    +0.000 C 
ATOM     24  O   UNL     1      47.527   3.056  14.413  0.00  0.00    +0.000 OA
ATOM     25  H   UNL     1      46.422   5.185  16.472  0.00  0.00    +0.000 HD
BRANCH  23  26
ATOM     26  C   UNL     1      46.298   4.997  13.900  0.00  0.00    +0.000 A 
ATOM     27  C   UNL     1      45.050   4.728  13.353  0.00  0.00    +0.000 A 
ATOM     28  S   UNL     1      44.462   5.974  12.348  0.00  0.00    +0.000 S 
ATOM     29  C   UNL     1      45.879   6.892  12.566  0.00  0.00    +0.000 A 
ATOM     30  N   UNL     1      46.040   8.090  11.942  0.00  0.00    +0.000 NA
ATOM     31  C   UNL     1      47.174   8.664  12.178  0.00  0.00    +0.000 A 
ATOM     32  N   UNL     1      48.156   8.157  12.980  0.00  0.00    +0.000 N 
ATOM     33  C   UNL     1      48.029   6.961  13.649  0.00  0.00    +0.000 A 
ATOM     34  O   UNL     1      48.915   6.550  14.393  0.00  0.00    +0.000 OA
ATOM     35  C   UNL     1      46.778   6.267  13.412  0.00  0.00    +0.000 A 
ATOM     36  H   UNL     1      49.017   8.660  13.130  0.00  0.00    +0.000 HD
ENDBRANCH  23  26
ENDBRANCH  21  22
ENDBRANCH   4  21
TORSDOF 10
ENDMDL
