MODEL 1
REMARK VINA RESULT:    -8.310      0.000      0.000
REMARK INTER + INTRA:         -14.191
REMARK INTER:                 -13.169
REMARK INTRA:                  -1.022
REMARK UNBOUND:                -1.022
REMARK  Name = 
REMARK  11 active torsions:
REMARK  status: ('A' for Active; 'I' for Inactive)
REMARK    1  A    between atoms: N_1  and  C_2
REMARK    2  A    between atoms: C_2  and  C_3
REMARK    3  A    between atoms: C_2  and  C_21
REMARK    4  A    between atoms: C_3  and  N_4
REMARK    5  A    between atoms: N_4  and  C_5
REMARK    6  A    between atoms: C_5  and  C_6
REMARK    7  A    between atoms: C_9  and  C_10
REMARK    8  A    between atoms: C_10  and  N_11
REMARK    9  A    between atoms: N_11  and  C_12
REMARK   10  A    between atoms: C_12  and  C_13
REMARK   11  A    between atoms: C_28  and  O_29
REMARK                            x       y       z     vdW  Elec       q    Type
REMARK                         _______ _______ _______ _____ _____    ______ ____
ROOT
ATOM      1  N   UNL     1      48.654   6.019  14.507  0.00  0.00    +0.000 NA
ATOM      2  H   UNL     1      48.378   5.050  14.342  0.00  0.00    +0.000 HD
ENDROOT
BRANCH   1   3
ATOM      3  C   UNL     1      48.481   6.308  15.931  0.00  0.00    +0.000 C 
BRANCH   3   4
ATOM      4  C   UNL     1      48.384   5.008  16.789  0.00  0.00    +0.000 C 
BRANCH   4   5
ATOM      5  C   UNL     1      49.689   4.666  17.493  0.00  0.00    +0.000 A 
ATOM      6  C   UNL     1      50.309   5.597  18.316  0.00  0.00    +0.000 A 
ATOM      7  S   UNL     1      51.760   5.041  19.010  0.00  0.00    +0.000 S 
ATOM      8  C   UNL     1      51.612   3.534  18.238  0.00  0.00    +0.000 A 
ATOM      9  N   UNL     1      52.559   2.598  18.425  0.00  0.00    +0.000 NA
ATOM     10  C   UNL     1      52.300   1.464  17.770  0.00  0.00    +0.000 A 
ATOM     11  N   UNL     1      51.233   1.192  17.008  0.00  0.00    +0.000 NA
ATOM     12  C   UNL     1      50.324   2.164  16.868  0.00  0.00    +0.000 A 
ATOM     13  C   UNL     1      50.459   3.421  17.468  0.00  0.00    +0.000 A 
BRANCH  12  14
ATOM     14  O   UNL     1      49.255   1.784  16.107  0.00  0.00    +0.000 OA
ATOM     15  H   UNL     1      48.560   2.350  16.490  0.00  0.00    +0.000 HD
ENDBRANCH  12  14
ENDBRANCH   4   5
BRANCH   4  16
ATOM     16  N   UNL     1      47.275   5.034  17.742  0.00  0.00    +0.000 NA
ATOM     17  H   UNL     1      47.496   4.412  18.517  0.00  0.00    +0.000 HD
ATOM     18  H   UNL     1      46.479   4.566  17.287  0.00  0.00    +0.000 HD
ENDBRANCH   4  16
ENDBRANCH   3   4
ENDBRANCH   1   3
BRANCH   1  19
ATOM     19  C   UNL     1      47.836   6.878  13.652  0.00  0.00    +0.000 C 
BRANCH  19  20
ATOM     20  C   UNL     1      46.749   6.111  12.923  0.00  0.00    +0.000 A 
ATOM     21  C   UNL     1      46.106   5.000  13.487  0.00  0.00    +0.000 A 
ATOM     22  C   UNL     1      45.086   4.341  12.809  0.00  0.00    +0.000 A 
ATOM     23  C   UNL     1      44.684   4.768  11.538  0.00  0.00    +0.000 A 
ATOM     24  C   UNL     1      45.335   5.861  10.954  0.00  0.00    +0.000 A 
ATOM     25  C   UNL     1      46.356   6.528  11.640  0.00  0.00    +0.000 A 
BRANCH  23  26
ATOM     26  C   UNL     1      43.557   4.049  10.837  0.00  0.00    +0.000 C 
BRANCH  26  27
ATOM     27  N   UNL     1      43.950   3.725   9.472  0.00  0.00    +0.000 NA
ATOM     28  H   UNL     1      44.599   4.431   9.128  0.00  0.00    +0.000 HD
BRANCH  27  29
ATOM     29  C   UNL     1      44.567   2.409   9.375  0.00  0.00    +0.000 C 
BRANCH  29  30
ATOM     30  C   UNL     1      45.665   2.419   8.337  0.00  0.00    +0.000 A 
ATOM     31  C   UNL     1      45.955   3.580   7.610  0.00  0.00    +0.000 A 
ATOM     32  C   UNL     1      46.969   3.578   6.650  0.00  0.00    +0.000 A 
ATOM     33  C   UNL     1      47.702   2.417   6.409  0.00  0.00    +0.000 A 
ATOM     34  C   UNL     1      47.422   1.256   7.123  0.00  0.00    +0.000 A 
ATOM     35  C   UNL     1      46.412   1.257   8.084  0.00  0.00    +0.000 A 
ENDBRANCH  29  30
ENDBRANCH  27  29
ENDBRANCH  26  27
ENDBRANCH  23  26
ENDBRANCH  19  20
ENDBRANCH   1  19
TORSDOF 11
ENDMDL
MODEL 2
REMARK VINA RESULT:    -8.217      1.979      2.798
REMARK INTER + INTRA:         -14.043
REMARK INTER:                 -13.100
REMARK INTRA:                  -0.943
REMARK UNBOUND:                -1.022
REMARK  Name = 
REMARK  11 active torsions:
REMARK  status: ('A' for Active; 'I' for Inactive)
REMARK    1  A    between atoms: N_1  and  C_2
REMARK    2  A    between atoms: C_2  and  C_3
REMARK    3  A    between atoms: C_2  and  C_21
REMARK    4  A    between atoms: C_3  and  N_4
REMARK    5  A    between atoms: N_4  and  C_5
REMARK    6  A    between atoms: C_5  and  C_6
REMARK    7  A    between atoms: C_9  and  C_10
REMARK    8  A    between atoms: C_10  and  N_11
REMARK    9  A    between atoms: N_11  and  C_12
REMARK   10  A    between atoms: C_12  and  C_13
REMARK   11  A    between atoms: C_28  and  O_29
REMARK                            x       y       z     vdW  Elec       q    Type
REMARK                         _______ _______ _______ _____ _____    ______ ____
ROOT
ATOM      1  N   UNL     1      47.370   5.029  15.641  0.00  0.00    +0.000 NA
ATOM      2  H   UNL     1      47.931   5.463  16.375  0.00  0.00    +0.000 HD
ENDROOT
BRANCH   1   3
ATOM      3  C   UNL     1      47.682   3.600  15.610  0.00  0.00    +0.000 C 
BRANCH   3   4
ATOM      4  C   UNL     1      47.916   3.017  17.038  0.00  0.00    +0.000 C 
BRANCH   4   5
ATOM      5  C   UNL     1      48.897   3.841  17.859  0.00  0.00    +0.000 A 
ATOM      6  C   UNL     1      50.256   3.555  17.826  0.00  0.00    +0.000 A 
ATOM      7  S   UNL     1      51.195   4.575  18.812  0.00  0.00    +0.000 S 
ATOM      8  C   UNL     1      49.822   5.439  19.318  0.00  0.00    +0.000 A 
ATOM      9  N   UNL     1      49.960   6.455  20.188  0.00  0.00    +0.000 NA
ATOM     10  C   UNL     1      48.800   7.046  20.479  0.00  0.00    +0.000 A 
ATOM     11  N   UNL     1      47.590   6.744  19.991  0.00  0.00    +0.000 NA
ATOM     12  C   UNL     1      47.521   5.728  19.125  0.00  0.00    +0.000 A 
ATOM     13  C   UNL     1      48.643   4.987  18.734  0.00  0.00    +0.000 A 
BRANCH  12  14
ATOM     14  O   UNL     1      46.257   5.518  18.652  0.00  0.00    +0.000 OA
ATOM     15  H   UNL     1      46.417   4.765  18.056  0.00  0.00    +0.000 HD
ENDBRANCH  12  14
ENDBRANCH   4   5
BRANCH   4  16
ATOM     16  N   UNL     1      46.674   2.805  17.779  0.00  0.00    +0.000 NA
ATOM     17  H   UNL     1      45.896   2.816  17.123  0.00  0.00    +0.000 HD
ATOM     18  H   UNL     1      46.514   3.651  18.344  0.00  0.00    +0.000 HD
ENDBRANCH   4  16
ENDBRANCH   3   4
ENDBRANCH   1   3
BRANCH   1  19
ATOM     19  C   UNL     1      47.673   5.702  14.378  0.00  0.00    +0.000 C 
BRANCH  19  20
ATOM     20  C   UNL     1      46.596   5.488  13.330  0.00  0.00    +0.000 A 
ATOM     21  C   UNL     1      45.474   4.681  13.560  0.00  0.00    +0.000 A 
ATOM     22  C   UNL     1      44.485   4.535  12.593  0.00  0.00    +0.000 A 
ATOM     23  C   UNL     1      44.594   5.186  11.358  0.00  0.00    +0.000 A 
ATOM     24  C   UNL     1      45.723   5.975  11.108  0.00  0.00    +0.000 A 
ATOM     25  C   UNL     1      46.713   6.127  12.084  0.00  0.00    +0.000 A 
BRANCH  23  26
ATOM     26  C   UNL     1      43.493   5.030  10.338  0.00  0.00    +0.000 C 
BRANCH  26  27
ATOM     27  N   UNL     1      44.025   4.424   9.124  0.00  0.00    +0.000 NA
ATOM     28  H   UNL     1      44.848   4.942   8.819  0.00  0.00    +0.000 HD
BRANCH  27  29
ATOM     29  C   UNL     1      44.376   3.024   9.317  0.00  0.00    +0.000 C 
BRANCH  29  30
ATOM     30  C   UNL     1      45.521   2.640   8.409  0.00  0.00    +0.000 A 
ATOM     31  C   UNL     1      46.167   3.601   7.621  0.00  0.00    +0.000 A 
ATOM     32  C   UNL     1      47.222   3.236   6.783  0.00  0.00    +0.000 A 
ATOM     33  C   UNL     1      47.640   1.907   6.723  0.00  0.00    +0.000 A 
ATOM     34  C   UNL     1      47.005   0.941   7.498  0.00  0.00    +0.000 A 
ATOM     35  C   UNL     1      45.953   1.306   8.338  0.00  0.00    +0.000 A 
ENDBRANCH  29  30
ENDBRANCH  27  29
ENDBRANCH  26  27
ENDBRANCH  23  26
ENDBRANCH  19  20
ENDBRANCH   1  19
TORSDOF 11
ENDMDL
MODEL 3
REMARK VINA RESULT:    -7.975      2.295      2.991
REMARK INTER + INTRA:         -13.659
REMARK INTER:                 -11.934
REMARK INTRA:                  -1.725
REMARK UNBOUND:                -1.022
REMARK  Name = 
REMARK  11 active torsions:
REMARK  status: ('A' for Active; 'I' for Inactive)
REMARK    1  A    between atoms: N_1  and  C_2
REMARK    2  A    between atoms: C_2  and  C_3
REMARK    3  A    between atoms: C_2  and  C_21
REMARK    4  A    between atoms: C_3  and  N_4
REMARK    5  A    between atoms: N_4  and  C_5
REMARK    6  A    between atoms: C_5  and  C_6
REMARK    7  A    between atoms: C_9  and  C_10
REMARK    8  A    between atoms: C_10  and  N_11
REMARK    9  A    between atoms: N_11  and  C_12
REMARK   10  A    between atoms: C_12  and  C_13
REMARK   11  A    between atoms: C_28  and  O_29
REMARK                            x       y       z     vdW  Elec       q    Type
REMARK                         _______ _______ _______ _____ _____    ______ ____
ROOT
ATOM      1  N   UNL     1      47.495   8.610  12.564  0.00  0.00    +0.000 NA
ATOM      2  H   UNL     1      47.959   7.891  12.007  0.00  0.00    +0.000 HD
ENDROOT
BRANCH   1   3
ATOM      3  C   UNL     1      47.700   8.298  13.978  0.00  0.00    +0.000 C 
BRANCH   3   4
ATOM      4  C   UNL     1      48.956   7.401  14.209  0.00  0.00    +0.000 C 
BRANCH   4   5
ATOM      5  C   UNL     1      48.962   6.733  15.575  0.00  0.00    +0.000 A 
ATOM      6  C   UNL     1      49.705   7.270  16.618  0.00  0.00    +0.000 A 
ATOM      7  S   UNL     1      49.596   6.384  18.066  0.00  0.00    +0.000 S 
ATOM      8  C   UNL     1      48.550   5.250  17.355  0.00  0.00    +0.000 A 
ATOM      9  N   UNL     1      48.094   4.218  18.086  0.00  0.00    +0.000 NA
ATOM     10  C   UNL     1      47.272   3.422  17.400  0.00  0.00    +0.000 A 
ATOM     11  N   UNL     1      46.872   3.569  16.130  0.00  0.00    +0.000 NA
ATOM     12  C   UNL     1      47.357   4.620  15.459  0.00  0.00    +0.000 A 
ATOM     13  C   UNL     1      48.250   5.536  16.027  0.00  0.00    +0.000 A 
BRANCH  12  14
ATOM     14  O   UNL     1      46.865   4.710  14.188  0.00  0.00    +0.000 OA
ATOM     15  H   UNL     1      46.215   5.426  14.304  0.00  0.00    +0.000 HD
ENDBRANCH  12  14
ENDBRANCH   4   5
BRANCH   4  16
ATOM     16  N   UNL     1      49.154   6.413  13.149  0.00  0.00    +0.000 NA
ATOM     17  H   UNL     1      48.247   6.173  12.753  0.00  0.00    +0.000 HD
ATOM     18  H   UNL     1      49.446   5.538  13.607  0.00  0.00    +0.000 HD
ENDBRANCH   4  16
ENDBRANCH   3   4
ENDBRANCH   1   3
BRANCH   1  19
ATOM     19  C   UNL     1      46.081   8.635  12.188  0.00  0.00    +0.000 C 
BRANCH  19  20
ATOM     20  C   UNL     1      45.510   7.245  11.975  0.00  0.00    +0.000 A 
ATOM     21  C   UNL     1      44.457   6.740  12.751  0.00  0.00    +0.000 A 
ATOM     22  C   UNL     1      43.930   5.476  12.506  0.00  0.00    +0.000 A 
ATOM     23  C   UNL     1      44.447   4.674  11.482  0.00  0.00    +0.000 A 
ATOM     24  C   UNL     1      45.515   5.158  10.717  0.00  0.00    +0.000 A 
ATOM     25  C   UNL     1      46.040   6.433  10.960  0.00  0.00    +0.000 A 
BRANCH  23  26
ATOM     26  C   UNL     1      43.837   3.318  11.223  0.00  0.00    +0.000 C 
BRANCH  26  27
ATOM     27  N   UNL     1      44.825   2.440  10.608  0.00  0.00    +0.000 NA
ATOM     28  H   UNL     1      44.976   1.628  11.205  0.00  0.00    +0.000 HD
BRANCH  27  29
ATOM     29  C   UNL     1      44.419   2.000   9.280  0.00  0.00    +0.000 C 
BRANCH  29  30
ATOM     30  C   UNL     1      45.552   2.181   8.297  0.00  0.00    +0.000 A 
ATOM     31  C   UNL     1      46.432   1.129   8.015  0.00  0.00    +0.000 A 
ATOM     32  C   UNL     1      47.479   1.307   7.108  0.00  0.00    +0.000 A 
ATOM     33  C   UNL     1      47.655   2.537   6.476  0.00  0.00    +0.000 A 
ATOM     34  C   UNL     1      46.789   3.592   6.750  0.00  0.00    +0.000 A 
ATOM     35  C   UNL     1      45.742   3.414   7.654  0.00  0.00    +0.000 A 
ENDBRANCH  29  30
ENDBRANCH  27  29
ENDBRANCH  26  27
ENDBRANCH  23  26
ENDBRANCH  19  20
ENDBRANCH   1  19
TORSDOF 11
ENDMDL
MODEL 4
REMARK VINA RESULT:    -7.730      1.493      2.068
REMARK INTER + INTRA:         -13.270
REMARK INTER:                 -11.891
REMARK INTRA:                  -1.379
REMARK UNBOUND:                -1.022
REMARK  Name = 
REMARK  11 active torsions:
REMARK  status: ('A' for Active; 'I' for Inactive)
REMARK    1  A    between atoms: N_1  and  C_2
REMARK    2  A    between atoms: C_2  and  C_3
REMARK    3  A    between atoms: C_2  and  C_21
REMARK    4  A    between atoms: C_3  and  N_4
REMARK    5  A    between atoms: N_4  and  C_5
REMARK    6  A    between atoms: C_5  and  C_6
REMARK    7  A    between atoms: C_9  and  C_10
REMARK    8  A    between atoms: C_10  and  N_11
REMARK    9  A    between atoms: N_11  and  C_12
REMARK   10  A    between atoms: C_12  and  C_13
REMARK   11  A    between atoms: C_28  and  O_29
REMARK                            x       y       z     vdW  Elec       q    Type
REMARK                         _______ _______ _______ _____ _____    ______ ____
ROOT
ATOM      1  N   UNL     1      47.826   7.608  14.875  0.00  0.00    +0.000 NA
ATOM      2  H   UNL     1      47.305   8.354  14.411  0.00  0.00    +0.000 HD
ENDROOT
BRANCH   1   3
ATOM      3  C   UNL     1      48.939   8.213  15.606  0.00  0.00    +0.000 C 
BRANCH   3   4
ATOM      4  C   UNL     1      49.028   7.698  17.076  0.00  0.00    +0.000 C 
BRANCH   4   5
ATOM      5  C   UNL     1      49.853   6.426  17.208  0.00  0.00    +0.000 A 
ATOM      6  C   UNL     1      51.208   6.495  17.504  0.00  0.00    +0.000 A 
ATOM      7  S   UNL     1      51.966   4.974  17.604  0.00  0.00    +0.000 S 
ATOM      8  C   UNL     1      50.511   4.168  17.258  0.00  0.00    +0.000 A 
ATOM      9  N   UNL     1      50.497   2.825  17.192  0.00  0.00    +0.000 NA
ATOM     10  C   UNL     1      49.284   2.334  16.930  0.00  0.00    +0.000 A 
ATOM     11  N   UNL     1      48.149   3.023  16.757  0.00  0.00    +0.000 NA
ATOM     12  C   UNL     1      48.230   4.356  16.841  0.00  0.00    +0.000 A 
ATOM     13  C   UNL     1      49.433   5.029  17.086  0.00  0.00    +0.000 A 
BRANCH  12  14
ATOM     14  O   UNL     1      47.019   4.971  16.691  0.00  0.00    +0.000 OA
ATOM     15  H   UNL     1      47.299   5.803  16.268  0.00  0.00    +0.000 HD
ENDBRANCH  12  14
ENDBRANCH   4   5
BRANCH   4  16
ATOM     16  N   UNL     1      49.500   8.718  18.011  0.00  0.00    +0.000 NA
ATOM     17  H   UNL     1      50.515   8.660  18.073  0.00  0.00    +0.000 HD
ATOM     18  H   UNL     1      49.193   8.428  18.950  0.00  0.00    +0.000 HD
ENDBRANCH   4  16
ENDBRANCH   3   4
ENDBRANCH   1   3
BRANCH   1  19
ATOM     19  C   UNL     1      48.268   6.658  13.854  0.00  0.00    +0.000 C 
BRANCH  19  20
ATOM     20  C   UNL     1      47.123   6.138  13.006  0.00  0.00    +0.000 A 
ATOM     21  C   UNL     1      46.264   5.121  13.446  0.00  0.00    +0.000 A 
ATOM     22  C   UNL     1      45.200   4.692  12.659  0.00  0.00    +0.000 A 
ATOM     23  C   UNL     1      44.968   5.261  11.402  0.00  0.00    +0.000 A 
ATOM     24  C   UNL     1      45.833   6.260  10.942  0.00  0.00    +0.000 A 
ATOM     25  C   UNL     1      46.899   6.696  11.737  0.00  0.00    +0.000 A 
BRANCH  23  26
ATOM     26  C   UNL     1      43.790   4.794  10.583  0.00  0.00    +0.000 C 
BRANCH  26  27
ATOM     27  N   UNL     1      44.252   4.282   9.299  0.00  0.00    +0.000 NA
ATOM     28  H   UNL     1      45.037   4.843   8.973  0.00  0.00    +0.000 HD
BRANCH  27  29
ATOM     29  C   UNL     1      44.651   2.883   9.376  0.00  0.00    +0.000 C 
BRANCH  29  30
ATOM     30  C   UNL     1      45.624   2.553   8.268  0.00  0.00    +0.000 A 
ATOM     31  C   UNL     1      46.213   1.286   8.184  0.00  0.00    +0.000 A 
ATOM     32  C   UNL     1      47.114   0.991   7.159  0.00  0.00    +0.000 A 
ATOM     33  C   UNL     1      47.435   1.961   6.209  0.00  0.00    +0.000 A 
ATOM     34  C   UNL     1      46.859   3.226   6.284  0.00  0.00    +0.000 A 
ATOM     35  C   UNL     1      45.956   3.520   7.305  0.00  0.00    +0.000 A 
ENDBRANCH  29  30
ENDBRANCH  27  29
ENDBRANCH  26  27
ENDBRANCH  23  26
ENDBRANCH  19  20
ENDBRANCH   1  19
TORSDOF 11
ENDMDL
MODEL 5
REMARK VINA RESULT:    -7.572      1.877      2.344
REMARK INTER + INTRA:         -13.020
REMARK INTER:                 -11.338
REMARK INTRA:                  -1.683
REMARK UNBOUND:                -1.022
REMARK  Name = 
REMARK  11 active torsions:
REMARK  status: ('A' for Active; 'I' for Inactive)
REMARK    1  A    between atoms: N_1  and  C_2
REMARK    2  A    between atoms: C_2  and  C_3
REMARK    3  A    between atoms: C_2  and  C_21
REMARK    4  A    between atoms: C_3  and  N_4
REMARK    5  A    between atoms: N_4  and  C_5
REMARK    6  A    between atoms: C_5  and  C_6
REMARK    7  A    between atoms: C_9  and  C_10
REMARK    8  A    between atoms: C_10  and  N_11
REMARK    9  A    between atoms: N_11  and  C_12
REMARK   10  A    between atoms: C_12  and  C_13
REMARK   11  A    between atoms: C_28  and  O_29
REMARK                            x       y       z     vdW  Elec       q    Type
REMARK                         _______ _______ _______ _____ _____    ______ ____
ROOT
ATOM      1  N   UNL     1      48.747   6.506  14.202  0.00  0.00    +0.000 NA
ATOM      2  H   UNL     1      48.137   5.770  14.560  0.00  0.00    +0.000 HD
ENDROOT
BRANCH   1   3
ATOM      3  C   UNL     1      48.773   7.594  15.179  0.00  0.00    +0.000 C 
BRANCH   3   4
ATOM      4  C   UNL     1      50.063   7.567  16.058  0.00  0.00    +0.000 C 
BRANCH   4   5
ATOM      5  C   UNL     1      49.776   7.242  17.516  0.00  0.00    +0.000 A 
ATOM      6  C   UNL     1      49.905   8.221  18.493  0.00  0.00    +0.000 A 
ATOM      7  S   UNL     1      49.551   7.672  20.064  0.00  0.00    +0.000 S 
ATOM      8  C   UNL     1      49.211   6.107  19.498  0.00  0.00    +0.000 A 
ATOM      9  N   UNL     1      48.850   5.150  20.371  0.00  0.00    +0.000 NA
ATOM     10  C   UNL     1      48.600   3.980  19.779  0.00  0.00    +0.000 A 
ATOM     11  N   UNL     1      48.657   3.703  18.470  0.00  0.00    +0.000 NA
ATOM     12  C   UNL     1      49.016   4.701  17.654  0.00  0.00    +0.000 A 
ATOM     13  C   UNL     1      49.336   5.982  18.118  0.00  0.00    +0.000 A 
BRANCH  12  14
ATOM     14  O   UNL     1      49.009   4.337  16.338  0.00  0.00    +0.000 OA
ATOM     15  H   UNL     1      49.643   4.982  15.977  0.00  0.00    +0.000 HD
ENDBRANCH  12  14
ENDBRANCH   4   5
BRANCH   4  16
ATOM     16  N   UNL     1      51.098   6.681  15.525  0.00  0.00    +0.000 NA
ATOM     17  H   UNL     1      51.854   7.251  15.151  0.00  0.00    +0.000 HD
ATOM     18  H   UNL     1      50.705   6.234  14.685  0.00  0.00    +0.000 HD
ENDBRANCH   4  16
ENDBRANCH   3   4
ENDBRANCH   1   3
BRANCH   1  19
ATOM     19  C   UNL     1      48.234   6.928  12.898  0.00  0.00    +0.000 C 
BRANCH  19  20
ATOM     20  C   UNL     1      47.068   6.080  12.428  0.00  0.00    +0.000 A 
ATOM     21  C   UNL     1      46.613   4.964  13.144  0.00  0.00    +0.000 A 
ATOM     22  C   UNL     1      45.517   4.228  12.705  0.00  0.00    +0.000 A 
ATOM     23  C   UNL     1      44.846   4.583  11.529  0.00  0.00    +0.000 A 
ATOM     24  C   UNL     1      45.306   5.680  10.792  0.00  0.00    +0.000 A 
ATOM     25  C   UNL     1      46.404   6.423  11.238  0.00  0.00    +0.000 A 
BRANCH  23  26
ATOM     26  C   UNL     1      43.644   3.782  11.092  0.00  0.00    +0.000 C 
BRANCH  26  27
ATOM     27  N   UNL     1      43.786   3.398   9.693  0.00  0.00    +0.000 NA
ATOM     28  H   UNL     1      44.270   4.137   9.186  0.00  0.00    +0.000 HD
BRANCH  27  29
ATOM     29  C   UNL     1      44.511   2.145   9.539  0.00  0.00    +0.000 C 
BRANCH  29  30
ATOM     30  C   UNL     1      45.579   2.284   8.478  0.00  0.00    +0.000 A 
ATOM     31  C   UNL     1      45.822   3.517   7.862  0.00  0.00    +0.000 A 
ATOM     32  C   UNL     1      46.808   3.635   6.880  0.00  0.00    +0.000 A 
ATOM     33  C   UNL     1      47.558   2.522   6.504  0.00  0.00    +0.000 A 
ATOM     34  C   UNL     1      47.324   1.289   7.107  0.00  0.00    +0.000 A 
ATOM     35  C   UNL     1      46.342   1.171   8.090  0.00  0.00    +0.000 A 
ENDBRANCH  29  30
ENDBRANCH  27  29
ENDBRANCH  26  27
ENDBRANCH  23  26
ENDBRANCH  19  20
ENDBRANCH   1  19
TORSDOF 11
ENDMDL
MODEL 6
REMARK VINA RESULT:    -7.139      2.038      3.030
REMARK INTER + INTRA:         -12.335
REMARK INTER:                 -10.951
REMARK INTRA:                  -1.384
REMARK UNBOUND:                -1.022
REMARK  Name = 
REMARK  11 active torsions:
REMARK  status: ('A' for Active; 'I' for Inactive)
REMARK    1  A    between atoms: N_1  and  C_2
REMARK    2  A    between atoms: C_2  and  C_3
REMARK    3  A    between atoms: C_2  and  C_21
REMARK    4  A    between atoms: C_3  and  N_4
REMARK    5  A    between atoms: N_4  and  C_5
REMARK    6  A    between atoms: C_5  and  C_6
REMARK    7  A    between atoms: C_9  and  C_10
REMARK    8  A    between atoms: C_10  and  N_11
REMARK    9  A    between atoms: N_11  and  C_12
REMARK   10  A    between atoms: C_12  and  C_13
REMARK   11  A    between atoms: C_28  and  O_29
REMARK                            x       y       z     vdW  Elec       q    Type
REMARK                         _______ _______ _______ _____ _____    ______ ____
ROOT
ATOM      1  N   UNL     1      48.022   9.064  12.677  0.00  0.00    +0.000 NA
ATOM      2  H   UNL     1      48.372   9.679  11.941  0.00  0.00    +0.000 HD
ENDROOT
BRANCH   1   3
ATOM      3  C   UNL     1      48.824   9.288  13.880  0.00  0.00    +0.000 C 
BRANCH   3   4
ATOM      4  C   UNL     1      48.466   8.286  15.022  0.00  0.00    +0.000 C 
BRANCH   4   5
ATOM      5  C   UNL     1      49.686   7.580  15.593  0.00  0.00    +0.000 A 
ATOM      6  C   UNL     1      50.960   8.090  15.375  0.00  0.00    +0.000 A 
ATOM      7  S   UNL     1      52.199   7.164  16.083  0.00  0.00    +0.000 S 
ATOM      8  C   UNL     1      51.081   6.048  16.708  0.00  0.00    +0.000 A 
ATOM      9  N   UNL     1      51.521   4.995  17.420  0.00  0.00    +0.000 NA
ATOM     10  C   UNL     1      50.529   4.218  17.858  0.00  0.00    +0.000 A 
ATOM     11  N   UNL     1      49.215   4.399  17.676  0.00  0.00    +0.000 NA
ATOM     12  C   UNL     1      48.842   5.469  16.965  0.00  0.00    +0.000 A 
ATOM     13  C   UNL     1      49.760   6.370  16.414  0.00  0.00    +0.000 A 
BRANCH  12  14
ATOM     14  O   UNL     1      47.485   5.593  16.866  0.00  0.00    +0.000 OA
ATOM     15  H   UNL     1      47.336   5.170  16.001  0.00  0.00    +0.000 HD
ENDBRANCH  12  14
ENDBRANCH   4   5
BRANCH   4  16
ATOM     16  N   UNL     1      47.676   8.897  16.091  0.00  0.00    +0.000 NA
ATOM     17  H   UNL     1      47.265   8.158  16.657  0.00  0.00    +0.000 HD
ATOM     18  H   UNL     1      46.856   9.333  15.645  0.00  0.00    +0.000 HD
ENDBRANCH   4  16
ENDBRANCH   3   4
ENDBRANCH   1   3
BRANCH   1  19
ATOM     19  C   UNL     1      48.100   7.685  12.194  0.00  0.00    +0.000 C 
BRANCH  19  20
ATOM     20  C   UNL     1      46.780   6.947  12.321  0.00  0.00    +0.000 A 
ATOM     21  C   UNL     1      45.608   7.392  11.694  0.00  0.00    +0.000 A 
ATOM     22  C   UNL     1      44.422   6.673  11.800  0.00  0.00    +0.000 A 
ATOM     23  C   UNL     1      44.370   5.488  12.544  0.00  0.00    +0.000 A 
ATOM     24  C   UNL     1      45.528   5.048  13.194  0.00  0.00    +0.000 A 
ATOM     25  C   UNL     1      46.723   5.768  13.082  0.00  0.00    +0.000 A 
BRANCH  23  26
ATOM     26  C   UNL     1      43.076   4.716  12.618  0.00  0.00    +0.000 C 
BRANCH  26  27
ATOM     27  N   UNL     1      42.820   4.056  11.344  0.00  0.00    +0.000 NA
ATOM     28  H   UNL     1      42.978   4.715  10.583  0.00  0.00    +0.000 HD
BRANCH  27  29
ATOM     29  C   UNL     1      43.660   2.882  11.154  0.00  0.00    +0.000 C 
BRANCH  29  30
ATOM     30  C   UNL     1      44.516   3.043   9.920  0.00  0.00    +0.000 A 
ATOM     31  C   UNL     1      44.985   1.924   9.220  0.00  0.00    +0.000 A 
ATOM     32  C   UNL     1      45.778   2.083   8.082  0.00  0.00    +0.000 A 
ATOM     33  C   UNL     1      46.112   3.361   7.635  0.00  0.00    +0.000 A 
ATOM     34  C   UNL     1      45.655   4.481   8.323  0.00  0.00    +0.000 A 
ATOM     35  C   UNL     1      44.860   4.323   9.458  0.00  0.00    +0.000 A 
ENDBRANCH  29  30
ENDBRANCH  27  29
ENDBRANCH  26  27
ENDBRANCH  23  26
ENDBRANCH  19  20
ENDBRANCH   1  19
TORSDOF 11
ENDMDL
MODEL 7
REMARK VINA RESULT:    -6.917      2.483      4.153
REMARK INTER + INTRA:         -11.982
REMARK INTER:                 -10.650
REMARK INTRA:                  -1.332
REMARK UNBOUND:                -1.022
REMARK  Name = 
REMARK  11 active torsions:
REMARK  status: ('A' for Active; 'I' for Inactive)
REMARK    1  A    between atoms: N_1  and  C_2
REMARK    2  A    between atoms: C_2  and  C_3
REMARK    3  A    between atoms: C_2  and  C_21
REMARK    4  A    between atoms: C_3  and  N_4
REMARK    5  A    between atoms: N_4  and  C_5
REMARK    6  A    between atoms: C_5  and  C_6
REMARK    7  A    between atoms: C_9  and  C_10
REMARK    8  A    between atoms: C_10  and  N_11
REMARK    9  A    between atoms: N_11  and  C_12
REMARK   10  A    between atoms: C_12  and  C_13
REMARK   11  A    between atoms: C_28  and  O_29
REMARK                            x       y       z     vdW  Elec       q    Type
REMARK                         _______ _______ _______ _____ _____    ______ ____
ROOT
ATOM      1  N   UNL     1      47.839   5.398  15.246  0.00  0.00    +0.000 NA
ATOM      2  H   UNL     1      48.676   5.533  14.678  0.00  0.00    +0.000 HD
ENDROOT
BRANCH   1   3
ATOM      3  C   UNL     1      48.232   5.428  16.655  0.00  0.00    +0.000 C 
BRANCH   3   4
ATOM      4  C   UNL     1      49.710   5.893  16.845  0.00  0.00    +0.000 C 
BRANCH   4   5
ATOM      5  C   UNL     1      49.868   7.405  16.771  0.00  0.00    +0.000 A 
ATOM      6  C   UNL     1      49.996   8.156  17.932  0.00  0.00    +0.000 A 
ATOM      7  S   UNL     1      50.156   9.827  17.652  0.00  0.00    +0.000 S 
ATOM      8  C   UNL     1      50.062   9.608  15.970  0.00  0.00    +0.000 A 
ATOM      9  N   UNL     1      50.130  10.677  15.157  0.00  0.00    +0.000 NA
ATOM     10  C   UNL     1      50.059  10.349  13.866  0.00  0.00    +0.000 A 
ATOM     11  N   UNL     1      49.953   9.120  13.345  0.00  0.00    +0.000 NA
ATOM     12  C   UNL     1      49.897   8.098  14.207  0.00  0.00    +0.000 A 
ATOM     13  C   UNL     1      49.933   8.275  15.596  0.00  0.00    +0.000 A 
BRANCH  12  14
ATOM     14  O   UNL     1      49.829   6.884  13.586  0.00  0.00    +0.000 OA
ATOM     15  H   UNL     1      49.626   6.311  14.348  0.00  0.00    +0.000 HD
ENDBRANCH  12  14
ENDBRANCH   4   5
BRANCH   4  16
ATOM     16  N   UNL     1      50.320   5.370  18.067  0.00  0.00    +0.000 NA
ATOM     17  H   UNL     1      50.504   6.147  18.699  0.00  0.00    +0.000 HD
ATOM     18  H   UNL     1      51.265   5.047  17.814  0.00  0.00    +0.000 HD
ENDBRANCH   4  16
ENDBRANCH   3   4
ENDBRANCH   1   3
BRANCH   1  19
ATOM     19  C   UNL     1      47.224   4.129  14.858  0.00  0.00    +0.000 C 
BRANCH  19  20
ATOM     20  C   UNL     1      46.325   4.264  13.643  0.00  0.00    +0.000 A 
ATOM     21  C   UNL     1      45.877   3.154  12.913  0.00  0.00    +0.000 A 
ATOM     22  C   UNL     1      45.022   3.309  11.826  0.00  0.00    +0.000 A 
ATOM     23  C   UNL     1      44.596   4.582  11.430  0.00  0.00    +0.000 A 
ATOM     24  C   UNL     1      45.056   5.699  12.137  0.00  0.00    +0.000 A 
ATOM     25  C   UNL     1      45.910   5.542  13.234  0.00  0.00    +0.000 A 
BRANCH  23  26
ATOM     26  C   UNL     1      43.648   4.717  10.264  0.00  0.00    +0.000 C 
BRANCH  26  27
ATOM     27  N   UNL     1      44.025   3.785   9.209  0.00  0.00    +0.000 NA
ATOM     28  H   UNL     1      43.212   3.578   8.631  0.00  0.00    +0.000 HD
BRANCH  27  29
ATOM     29  C   UNL     1      45.097   4.307   8.372  0.00  0.00    +0.000 C 
BRANCH  29  30
ATOM     30  C   UNL     1      45.897   3.173   7.775  0.00  0.00    +0.000 A 
ATOM     31  C   UNL     1      45.891   1.902   8.364  0.00  0.00    +0.000 A 
ATOM     32  C   UNL     1      46.636   0.861   7.807  0.00  0.00    +0.000 A 
ATOM     33  C   UNL     1      47.394   1.081   6.657  0.00  0.00    +0.000 A 
ATOM     34  C   UNL     1      47.411   2.340   6.064  0.00  0.00    +0.000 A 
ATOM     35  C   UNL     1      46.665   3.379   6.618  0.00  0.00    +0.000 A 
ENDBRANCH  29  30
ENDBRANCH  27  29
ENDBRANCH  26  27
ENDBRANCH  23  26
ENDBRANCH  19  20
ENDBRANCH   1  19
TORSDOF 11
ENDMDL
MODEL 8
REMARK VINA RESULT:    -6.889      2.524      3.439
REMARK INTER + INTRA:         -11.938
REMARK INTER:                 -10.329
REMARK INTRA:                  -1.609
REMARK UNBOUND:                -1.022
REMARK  Name = 
REMARK  11 active torsions:
REMARK  status: ('A' for Active; 'I' for Inactive)
REMARK    1  A    between atoms: N_1  and  C_2
REMARK    2  A    between atoms: C_2  and  C_3
REMARK    3  A    between atoms: C_2  and  C_21
REMARK    4  A    between atoms: C_3  and  N_4
REMARK    5  A    between atoms: N_4  and  C_5
REMARK    6  A    between atoms: C_5  and  C_6
REMARK    7  A    between atoms: C_9  and  C_10
REMARK    8  A    between atoms: C_10  and  N_11
REMARK    9  A    between atoms: N_11  and  C_12
REMARK   10  A    between atoms: C_12  and  C_13
REMARK   11  A    between atoms: C_28  and  O_29
REMARK                            x       y       z     vdW  Elec       q    Type
REMARK                         _______ _______ _______ _____ _____    ______ ____
ROOT
ATOM      1  N   UNL     1      48.450   7.439  15.613  0.00  0.00    +0.000 NA
ATOM      2  H   UNL     1      47.741   8.084  15.962  0.00  0.00    +0.000 HD
ENDROOT
BRANCH   1   3
ATOM      3  C   UNL     1      49.751   7.864  16.129  0.00  0.00    +0.000 C 
BRANCH   3   4
ATOM      4  C   UNL     1      50.450   6.745  16.962  0.00  0.00    +0.000 C 
BRANCH   4   5
ATOM      5  C   UNL     1      50.268   6.923  18.462  0.00  0.00    +0.000 A 
ATOM      6  C   UNL     1      51.294   7.449  19.237  0.00  0.00    +0.000 A 
ATOM      7  S   UNL     1      50.912   7.567  20.891  0.00  0.00    +0.000 S 
ATOM      8  C   UNL     1      49.361   6.923  20.633  0.00  0.00    +0.000 A 
ATOM      9  N   UNL     1      48.528   6.759  21.676  0.00  0.00    +0.000 NA
ATOM     10  C   UNL     1      47.344   6.260  21.317  0.00  0.00    +0.000 A 
ATOM     11  N   UNL     1      46.935   5.946  20.081  0.00  0.00    +0.000 NA
ATOM     12  C   UNL     1      47.809   6.139  19.086  0.00  0.00    +0.000 A 
ATOM     13  C   UNL     1      49.102   6.632  19.297  0.00  0.00    +0.000 A 
BRANCH  12  14
ATOM     14  O   UNL     1      47.292   5.829  17.860  0.00  0.00    +0.000 OA
ATOM     15  H   UNL     1      46.359   6.071  17.999  0.00  0.00    +0.000 HD
ENDBRANCH  12  14
ENDBRANCH   4   5
BRANCH   4  16
ATOM     16  N   UNL     1      50.057   5.397  16.551  0.00  0.00    +0.000 NA
ATOM     17  H   UNL     1      49.377   5.038  17.218  0.00  0.00    +0.000 HD
ATOM     18  H   UNL     1      50.874   4.789  16.701  0.00  0.00    +0.000 HD
ENDBRANCH   4  16
ENDBRANCH   3   4
ENDBRANCH   1   3
BRANCH   1  19
ATOM     19  C   UNL     1      48.391   7.444  14.152  0.00  0.00    +0.000 C 
BRANCH  19  20
ATOM     20  C   UNL     1      47.464   6.377  13.601  0.00  0.00    +0.000 A 
ATOM     21  C   UNL     1      46.779   6.532  12.387  0.00  0.00    +0.000 A 
ATOM     22  C   UNL     1      45.965   5.519  11.890  0.00  0.00    +0.000 A 
ATOM     23  C   UNL     1      45.803   4.322  12.598  0.00  0.00    +0.000 A 
ATOM     24  C   UNL     1      46.463   4.167  13.823  0.00  0.00    +0.000 A 
ATOM     25  C   UNL     1      47.287   5.183  14.318  0.00  0.00    +0.000 A 
BRANCH  23  26
ATOM     26  C   UNL     1      44.935   3.232  12.021  0.00  0.00    +0.000 C 
BRANCH  26  27
ATOM     27  N   UNL     1      44.334   3.686  10.774  0.00  0.00    +0.000 NA
ATOM     28  H   UNL     1      44.913   4.417  10.364  0.00  0.00    +0.000 HD
BRANCH  27  29
ATOM     29  C   UNL     1      44.169   2.601   9.816  0.00  0.00    +0.000 C 
BRANCH  29  30
ATOM     30  C   UNL     1      45.276   2.636   8.788  0.00  0.00    +0.000 A 
ATOM     31  C   UNL     1      45.970   1.470   8.440  0.00  0.00    +0.000 A 
ATOM     32  C   UNL     1      46.994   1.513   7.492  0.00  0.00    +0.000 A 
ATOM     33  C   UNL     1      47.335   2.721   6.884  0.00  0.00    +0.000 A 
ATOM     34  C   UNL     1      46.655   3.887   7.224  0.00  0.00    +0.000 A 
ATOM     35  C   UNL     1      45.630   3.845   8.168  0.00  0.00    +0.000 A 
ENDBRANCH  29  30
ENDBRANCH  27  29
ENDBRANCH  26  27
ENDBRANCH  23  26
ENDBRANCH  19  20
ENDBRANCH   1  19
TORSDOF 11
ENDMDL
MODEL 9
REMARK VINA RESULT:    -6.874      1.974      3.031
REMARK INTER + INTRA:         -11.915
REMARK INTER:                 -10.819
REMARK INTRA:                  -1.096
REMARK UNBOUND:                -1.022
REMARK  Name = 
REMARK  11 active torsions:
REMARK  status: ('A' for Active; 'I' for Inactive)
REMARK    1  A    between atoms: N_1  and  C_2
REMARK    2  A    between atoms: C_2  and  C_3
REMARK    3  A    between atoms: C_2  and  C_21
REMARK    4  A    between atoms: C_3  and  N_4
REMARK    5  A    between atoms: N_4  and  C_5
REMARK    6  A    between atoms: C_5  and  C_6
REMARK    7  A    between atoms: C_9  and  C_10
REMARK    8  A    between atoms: C_10  and  N_11
REMARK    9  A    between atoms: N_11  and  C_12
REMARK   10  A    between atoms: C_12  and  C_13
REMARK   11  A    between atoms: C_28  and  O_29
REMARK                            x       y       z     vdW  Elec       q    Type
REMARK                         _______ _______ _______ _____ _____    ______ ____
ROOT
ATOM      1  N   UNL     1      46.983   4.704  16.205  0.00  0.00    +0.000 NA
ATOM      2  H   UNL     1      47.124   5.678  15.933  0.00  0.00    +0.000 HD
ENDROOT
BRANCH   1   3
ATOM      3  C   UNL     1      47.785   4.441  17.400  0.00  0.00    +0.000 C 
BRANCH   3   4
ATOM      4  C   UNL     1      49.178   3.828  17.052  0.00  0.00    +0.000 C 
BRANCH   4   5
ATOM      5  C   UNL     1      50.338   4.691  17.525  0.00  0.00    +0.000 A 
ATOM      6  C   UNL     1      51.143   4.272  18.576  0.00  0.00    +0.000 A 
ATOM      7  S   UNL     1      52.383   5.369  18.969  0.00  0.00    +0.000 S 
ATOM      8  C   UNL     1      51.892   6.443  17.748  0.00  0.00    +0.000 A 
ATOM      9  N   UNL     1      52.560   7.597  17.571  0.00  0.00    +0.000 NA
ATOM     10  C   UNL     1      52.071   8.327  16.567  0.00  0.00    +0.000 A 
ATOM     11  N   UNL     1      51.049   8.017  15.760  0.00  0.00    +0.000 NA
ATOM     12  C   UNL     1      50.431   6.851  15.983  0.00  0.00    +0.000 A 
ATOM     13  C   UNL     1      50.805   5.980  17.013  0.00  0.00    +0.000 A 
BRANCH  12  14
ATOM     14  O   UNL     1      49.429   6.602  15.089  0.00  0.00    +0.000 OA
ATOM     15  H   UNL     1      48.833   6.066  15.642  0.00  0.00    +0.000 HD
ENDBRANCH  12  14
ENDBRANCH   4   5
BRANCH   4  16
ATOM     16  N   UNL     1      49.331   2.453  17.526  0.00  0.00    +0.000 NA
ATOM     17  H   UNL     1      50.247   2.110  17.243  0.00  0.00    +0.000 HD
ATOM     18  H   UNL     1      48.684   1.872  16.973  0.00  0.00    +0.000 HD
ENDBRANCH   4  16
ENDBRANCH   3   4
ENDBRANCH   1   3
BRANCH   1  19
ATOM     19  C   UNL     1      47.358   3.856  15.074  0.00  0.00    +0.000 C 
BRANCH  19  20
ATOM     20  C   UNL     1      46.659   4.256  13.788  0.00  0.00    +0.000 A 
ATOM     21  C   UNL     1      45.847   3.369  13.067  0.00  0.00    +0.000 A 
ATOM     22  C   UNL     1      45.190   3.778  11.911  0.00  0.00    +0.000 A 
ATOM     23  C   UNL     1      45.333   5.087  11.435  0.00  0.00    +0.000 A 
ATOM     24  C   UNL     1      46.161   5.974  12.133  0.00  0.00    +0.000 A 
ATOM     25  C   UNL     1      46.815   5.564  13.299  0.00  0.00    +0.000 A 
BRANCH  23  26
ATOM     26  C   UNL     1      44.587   5.509  10.193  0.00  0.00    +0.000 C 
BRANCH  26  27
ATOM     27  N   UNL     1      45.292   5.038   9.008  0.00  0.00    +0.000 NA
ATOM     28  H   UNL     1      46.257   4.819   9.251  0.00  0.00    +0.000 HD
BRANCH  27  29
ATOM     29  C   UNL     1      44.659   3.864   8.422  0.00  0.00    +0.000 C 
BRANCH  29  30
ATOM     30  C   UNL     1      45.700   2.964   7.797  0.00  0.00    +0.000 A 
ATOM     31  C   UNL     1      45.923   1.673   8.291  0.00  0.00    +0.000 A 
ATOM     32  C   UNL     1      46.889   0.850   7.709  0.00  0.00    +0.000 A 
ATOM     33  C   UNL     1      47.642   1.310   6.630  0.00  0.00    +0.000 A 
ATOM     34  C   UNL     1      47.433   2.593   6.131  0.00  0.00    +0.000 A 
ATOM     35  C   UNL     1      46.466   3.414   6.710  0.00  0.00    +0.000 A 
ENDBRANCH  29  30
ENDBRANCH  27  29
ENDBRANCH  26  27
ENDBRANCH  23  26
ENDBRANCH  19  20
ENDBRANCH   1  19
TORSDOF 11
ENDMDL
