MODEL 1
REMARK VINA RESULT:    -7.200      0.000      0.000
REMARK INTER + INTRA:         -10.467
REMARK INTER:                  -9.725
REMARK INTRA:                  -0.742
REMARK UNBOUND:                -0.742
REMARK  Name = 
REMARK  6 active torsions:
REMARK  status: ('A' for Active; 'I' for Inactive)
REMARK    1  A    between atoms: C_2  and  C_3
REMARK    2  A    between atoms: C_5  and  C_6
REMARK    3  A    between atoms: C_8  and  C_9
REMARK    4  A    between atoms: C_9  and  C_10
REMARK    5  A    between atoms: C_10  and  C_11
REMARK    6  A    between atoms: C_15  and  C_16
REMARK                            x       y       z     vdW  Elec       q    Type
REMARK                         _______ _______ _______ _____ _____    ______ ____
ROOT
ATOM      1  C   UNL     1      43.948   5.323  11.740  0.00  0.00    +0.000 C 
ATOM      2  C   UNL     1      42.776   5.029  12.664  0.00  0.00    +0.000 C 
ATOM      3  C   UNL     1      43.089   6.453  12.340  0.00  0.00    +0.000 C 
ENDROOT
BRANCH   1   4
ATOM      4  C   UNL     1      45.423   5.446  12.211  0.00  0.00    +0.000 A 
ATOM      5  C   UNL     1      46.307   6.344  11.586  0.00  0.00    +0.000 A 
ATOM      6  C   UNL     1      47.493   6.752  12.181  0.00  0.00    +0.000 A 
ATOM      7  C   UNL     1      47.867   6.213  13.401  0.00  0.00    +0.000 A 
ATOM      8  C   UNL     1      47.129   5.177  13.992  0.00  0.00    +0.000 A 
ATOM      9  C   UNL     1      45.905   4.818  13.383  0.00  0.00    +0.000 A 
BRANCH   8  10
ATOM     10  C   UNL     1      47.623   4.497  15.202  0.00  0.00    +0.000 A 
ATOM     11  C   UNL     1      48.050   5.205  16.329  0.00  0.00    +0.000 A 
ATOM     12  N   UNL     1      48.538   4.621  17.450  0.00  0.00    +0.000 NA
ATOM     13  C   UNL     1      48.597   3.275  17.406  0.00  0.00    +0.000 A 
ATOM     14  C   UNL     1      48.182   2.552  16.299  0.00  0.00    +0.000 A 
ATOM     15  N   UNL     1      47.693   3.140  15.181  0.00  0.00    +0.000 NA
ENDBRANCH   8  10
ENDBRANCH   1   4
BRANCH   1  16
ATOM     16  C   UNL     1      43.705   5.137  10.242  0.00  0.00    +0.000 C 
BRANCH  16  20
ATOM     17  C   UNL     1      46.291   2.576   7.983  0.00  0.00    +0.000 A 
ATOM     18  C   UNL     1      45.471   2.020   8.944  0.00  0.00    +0.000 A 
ATOM     19  C   UNL     1      44.653   2.872   9.681  0.00  0.00    +0.000 A 
ATOM     20  C   UNL     1      44.655   4.266   9.447  0.00  0.00    +0.000 A 
ATOM     21  C   UNL     1      45.548   4.716   8.488  0.00  0.00    +0.000 A 
ATOM     22  N   UNL     1      46.351   3.909   7.754  0.00  0.00    +0.000 NA
BRANCH  17  24
ATOM     23  N   UNL     1      47.794   1.105   6.457  0.00  0.00    +0.000 NA
ATOM     24  C   UNL     1      47.118   1.727   7.167  0.00  0.00    +0.000 C 
ENDBRANCH  17  24
BRANCH  19  25
ATOM     25  C   UNL     1      43.791   2.281  10.666  0.00  0.00    +0.000 C 
ATOM     26  N   UNL     1      43.102   1.783  11.450  0.00  0.00    +0.000 NA
ENDBRANCH  19  25
ENDBRANCH  16  20
ENDBRANCH   1  16
TORSDOF 6
ENDMDL
MODEL 2
REMARK VINA RESULT:    -6.924      3.688      5.908
REMARK INTER + INTRA:         -10.094
REMARK INTER:                  -9.088
REMARK INTRA:                  -1.006
REMARK UNBOUND:                -0.742
REMARK  Name = 
REMARK  6 active torsions:
REMARK  status: ('A' for Active; 'I' for Inactive)
REMARK    1  A    between atoms: C_2  and  C_3
REMARK    2  A    between atoms: C_5  and  C_6
REMARK    3  A    between atoms: C_8  and  C_9
REMARK    4  A    between atoms: C_9  and  C_10
REMARK    5  A    between atoms: C_10  and  C_11
REMARK    6  A    between atoms: C_15  and  C_16
REMARK                            x       y       z     vdW  Elec       q    Type
REMARK                         _______ _______ _______ _____ _____    ______ ____
ROOT
ATOM      1  C   UNL     1      45.219   6.039  11.841  0.00  0.00    +0.000 C 
ATOM      2  C   UNL     1      46.096   5.024  12.558  0.00  0.00    +0.000 C 
ATOM      3  C   UNL     1      44.785   5.392  13.171  0.00  0.00    +0.000 C 
ENDROOT
BRANCH   1   4
ATOM      4  C   UNL     1      45.355   7.578  12.000  0.00  0.00    +0.000 A 
ATOM      5  C   UNL     1      46.549   8.153  12.472  0.00  0.00    +0.000 A 
ATOM      6  C   UNL     1      46.848   9.496  12.290  0.00  0.00    +0.000 A 
ATOM      7  C   UNL     1      45.919  10.328  11.687  0.00  0.00    +0.000 A 
ATOM      8  C   UNL     1      44.636   9.865  11.361  0.00  0.00    +0.000 A 
ATOM      9  C   UNL     1      44.381   8.484  11.518  0.00  0.00    +0.000 A 
BRANCH   8  10
ATOM     10  C   UNL     1      43.602  10.796  10.876  0.00  0.00    +0.000 A 
ATOM     11  C   UNL     1      43.067  10.705   9.588  0.00  0.00    +0.000 A 
ATOM     12  N   UNL     1      42.136  11.556   9.092  0.00  0.00    +0.000 NA
ATOM     13  C   UNL     1      41.754  12.531   9.941  0.00  0.00    +0.000 A 
ATOM     14  C   UNL     1      42.273  12.643  11.221  0.00  0.00    +0.000 A 
ATOM     15  N   UNL     1      43.201  11.788  11.714  0.00  0.00    +0.000 NA
ENDBRANCH   8  10
ENDBRANCH   1   4
BRANCH   1  16
ATOM     16  C   UNL     1      44.408   5.528  10.650  0.00  0.00    +0.000 C 
BRANCH  16  20
ATOM     17  C   UNL     1      46.161   2.818   7.833  0.00  0.00    +0.000 A 
ATOM     18  C   UNL     1      45.313   2.320   8.802  0.00  0.00    +0.000 A 
ATOM     19  C   UNL     1      44.770   3.215   9.720  0.00  0.00    +0.000 A 
ATOM     20  C   UNL     1      45.070   4.595   9.658  0.00  0.00    +0.000 A 
ATOM     21  C   UNL     1      45.965   4.974   8.670  0.00  0.00    +0.000 A 
ATOM     22  N   UNL     1      46.505   4.126   7.762  0.00  0.00    +0.000 NA
BRANCH  17  24
ATOM     23  N   UNL     1      47.129   1.161   6.082  0.00  0.00    +0.000 NA
ATOM     24  C   UNL     1      46.707   1.936   6.836  0.00  0.00    +0.000 C 
ENDBRANCH  17  24
BRANCH  19  25
ATOM     25  C   UNL     1      43.875   2.689  10.713  0.00  0.00    +0.000 C 
ATOM     26  N   UNL     1      43.173   2.266  11.529  0.00  0.00    +0.000 NA
ENDBRANCH  19  25
ENDBRANCH  16  20
ENDBRANCH   1  16
TORSDOF 6
ENDMDL
MODEL 3
REMARK VINA RESULT:    -6.647      2.193      6.691
REMARK INTER + INTRA:          -9.720
REMARK INTER:                  -8.694
REMARK INTRA:                  -1.026
REMARK UNBOUND:                -0.742
REMARK  Name = 
REMARK  6 active torsions:
REMARK  status: ('A' for Active; 'I' for Inactive)
REMARK    1  A    between atoms: C_2  and  C_3
REMARK    2  A    between atoms: C_5  and  C_6
REMARK    3  A    between atoms: C_8  and  C_9
REMARK    4  A    between atoms: C_9  and  C_10
REMARK    5  A    between atoms: C_10  and  C_11
REMARK    6  A    between atoms: C_15  and  C_16
REMARK                            x       y       z     vdW  Elec       q    Type
REMARK                         _______ _______ _______ _____ _____    ______ ____
ROOT
ATOM      1  C   UNL     1      43.918   5.785  11.672  0.00  0.00    +0.000 C 
ATOM      2  C   UNL     1      43.159   6.849  10.893  0.00  0.00    +0.000 C 
ATOM      3  C   UNL     1      42.395   5.967  11.825  0.00  0.00    +0.000 C 
ENDROOT
BRANCH   1   4
ATOM      4  C   UNL     1      44.249   4.370  11.125  0.00  0.00    +0.000 A 
ATOM      5  C   UNL     1      43.636   3.225  11.666  0.00  0.00    +0.000 A 
ATOM      6  C   UNL     1      43.613   2.010  10.996  0.00  0.00    +0.000 A 
ATOM      7  C   UNL     1      44.271   1.884   9.784  0.00  0.00    +0.000 A 
ATOM      8  C   UNL     1      45.059   2.928   9.276  0.00  0.00    +0.000 A 
ATOM      9  C   UNL     1      45.024   4.163   9.959  0.00  0.00    +0.000 A 
BRANCH   8  10
ATOM     10  C   UNL     1      45.888   2.727   8.074  0.00  0.00    +0.000 A 
ATOM     11  C   UNL     1      46.569   1.530   7.833  0.00  0.00    +0.000 A 
ATOM     12  N   UNL     1      47.363   1.314   6.758  0.00  0.00    +0.000 NA
ATOM     13  C   UNL     1      47.468   2.360   5.913  0.00  0.00    +0.000 A 
ATOM     14  C   UNL     1      46.806   3.557   6.133  0.00  0.00    +0.000 A 
ATOM     15  N   UNL     1      46.010   3.768   7.209  0.00  0.00    +0.000 NA
ENDBRANCH   8  10
ENDBRANCH   1   4
BRANCH   1  16
ATOM     16  C   UNL     1      44.690   6.257  12.904  0.00  0.00    +0.000 C 
BRANCH  16  20
ATOM     17  C   UNL     1      48.734   7.568  12.378  0.00  0.00    +0.000 A 
ATOM     18  C   UNL     1      48.501   6.316  12.910  0.00  0.00    +0.000 A 
ATOM     19  C   UNL     1      47.179   5.917  13.091  0.00  0.00    +0.000 A 
ATOM     20  C   UNL     1      46.107   6.765  12.734  0.00  0.00    +0.000 A 
ATOM     21  C   UNL     1      46.460   8.014  12.249  0.00  0.00    +0.000 A 
ATOM     22  N   UNL     1      47.737   8.426  12.058  0.00  0.00    +0.000 NA
BRANCH  17  24
ATOM     23  N   UNL     1      51.173   8.300  11.864  0.00  0.00    +0.000 NA
ATOM     24  C   UNL     1      50.084   8.001  12.130  0.00  0.00    +0.000 C 
ENDBRANCH  17  24
BRANCH  19  25
ATOM     25  C   UNL     1      46.947   4.605  13.629  0.00  0.00    +0.000 C 
ATOM     26  N   UNL     1      46.778   3.540  14.048  0.00  0.00    +0.000 NA
ENDBRANCH  19  25
ENDBRANCH  16  20
ENDBRANCH   1  16
TORSDOF 6
ENDMDL
MODEL 4
REMARK VINA RESULT:    -6.514      3.598      5.872
REMARK INTER + INTRA:          -9.541
REMARK INTER:                  -8.345
REMARK INTRA:                  -1.196
REMARK UNBOUND:                -0.742
REMARK  Name = 
REMARK  6 active torsions:
REMARK  status: ('A' for Active; 'I' for Inactive)
REMARK    1  A    between atoms: C_2  and  C_3
REMARK    2  A    between atoms: C_5  and  C_6
REMARK    3  A    between atoms: C_8  and  C_9
REMARK    4  A    between atoms: C_9  and  C_10
REMARK    5  A    between atoms: C_10  and  C_11
REMARK    6  A    between atoms: C_15  and  C_16
REMARK                            x       y       z     vdW  Elec       q    Type
REMARK                         _______ _______ _______ _____ _____    ______ ____
ROOT
ATOM      1  C   UNL     1      48.672   7.328  15.397  0.00  0.00    +0.000 C 
ATOM      2  C   UNL     1      48.215   8.778  15.430  0.00  0.00    +0.000 C 
ATOM      3  C   UNL     1      49.675   8.493  15.299  0.00  0.00    +0.000 C 
ENDROOT
BRANCH   1   4
ATOM      4  C   UNL     1      48.949   6.469  16.660  0.00  0.00    +0.000 A 
ATOM      5  C   UNL     1      48.156   6.605  17.814  0.00  0.00    +0.000 A 
ATOM      6  C   UNL     1      48.123   5.637  18.809  0.00  0.00    +0.000 A 
ATOM      7  C   UNL     1      48.946   4.527  18.712  0.00  0.00    +0.000 A 
ATOM      8  C   UNL     1      49.897   4.419  17.686  0.00  0.00    +0.000 A 
ATOM      9  C   UNL     1      49.872   5.397  16.667  0.00  0.00    +0.000 A 
BRANCH   8  10
ATOM     10  C   UNL     1      50.880   3.320  17.685  0.00  0.00    +0.000 A 
ATOM     11  C   UNL     1      50.548   2.028  17.267  0.00  0.00    +0.000 A 
ATOM     12  N   UNL     1      51.411   0.984  17.277  0.00  0.00    +0.000 NA
ATOM     13  C   UNL     1      52.644   1.275  17.738  0.00  0.00    +0.000 A 
ATOM     14  C   UNL     1      52.995   2.547  18.161  0.00  0.00    +0.000 A 
ATOM     15  N   UNL     1      52.129   3.590  18.147  0.00  0.00    +0.000 NA
ENDBRANCH   8  10
ENDBRANCH   1   4
BRANCH   1  16
ATOM     16  C   UNL     1      48.506   6.586  14.070  0.00  0.00    +0.000 C 
BRANCH  16  20
ATOM     17  C   UNL     1      44.533   5.913  12.618  0.00  0.00    +0.000 A 
ATOM     18  C   UNL     1      45.193   4.885  13.261  0.00  0.00    +0.000 A 
ATOM     19  C   UNL     1      46.491   5.119  13.708  0.00  0.00    +0.000 A 
ATOM     20  C   UNL     1      47.113   6.374  13.516  0.00  0.00    +0.000 A 
ATOM     21  C   UNL     1      46.370   7.315  12.822  0.00  0.00    +0.000 A 
ATOM     22  N   UNL     1      45.105   7.117  12.381  0.00  0.00    +0.000 NA
BRANCH  17  24
ATOM     23  N   UNL     1      42.106   5.570  11.756  0.00  0.00    +0.000 NA
ATOM     24  C   UNL     1      43.173   5.729  12.183  0.00  0.00    +0.000 C 
ENDBRANCH  17  24
BRANCH  19  25
ATOM     25  C   UNL     1      47.163   4.049  14.391  0.00  0.00    +0.000 C 
ATOM     26  N   UNL     1      47.687   3.189  14.959  0.00  0.00    +0.000 NA
ENDBRANCH  19  25
ENDBRANCH  16  20
ENDBRANCH   1  16
TORSDOF 6
ENDMDL
MODEL 5
REMARK VINA RESULT:    -6.392      2.842      7.702
REMARK INTER + INTRA:          -9.376
REMARK INTER:                  -8.215
REMARK INTRA:                  -1.161
REMARK UNBOUND:                -0.742
REMARK  Name = 
REMARK  6 active torsions:
REMARK  status: ('A' for Active; 'I' for Inactive)
REMARK    1  A    between atoms: C_2  and  C_3
REMARK    2  A    between atoms: C_5  and  C_6
REMARK    3  A    between atoms: C_8  and  C_9
REMARK    4  A    between atoms: C_9  and  C_10
REMARK    5  A    between atoms: C_10  and  C_11
REMARK    6  A    between atoms: C_15  and  C_16
REMARK                            x       y       z     vdW  Elec       q    Type
REMARK                         _______ _______ _______ _____ _____    ______ ____
ROOT
ATOM      1  C   UNL     1      49.230   7.286  16.888  0.00  0.00    +0.000 C 
ATOM      2  C   UNL     1      50.186   8.276  17.536  0.00  0.00    +0.000 C 
ATOM      3  C   UNL     1      48.728   8.600  17.518  0.00  0.00    +0.000 C 
ENDROOT
BRANCH   1   4
ATOM      4  C   UNL     1      48.907   7.248  15.369  0.00  0.00    +0.000 A 
ATOM      5  C   UNL     1      49.711   7.937  14.443  0.00  0.00    +0.000 A 
ATOM      6  C   UNL     1      49.691   7.648  13.085  0.00  0.00    +0.000 A 
ATOM      7  C   UNL     1      48.804   6.701  12.600  0.00  0.00    +0.000 A 
ATOM      8  C   UNL     1      47.845   6.111  13.437  0.00  0.00    +0.000 A 
ATOM      9  C   UNL     1      47.924   6.393  14.819  0.00  0.00    +0.000 A 
BRANCH   8  10
ATOM     10  C   UNL     1      46.801   5.233  12.881  0.00  0.00    +0.000 A 
ATOM     11  C   UNL     1      46.566   3.949  13.383  0.00  0.00    +0.000 A 
ATOM     12  N   UNL     1      45.636   3.100  12.883  0.00  0.00    +0.000 NA
ATOM     13  C   UNL     1      44.938   3.579  11.835  0.00  0.00    +0.000 A 
ATOM     14  C   UNL     1      45.156   4.846  11.318  0.00  0.00    +0.000 A 
ATOM     15  N   UNL     1      46.085   5.694  11.822  0.00  0.00    +0.000 NA
ENDBRANCH   8  10
ENDBRANCH   1   4
BRANCH   1  16
ATOM     16  C   UNL     1      48.848   6.058  17.715  0.00  0.00    +0.000 C 
BRANCH  16  20
ATOM     17  C   UNL     1      51.357   2.588  17.573  0.00  0.00    +0.000 A 
ATOM     18  C   UNL     1      49.992   2.434  17.433  0.00  0.00    +0.000 A 
ATOM     19  C   UNL     1      49.193   3.572  17.502  0.00  0.00    +0.000 A 
ATOM     20  C   UNL     1      49.762   4.850  17.701  0.00  0.00    +0.000 A 
ATOM     21  C   UNL     1      51.137   4.879  17.869  0.00  0.00    +0.000 A 
ATOM     22  N   UNL     1      51.938   3.789  17.802  0.00  0.00    +0.000 NA
BRANCH  17  24
ATOM     23  N   UNL     1      52.953   0.543  17.443  0.00  0.00    +0.000 NA
ATOM     24  C   UNL     1      52.223   1.445  17.460  0.00  0.00    +0.000 C 
ENDBRANCH  17  24
BRANCH  19  25
ATOM     25  C   UNL     1      47.776   3.402  17.338  0.00  0.00    +0.000 C 
ATOM     26  N   UNL     1      46.638   3.267  17.183  0.00  0.00    +0.000 NA
ENDBRANCH  19  25
ENDBRANCH  16  20
ENDBRANCH   1  16
TORSDOF 6
ENDMDL
MODEL 6
REMARK VINA RESULT:    -6.213      1.692      7.262
REMARK INTER + INTRA:          -9.134
REMARK INTER:                  -9.264
REMARK INTRA:                   0.131
REMARK UNBOUND:                -0.742
REMARK  Name = 
REMARK  6 active torsions:
REMARK  status: ('A' for Active; 'I' for Inactive)
REMARK    1  A    between atoms: C_2  and  C_3
REMARK    2  A    between atoms: C_5  and  C_6
REMARK    3  A    between atoms: C_8  and  C_9
REMARK    4  A    between atoms: C_9  and  C_10
REMARK    5  A    between atoms: C_10  and  C_11
REMARK    6  A    between atoms: C_15  and  C_16
REMARK                            x       y       z     vdW  Elec       q    Type
REMARK                         _______ _______ _______ _____ _____    ______ ____
ROOT
ATOM      1  C   UNL     1      46.306   7.664  12.118  0.00  0.00    +0.000 C 
ATOM      2  C   UNL     1      46.092   9.128  11.765  0.00  0.00    +0.000 C 
ATOM      3  C   UNL     1      45.457   8.594  13.007  0.00  0.00    +0.000 C 
ENDROOT
BRANCH   1   4
ATOM      4  C   UNL     1      45.443   6.497  11.565  0.00  0.00    +0.000 A 
ATOM      5  C   UNL     1      44.076   6.396  11.882  0.00  0.00    +0.000 A 
ATOM      6  C   UNL     1      43.200   5.612  11.144  0.00  0.00    +0.000 A 
ATOM      7  C   UNL     1      43.686   4.839  10.102  0.00  0.00    +0.000 A 
ATOM      8  C   UNL     1      45.063   4.745   9.850  0.00  0.00    +0.000 A 
ATOM      9  C   UNL     1      45.920   5.591  10.588  0.00  0.00    +0.000 A 
BRANCH   8  10
ATOM     10  C   UNL     1      45.581   3.795   8.850  0.00  0.00    +0.000 A 
ATOM     11  C   UNL     1      45.544   2.412   9.052  0.00  0.00    +0.000 A 
ATOM     12  N   UNL     1      46.035   1.505   8.173  0.00  0.00    +0.000 NA
ATOM     13  C   UNL     1      46.584   2.036   7.062  0.00  0.00    +0.000 A 
ATOM     14  C   UNL     1      46.635   3.403   6.842  0.00  0.00    +0.000 A 
ATOM     15  N   UNL     1      46.141   4.306   7.723  0.00  0.00    +0.000 NA
ENDBRANCH   8  10
ENDBRANCH   1   4
BRANCH   1  16
ATOM     16  C   UNL     1      47.644   7.301  12.762  0.00  0.00    +0.000 C 
BRANCH  16  20
ATOM     17  C   UNL     1      47.718   4.403  15.916  0.00  0.00    +0.000 A 
ATOM     18  C   UNL     1      48.388   5.597  16.089  0.00  0.00    +0.000 A 
ATOM     19  C   UNL     1      48.368   6.517  15.044  0.00  0.00    +0.000 A 
ATOM     20  C   UNL     1      47.675   6.241  13.843  0.00  0.00    +0.000 A 
ATOM     21  C   UNL     1      47.074   4.995  13.766  0.00  0.00    +0.000 A 
ATOM     22  N   UNL     1      47.073   4.084  14.769  0.00  0.00    +0.000 NA
BRANCH  17  24
ATOM     23  N   UNL     1      47.659   2.733  17.905  0.00  0.00    +0.000 NA
ATOM     24  C   UNL     1      47.673   3.445  16.989  0.00  0.00    +0.000 C 
ENDBRANCH  17  24
BRANCH  19  25
ATOM     25  C   UNL     1      49.055   7.763  15.240  0.00  0.00    +0.000 C 
ATOM     26  N   UNL     1      49.597   8.769  15.420  0.00  0.00    +0.000 NA
ENDBRANCH  19  25
ENDBRANCH  16  20
ENDBRANCH   1  16
TORSDOF 6
ENDMDL
MODEL 7
REMARK VINA RESULT:    -6.076      2.796      8.165
REMARK INTER + INTRA:          -8.949
REMARK INTER:                  -8.007
REMARK INTRA:                  -0.943
REMARK UNBOUND:                -0.742
REMARK  Name = 
REMARK  6 active torsions:
REMARK  status: ('A' for Active; 'I' for Inactive)
REMARK    1  A    between atoms: C_2  and  C_3
REMARK    2  A    between atoms: C_5  and  C_6
REMARK    3  A    between atoms: C_8  and  C_9
REMARK    4  A    between atoms: C_9  and  C_10
REMARK    5  A    between atoms: C_10  and  C_11
REMARK    6  A    between atoms: C_15  and  C_16
REMARK                            x       y       z     vdW  Elec       q    Type
REMARK                         _______ _______ _______ _____ _____    ______ ____
ROOT
ATOM      1  C   UNL     1      48.819   8.167  12.544  0.00  0.00    +0.000 C 
ATOM      2  C   UNL     1      49.943   7.872  11.564  0.00  0.00    +0.000 C 
ATOM      3  C   UNL     1      49.231   9.180  11.459  0.00  0.00    +0.000 C 
ENDROOT
BRANCH   1   4
ATOM      4  C   UNL     1      47.345   7.719  12.345  0.00  0.00    +0.000 A 
ATOM      5  C   UNL     1      46.280   8.519  12.799  0.00  0.00    +0.000 A 
ATOM      6  C   UNL     1      44.981   8.356  12.337  0.00  0.00    +0.000 A 
ATOM      7  C   UNL     1      44.694   7.330  11.452  0.00  0.00    +0.000 A 
ATOM      8  C   UNL     1      45.666   6.381  11.103  0.00  0.00    +0.000 A 
ATOM      9  C   UNL     1      46.986   6.603  11.554  0.00  0.00    +0.000 A 
BRANCH   8  10
ATOM     10  C   UNL     1      45.309   5.201  10.296  0.00  0.00    +0.000 A 
ATOM     11  C   UNL     1      44.572   4.136  10.824  0.00  0.00    +0.000 A 
ATOM     12  N   UNL     1      44.247   3.021  10.126  0.00  0.00    +0.000 NA
ATOM     13  C   UNL     1      44.699   2.998   8.856  0.00  0.00    +0.000 A 
ATOM     14  C   UNL     1      45.433   4.039   8.313  0.00  0.00    +0.000 A 
ATOM     15  N   UNL     1      45.755   5.154   9.013  0.00  0.00    +0.000 NA
ENDBRANCH   8  10
ENDBRANCH   1   4
BRANCH   1  16
ATOM     16  C   UNL     1      49.230   8.614  13.947  0.00  0.00    +0.000 C 
BRANCH  16  20
ATOM     17  C   UNL     1      50.657   5.767  16.812  0.00  0.00    +0.000 A 
ATOM     18  C   UNL     1      51.551   6.652  16.247  0.00  0.00    +0.000 A 
ATOM     19  C   UNL     1      51.071   7.557  15.303  0.00  0.00    +0.000 A 
ATOM     20  C   UNL     1      49.705   7.574  14.940  0.00  0.00    +0.000 A 
ATOM     21  C   UNL     1      48.909   6.612  15.541  0.00  0.00    +0.000 A 
ATOM     22  N   UNL     1      49.348   5.725  16.465  0.00  0.00    +0.000 NA
BRANCH  17  24
ATOM     23  N   UNL     1      51.529   4.152  18.651  0.00  0.00    +0.000 NA
ATOM     24  C   UNL     1      51.102   4.848  17.826  0.00  0.00    +0.000 C 
ENDBRANCH  17  24
BRANCH  19  25
ATOM     25  C   UNL     1      52.007   8.485  14.733  0.00  0.00    +0.000 C 
ATOM     26  N   UNL     1      52.751   9.229  14.253  0.00  0.00    +0.000 NA
ENDBRANCH  19  25
ENDBRANCH  16  20
ENDBRANCH   1  16
TORSDOF 6
ENDMDL
MODEL 8
REMARK VINA RESULT:    -6.012      3.027      6.736
REMARK INTER + INTRA:          -8.863
REMARK INTER:                  -8.010
REMARK INTRA:                  -0.853
REMARK UNBOUND:                -0.742
REMARK  Name = 
REMARK  6 active torsions:
REMARK  status: ('A' for Active; 'I' for Inactive)
REMARK    1  A    between atoms: C_2  and  C_3
REMARK    2  A    between atoms: C_5  and  C_6
REMARK    3  A    between atoms: C_8  and  C_9
REMARK    4  A    between atoms: C_9  and  C_10
REMARK    5  A    between atoms: C_10  and  C_11
REMARK    6  A    between atoms: C_15  and  C_16
REMARK                            x       y       z     vdW  Elec       q    Type
REMARK                         _______ _______ _______ _____ _____    ______ ____
ROOT
ATOM      1  C   UNL     1      45.195   8.210  11.825  0.00  0.00    +0.000 C 
ATOM      2  C   UNL     1      44.874   9.345  10.865  0.00  0.00    +0.000 C 
ATOM      3  C   UNL     1      43.964   9.114  12.027  0.00  0.00    +0.000 C 
ENDROOT
BRANCH   1   4
ATOM      4  C   UNL     1      44.762   6.734  11.610  0.00  0.00    +0.000 A 
ATOM      5  C   UNL     1      43.652   6.201  12.290  0.00  0.00    +0.000 A 
ATOM      6  C   UNL     1      43.015   5.039  11.875  0.00  0.00    +0.000 A 
ATOM      7  C   UNL     1      43.521   4.330  10.797  0.00  0.00    +0.000 A 
ATOM      8  C   UNL     1      44.730   4.700  10.190  0.00  0.00    +0.000 A 
ATOM      9  C   UNL     1      45.326   5.910  10.608  0.00  0.00    +0.000 A 
BRANCH   8  10
ATOM     10  C   UNL     1      45.344   3.846   9.158  0.00  0.00    +0.000 A 
ATOM     11  C   UNL     1      45.365   2.452   9.263  0.00  0.00    +0.000 A 
ATOM     12  N   UNL     1      45.943   1.633   8.352  0.00  0.00    +0.000 NA
ATOM     13  C   UNL     1      46.523   2.264   7.312  0.00  0.00    +0.000 A 
ATOM     14  C   UNL     1      46.518   3.644   7.188  0.00  0.00    +0.000 A 
ATOM     15  N   UNL     1      45.936   4.461   8.100  0.00  0.00    +0.000 NA
ENDBRANCH   8  10
ENDBRANCH   1   4
BRANCH   1  16
ATOM     16  C   UNL     1      46.290   8.474  12.859  0.00  0.00    +0.000 C 
BRANCH  16  20
ATOM     17  C   UNL     1      50.350   8.618  11.499  0.00  0.00    +0.000 A 
ATOM     18  C   UNL     1      49.874   7.451  12.061  0.00  0.00    +0.000 A 
ATOM     19  C   UNL     1      48.558   7.432  12.515  0.00  0.00    +0.000 A 
ATOM     20  C   UNL     1      47.729   8.570  12.396  0.00  0.00    +0.000 A 
ATOM     21  C   UNL     1      48.326   9.697  11.854  0.00  0.00    +0.000 A 
ATOM     22  N   UNL     1      49.602   9.743  11.400  0.00  0.00    +0.000 NA
BRANCH  17  24
ATOM     23  N   UNL     1      52.771   8.624  10.557  0.00  0.00    +0.000 NA
ATOM     24  C   UNL     1      51.689   8.667  10.974  0.00  0.00    +0.000 C 
ENDBRANCH  17  24
BRANCH  19  25
ATOM     25  C   UNL     1      48.067   6.207  13.083  0.00  0.00    +0.000 C 
ATOM     26  N   UNL     1      47.653   5.222  13.526  0.00  0.00    +0.000 NA
ENDBRANCH  19  25
ENDBRANCH  16  20
ENDBRANCH   1  16
TORSDOF 6
ENDMDL
MODEL 9
REMARK VINA RESULT:    -5.730      2.586      8.156
REMARK INTER + INTRA:          -8.482
REMARK INTER:                  -7.591
REMARK INTRA:                  -0.890
REMARK UNBOUND:                -0.742
REMARK  Name = 
REMARK  6 active torsions:
REMARK  status: ('A' for Active; 'I' for Inactive)
REMARK    1  A    between atoms: C_2  and  C_3
REMARK    2  A    between atoms: C_5  and  C_6
REMARK    3  A    between atoms: C_8  and  C_9
REMARK    4  A    between atoms: C_9  and  C_10
REMARK    5  A    between atoms: C_10  and  C_11
REMARK    6  A    between atoms: C_15  and  C_16
REMARK                            x       y       z     vdW  Elec       q    Type
REMARK                         _______ _______ _______ _____ _____    ______ ____
ROOT
ATOM      1  C   UNL     1      48.809   8.208  12.645  0.00  0.00    +0.000 C 
ATOM      2  C   UNL     1      49.975   7.766  11.774  0.00  0.00    +0.000 C 
ATOM      3  C   UNL     1      49.332   9.084  11.491  0.00  0.00    +0.000 C 
ENDROOT
BRANCH   1   4
ATOM      4  C   UNL     1      47.330   7.802  12.399  0.00  0.00    +0.000 A 
ATOM      5  C   UNL     1      46.278   8.684  12.706  0.00  0.00    +0.000 A 
ATOM      6  C   UNL     1      45.002   8.529  12.182  0.00  0.00    +0.000 A 
ATOM      7  C   UNL     1      44.720   7.432  11.384  0.00  0.00    +0.000 A 
ATOM      8  C   UNL     1      45.666   6.415  11.189  0.00  0.00    +0.000 A 
ATOM      9  C   UNL     1      46.967   6.628  11.698  0.00  0.00    +0.000 A 
BRANCH   8  10
ATOM     10  C   UNL     1      45.303   5.176  10.479  0.00  0.00    +0.000 A 
ATOM     11  C   UNL     1      45.586   4.988   9.123  0.00  0.00    +0.000 A 
ATOM     12  N   UNL     1      45.245   3.878   8.425  0.00  0.00    +0.000 NA
ATOM     13  C   UNL     1      44.587   2.942   9.139  0.00  0.00    +0.000 A 
ATOM     14  C   UNL     1      44.293   3.108  10.483  0.00  0.00    +0.000 A 
ATOM     15  N   UNL     1      44.638   4.219  11.178  0.00  0.00    +0.000 NA
ENDBRANCH   8  10
ENDBRANCH   1   4
BRANCH   1  16
ATOM     16  C   UNL     1      49.157   8.782  14.019  0.00  0.00    +0.000 C 
BRANCH  16  20
ATOM     17  C   UNL     1      48.759   6.335  17.512  0.00  0.00    +0.000 A 
ATOM     18  C   UNL     1      48.687   7.707  17.645  0.00  0.00    +0.000 A 
ATOM     19  C   UNL     1      48.838   8.485  16.500  0.00  0.00    +0.000 A 
ATOM     20  C   UNL     1      49.052   7.888  15.237  0.00  0.00    +0.000 A 
ATOM     21  C   UNL     1      49.148   6.506  15.231  0.00  0.00    +0.000 A 
ATOM     22  N   UNL     1      49.000   5.725  16.328  0.00  0.00    +0.000 NA
BRANCH  17  24
ATOM     23  N   UNL     1      48.422   4.749  19.542  0.00  0.00    +0.000 NA
ATOM     24  C   UNL     1      48.560   5.492  18.662  0.00  0.00    +0.000 C 
ENDBRANCH  17  24
BRANCH  19  25
ATOM     25  C   UNL     1      48.744   9.911  16.646  0.00  0.00    +0.000 C 
ATOM     26  N   UNL     1      48.691  11.059  16.773  0.00  0.00    +0.000 NA
ENDBRANCH  19  25
ENDBRANCH  16  20
ENDBRANCH   1  16
TORSDOF 6
ENDMDL
