MODEL 1
REMARK VINA RESULT:    -7.231      0.000      0.000
REMARK INTER + INTRA:         -10.133
REMARK INTER:                  -9.133
REMARK INTRA:                  -1.000
REMARK UNBOUND:                -1.000
REMARK  Name = 
REMARK  5 active torsions:
REMARK  status: ('A' for Active; 'I' for Inactive)
REMARK    1  A    between atoms: C_2  and  C_13
REMARK    2  A    between atoms: N_3  and  CA_4
REMARK    3  A    between atoms: CA_4  and  C_5
REMARK    4  A    between atoms: CA_4  and  C_7
REMARK    5  A    between atoms: C_5  and  O_6
REMARK                            x       y       z     vdW  Elec       q    Type
REMARK                         _______ _______ _______ _____ _____    ______ ____
ROOT
ATOM      1  O   UNL     1      42.889   6.092  11.328  0.00  0.00    +0.000 OA
ATOM      2  C   UNL     1      44.115   6.087  11.271  0.00  0.00    +0.000 C 
ATOM      3  N   UNL     1      44.815   5.075  10.669  0.00  0.00    +0.000 N 
ATOM      4  H   UNL     1      45.826   5.060  10.735  0.00  0.00    +0.000 HD
ENDROOT
BRANCH   2   5
ATOM      5  C   UNL     1      44.915   7.192  11.805  0.00  0.00    +0.000 A 
ATOM      6  C   UNL     1      44.624   8.506  11.460  0.00  0.00    +0.000 A 
ATOM      7  S   UNL     1      45.671   9.646  12.175  0.00  0.00    +0.000 S 
ATOM      8  C   UNL     1      46.512   8.429  13.018  0.00  0.00    +0.000 A 
ATOM      9  N   UNL     1      47.530   8.737  13.866  0.00  0.00    +0.000 NA
ATOM     10  C   UNL     1      48.057   7.718  14.459  0.00  0.00    +0.000 A 
ATOM     11  N   UNL     1      47.667   6.416  14.272  0.00  0.00    +0.000 N 
ATOM     12  C   UNL     1      46.665   6.053  13.406  0.00  0.00    +0.000 A 
ATOM     13  O   UNL     1      46.370   4.876  13.221  0.00  0.00    +0.000 OA
ATOM     14  C   UNL     1      46.022   7.168  12.729  0.00  0.00    +0.000 A 
ATOM     15  H   UNL     1      48.135   5.666  14.760  0.00  0.00    +0.000 HD
ENDBRANCH   2   5
BRANCH   3  16
ATOM     16  CA  UNL     1      44.172   3.891  10.125  0.00  0.00    +0.000 C 
BRANCH  16  17
ATOM     17  C   UNL     1      45.067   3.270   9.065  0.00  0.00    +0.000 A 
ATOM     18  C   UNL     1      45.684   4.084   8.109  0.00  0.00    +0.000 A 
ATOM     19  C   UNL     1      46.508   3.500   7.158  0.00  0.00    +0.000 A 
ATOM     20  N   UNL     1      46.763   2.176   7.096  0.00  0.00    +0.000 NA
ATOM     21  C   UNL     1      46.172   1.405   8.029  0.00  0.00    +0.000 A 
ATOM     22  C   UNL     1      45.338   1.897   9.022  0.00  0.00    +0.000 A 
ENDBRANCH  16  17
BRANCH  16  23
ATOM     23  C   UNL     1      43.736   2.905  11.239  0.00  0.00    +0.000 C 
BRANCH  23  24
ATOM     24  O   UNL     1      44.682   2.791  12.306  0.00  0.00    +0.000 OA
ATOM     25  H   UNL     1      45.524   3.164  11.985  0.00  0.00    +0.000 HD
ENDBRANCH  23  24
ENDBRANCH  16  23
ENDBRANCH   3  16
TORSDOF 5
ENDMDL
MODEL 2
REMARK VINA RESULT:    -7.086      1.478      1.801
REMARK INTER + INTRA:          -9.950
REMARK INTER:                  -8.908
REMARK INTRA:                  -1.043
REMARK UNBOUND:                -1.000
REMARK  Name = 
REMARK  5 active torsions:
REMARK  status: ('A' for Active; 'I' for Inactive)
REMARK    1  A    between atoms: C_2  and  C_13
REMARK    2  A    between atoms: N_3  and  CA_4
REMARK    3  A    between atoms: CA_4  and  C_5
REMARK    4  A    between atoms: CA_4  and  C_7
REMARK    5  A    between atoms: C_5  and  O_6
REMARK                            x       y       z     vdW  Elec       q    Type
REMARK                         _______ _______ _______ _____ _____    ______ ____
ROOT
ATOM      1  O   UNL     1      44.716   6.839  11.159  0.00  0.00    +0.000 OA
ATOM      2  C   UNL     1      45.586   6.065  11.547  0.00  0.00    +0.000 C 
ATOM      3  N   UNL     1      45.620   4.750  11.163  0.00  0.00    +0.000 N 
ATOM      4  H   UNL     1      46.294   4.123  11.588  0.00  0.00    +0.000 HD
ENDROOT
BRANCH   2   5
ATOM      5  C   UNL     1      46.681   6.509  12.415  0.00  0.00    +0.000 A 
ATOM      6  C   UNL     1      47.435   7.627  12.084  0.00  0.00    +0.000 A 
ATOM      7  S   UNL     1      48.665   7.977  13.212  0.00  0.00    +0.000 S 
ATOM      8  C   UNL     1      48.195   6.683  14.212  0.00  0.00    +0.000 A 
ATOM      9  N   UNL     1      48.826   6.442  15.392  0.00  0.00    +0.000 NA
ATOM     10  C   UNL     1      48.345   5.447  16.061  0.00  0.00    +0.000 A 
ATOM     11  N   UNL     1      47.297   4.662  15.650  0.00  0.00    +0.000 N 
ATOM     12  C   UNL     1      46.647   4.848  14.455  0.00  0.00    +0.000 A 
ATOM     13  O   UNL     1      45.745   4.100  14.090  0.00  0.00    +0.000 OA
ATOM     14  C   UNL     1      47.136   5.973  13.674  0.00  0.00    +0.000 A 
ATOM     15  H   UNL     1      46.983   3.889  16.219  0.00  0.00    +0.000 HD
ENDBRANCH   2   5
BRANCH   3  16
ATOM     16  CA  UNL     1      44.588   4.146  10.338  0.00  0.00    +0.000 C 
BRANCH  16  17
ATOM     17  C   UNL     1      45.235   3.398   9.184  0.00  0.00    +0.000 A 
ATOM     18  C   UNL     1      45.727   4.105   8.082  0.00  0.00    +0.000 A 
ATOM     19  C   UNL     1      46.327   3.405   7.046  0.00  0.00    +0.000 A 
ATOM     20  N   UNL     1      46.475   2.063   7.032  0.00  0.00    +0.000 NA
ATOM     21  C   UNL     1      46.007   1.395   8.104  0.00  0.00    +0.000 A 
ATOM     22  C   UNL     1      45.399   2.007   9.191  0.00  0.00    +0.000 A 
ENDBRANCH  16  17
BRANCH  16  23
ATOM     23  C   UNL     1      43.604   3.288  11.175  0.00  0.00    +0.000 C 
BRANCH  23  24
ATOM     24  O   UNL     1      44.214   2.650  12.299  0.00  0.00    +0.000 OA
ATOM     25  H   UNL     1      44.002   3.187  13.085  0.00  0.00    +0.000 HD
ENDBRANCH  23  24
ENDBRANCH  16  23
ENDBRANCH   3  16
TORSDOF 5
ENDMDL
MODEL 3
REMARK VINA RESULT:    -6.684      3.049      7.338
REMARK INTER + INTRA:          -9.443
REMARK INTER:                  -8.379
REMARK INTRA:                  -1.065
REMARK UNBOUND:                -1.000
REMARK  Name = 
REMARK  5 active torsions:
REMARK  status: ('A' for Active; 'I' for Inactive)
REMARK    1  A    between atoms: C_2  and  C_13
REMARK    2  A    between atoms: N_3  and  CA_4
REMARK    3  A    between atoms: CA_4  and  C_5
REMARK    4  A    between atoms: CA_4  and  C_7
REMARK    5  A    between atoms: C_5  and  O_6
REMARK                            x       y       z     vdW  Elec       q    Type
REMARK                         _______ _______ _______ _____ _____    ______ ____
ROOT
ATOM      1  O   UNL     1      48.653   6.154  13.784  0.00  0.00    +0.000 OA
ATOM      2  C   UNL     1      47.518   5.763  14.037  0.00  0.00    +0.000 C 
ATOM      3  N   UNL     1      47.205   5.138  15.215  0.00  0.00    +0.000 N 
ATOM      4  H   UNL     1      46.281   4.740  15.338  0.00  0.00    +0.000 HD
ENDROOT
BRANCH   2   5
ATOM      5  C   UNL     1      46.405   5.981  13.110  0.00  0.00    +0.000 A 
ATOM      6  C   UNL     1      46.073   7.263  12.694  0.00  0.00    +0.000 A 
ATOM      7  S   UNL     1      44.746   7.311  11.624  0.00  0.00    +0.000 S 
ATOM      8  C   UNL     1      44.606   5.614  11.632  0.00  0.00    +0.000 A 
ATOM      9  N   UNL     1      43.670   4.982  10.874  0.00  0.00    +0.000 NA
ATOM     10  C   UNL     1      43.699   3.694  10.955  0.00  0.00    +0.000 A 
ATOM     11  N   UNL     1      44.570   2.978  11.738  0.00  0.00    +0.000 N 
ATOM     12  C   UNL     1      45.512   3.572  12.541  0.00  0.00    +0.000 A 
ATOM     13  O   UNL     1      46.246   2.909  13.269  0.00  0.00    +0.000 OA
ATOM     14  C   UNL     1      45.537   5.024  12.468  0.00  0.00    +0.000 A 
ATOM     15  H   UNL     1      44.525   1.970  11.764  0.00  0.00    +0.000 HD
ENDBRANCH   2   5
BRANCH   3  16
ATOM     16  CA  UNL     1      48.202   4.814  16.222  0.00  0.00    +0.000 C 
BRANCH  16  17
ATOM     17  C   UNL     1      48.075   5.779  17.389  0.00  0.00    +0.000 A 
ATOM     18  C   UNL     1      47.379   5.394  18.540  0.00  0.00    +0.000 A 
ATOM     19  C   UNL     1      47.287   6.284  19.600  0.00  0.00    +0.000 A 
ATOM     20  N   UNL     1      47.838   7.516  19.597  0.00  0.00    +0.000 NA
ATOM     21  C   UNL     1      48.515   7.870  18.488  0.00  0.00    +0.000 A 
ATOM     22  C   UNL     1      48.668   7.048  17.381  0.00  0.00    +0.000 A 
ENDBRANCH  16  17
BRANCH  16  23
ATOM     23  C   UNL     1      48.150   3.319  16.629  0.00  0.00    +0.000 C 
BRANCH  23  24
ATOM     24  O   UNL     1      48.389   2.420  15.543  0.00  0.00    +0.000 OA
ATOM     25  H   UNL     1      49.262   2.012  15.695  0.00  0.00    +0.000 HD
ENDBRANCH  23  24
ENDBRANCH  16  23
ENDBRANCH   3  16
TORSDOF 5
ENDMDL
MODEL 4
REMARK VINA RESULT:    -6.527      3.198      5.008
REMARK INTER + INTRA:          -9.244
REMARK INTER:                  -8.316
REMARK INTRA:                  -0.928
REMARK UNBOUND:                -1.000
REMARK  Name = 
REMARK  5 active torsions:
REMARK  status: ('A' for Active; 'I' for Inactive)
REMARK    1  A    between atoms: C_2  and  C_13
REMARK    2  A    between atoms: N_3  and  CA_4
REMARK    3  A    between atoms: CA_4  and  C_5
REMARK    4  A    between atoms: CA_4  and  C_7
REMARK    5  A    between atoms: C_5  and  O_6
REMARK                            x       y       z     vdW  Elec       q    Type
REMARK                         _______ _______ _______ _____ _____    ______ ____
ROOT
ATOM      1  O   UNL     1      48.931   6.386  13.072  0.00  0.00    +0.000 OA
ATOM      2  C   UNL     1      48.045   6.182  13.896  0.00  0.00    +0.000 C 
ATOM      3  N   UNL     1      46.732   6.023  13.536  0.00  0.00    +0.000 N 
ATOM      4  H   UNL     1      46.022   5.960  14.255  0.00  0.00    +0.000 HD
ENDROOT
BRANCH   2   5
ATOM      5  C   UNL     1      48.339   6.046  15.325  0.00  0.00    +0.000 A 
ATOM      6  C   UNL     1      48.802   7.132  16.057  0.00  0.00    +0.000 A 
ATOM      7  S   UNL     1      49.094   6.774  17.698  0.00  0.00    +0.000 S 
ATOM      8  C   UNL     1      48.555   5.170  17.502  0.00  0.00    +0.000 A 
ATOM      9  N   UNL     1      48.507   4.312  18.556  0.00  0.00    +0.000 NA
ATOM     10  C   UNL     1      48.051   3.139  18.267  0.00  0.00    +0.000 A 
ATOM     11  N   UNL     1      47.649   2.741  17.017  0.00  0.00    +0.000 N 
ATOM     12  C   UNL     1      47.706   3.563  15.918  0.00  0.00    +0.000 A 
ATOM     13  O   UNL     1      47.387   3.165  14.801  0.00  0.00    +0.000 OA
ATOM     14  C   UNL     1      48.192   4.905  16.195  0.00  0.00    +0.000 A 
ATOM     15  H   UNL     1      47.316   1.801  16.861  0.00  0.00    +0.000 HD
ENDBRANCH   2   5
BRANCH   3  16
ATOM     16  CA  UNL     1      46.272   6.166  12.165  0.00  0.00    +0.000 C 
BRANCH  16  17
ATOM     17  C   UNL     1      45.233   5.099  11.865  0.00  0.00    +0.000 A 
ATOM     18  C   UNL     1      44.951   4.752  10.540  0.00  0.00    +0.000 A 
ATOM     19  C   UNL     1      44.009   3.765  10.288  0.00  0.00    +0.000 A 
ATOM     20  N   UNL     1      43.338   3.102  11.254  0.00  0.00    +0.000 NA
ATOM     21  C   UNL     1      43.627   3.438  12.526  0.00  0.00    +0.000 A 
ATOM     22  C   UNL     1      44.557   4.406  12.877  0.00  0.00    +0.000 A 
ENDBRANCH  16  17
BRANCH  16  23
ATOM     23  C   UNL     1      45.800   7.611  11.860  0.00  0.00    +0.000 C 
BRANCH  23  24
ATOM     24  O   UNL     1      44.690   8.032  12.659  0.00  0.00    +0.000 OA
ATOM     25  H   UNL     1      44.563   8.985  12.494  0.00  0.00    +0.000 HD
ENDBRANCH  23  24
ENDBRANCH  16  23
ENDBRANCH   3  16
TORSDOF 5
ENDMDL
MODEL 5
REMARK VINA RESULT:    -6.232      3.396      6.931
REMARK INTER + INTRA:          -8.872
REMARK INTER:                  -8.272
REMARK INTRA:                  -0.601
REMARK UNBOUND:                -1.000
REMARK  Name = 
REMARK  5 active torsions:
REMARK  status: ('A' for Active; 'I' for Inactive)
REMARK    1  A    between atoms: C_2  and  C_13
REMARK    2  A    between atoms: N_3  and  CA_4
REMARK    3  A    between atoms: CA_4  and  C_5
REMARK    4  A    between atoms: CA_4  and  C_7
REMARK    5  A    between atoms: C_5  and  O_6
REMARK                            x       y       z     vdW  Elec       q    Type
REMARK                         _______ _______ _______ _____ _____    ______ ____
ROOT
ATOM      1  O   UNL     1      47.221   3.288  13.797  0.00  0.00    +0.000 OA
ATOM      2  C   UNL     1      46.949   4.383  14.279  0.00  0.00    +0.000 C 
ATOM      3  N   UNL     1      47.276   4.717  15.568  0.00  0.00    +0.000 N 
ATOM      4  H   UNL     1      46.941   5.591  15.956  0.00  0.00    +0.000 HD
ENDROOT
BRANCH   2   5
ATOM      5  C   UNL     1      46.294   5.430  13.491  0.00  0.00    +0.000 A 
ATOM      6  C   UNL     1      46.920   6.651  13.280  0.00  0.00    +0.000 A 
ATOM      7  S   UNL     1      45.996   7.739  12.347  0.00  0.00    +0.000 S 
ATOM      8  C   UNL     1      44.752   6.595  12.142  0.00  0.00    +0.000 A 
ATOM      9  N   UNL     1      43.654   6.879  11.392  0.00  0.00    +0.000 NA
ATOM     10  C   UNL     1      42.807   5.908  11.298  0.00  0.00    +0.000 A 
ATOM     11  N   UNL     1      42.952   4.683  11.899  0.00  0.00    +0.000 N 
ATOM     12  C   UNL     1      44.028   4.360  12.688  0.00  0.00    +0.000 A 
ATOM     13  O   UNL     1      44.108   3.274  13.254  0.00  0.00    +0.000 OA
ATOM     14  C   UNL     1      45.024   5.413  12.806  0.00  0.00    +0.000 A 
ATOM     15  H   UNL     1      42.240   3.974  11.795  0.00  0.00    +0.000 HD
ENDBRANCH   2   5
BRANCH   3  16
ATOM     16  CA  UNL     1      47.893   3.779  16.489  0.00  0.00    +0.000 C 
BRANCH  16  17
ATOM     17  C   UNL     1      49.259   4.299  16.903  0.00  0.00    +0.000 A 
ATOM     18  C   UNL     1      49.559   5.659  16.763  0.00  0.00    +0.000 A 
ATOM     19  C   UNL     1      50.808   6.117  17.159  0.00  0.00    +0.000 A 
ATOM     20  N   UNL     1      51.767   5.325  17.685  0.00  0.00    +0.000 NA
ATOM     21  C   UNL     1      51.461   4.021  17.825  0.00  0.00    +0.000 A 
ATOM     22  C   UNL     1      50.239   3.471  17.464  0.00  0.00    +0.000 A 
ENDBRANCH  16  17
BRANCH  16  23
ATOM     23  C   UNL     1      46.960   3.438  17.680  0.00  0.00    +0.000 C 
BRANCH  23  24
ATOM     24  O   UNL     1      46.587   4.576  18.460  0.00  0.00    +0.000 OA
ATOM     25  H   UNL     1      46.604   4.302  19.396  0.00  0.00    +0.000 HD
ENDBRANCH  23  24
ENDBRANCH  16  23
ENDBRANCH   3  16
TORSDOF 5
ENDMDL
MODEL 6
REMARK VINA RESULT:    -6.087      3.896      7.096
REMARK INTER + INTRA:          -8.688
REMARK INTER:                  -8.512
REMARK INTRA:                  -0.177
REMARK UNBOUND:                -1.000
REMARK  Name = 
REMARK  5 active torsions:
REMARK  status: ('A' for Active; 'I' for Inactive)
REMARK    1  A    between atoms: C_2  and  C_13
REMARK    2  A    between atoms: N_3  and  CA_4
REMARK    3  A    between atoms: CA_4  and  C_5
REMARK    4  A    between atoms: CA_4  and  C_7
REMARK    5  A    between atoms: C_5  and  O_6
REMARK                            x       y       z     vdW  Elec       q    Type
REMARK                         _______ _______ _______ _____ _____    ______ ____
ROOT
ATOM      1  O   UNL     1      47.315   3.269  14.884  0.00  0.00    +0.000 OA
ATOM      2  C   UNL     1      47.397   4.488  14.990  0.00  0.00    +0.000 C 
ATOM      3  N   UNL     1      47.739   5.100  16.168  0.00  0.00    +0.000 N 
ATOM      4  H   UNL     1      47.695   6.110  16.237  0.00  0.00    +0.000 HD
ENDROOT
BRANCH   2   5
ATOM      5  C   UNL     1      47.179   5.377  13.845  0.00  0.00    +0.000 A 
ATOM      6  C   UNL     1      47.936   6.531  13.693  0.00  0.00    +0.000 A 
ATOM      7  S   UNL     1      47.529   7.436  12.306  0.00  0.00    +0.000 S 
ATOM      8  C   UNL     1      46.367   6.286  11.829  0.00  0.00    +0.000 A 
ATOM      9  N   UNL     1      45.664   6.437  10.675  0.00  0.00    +0.000 NA
ATOM     10  C   UNL     1      44.840   5.475  10.424  0.00  0.00    +0.000 A 
ATOM     11  N   UNL     1      44.644   4.381  11.229  0.00  0.00    +0.000 N 
ATOM     12  C   UNL     1      45.309   4.200  12.417  0.00  0.00    +0.000 A 
ATOM     13  O   UNL     1      45.079   3.237  13.142  0.00  0.00    +0.000 OA
ATOM     14  C   UNL     1      46.268   5.246  12.734  0.00  0.00    +0.000 A 
ATOM     15  H   UNL     1      43.970   3.673  10.977  0.00  0.00    +0.000 HD
ENDBRANCH   2   5
BRANCH   3  16
ATOM     16  CA  UNL     1      47.950   4.362  17.402  0.00  0.00    +0.000 C 
BRANCH  16  17
ATOM     17  C   UNL     1      49.365   3.808  17.425  0.00  0.00    +0.000 A 
ATOM     18  C   UNL     1      50.447   4.665  17.653  0.00  0.00    +0.000 A 
ATOM     19  C   UNL     1      51.729   4.137  17.684  0.00  0.00    +0.000 A 
ATOM     20  N   UNL     1      52.008   2.827  17.512  0.00  0.00    +0.000 NA
ATOM     21  C   UNL     1      50.956   2.011  17.306  0.00  0.00    +0.000 A 
ATOM     22  C   UNL     1      49.639   2.444  17.265  0.00  0.00    +0.000 A 
ENDBRANCH  16  17
BRANCH  16  23
ATOM     23  C   UNL     1      47.582   5.205  18.651  0.00  0.00    +0.000 C 
BRANCH  23  24
ATOM     24  O   UNL     1      46.182   5.475  18.767  0.00  0.00    +0.000 OA
ATOM     25  H   UNL     1      45.938   6.053  18.021  0.00  0.00    +0.000 HD
ENDBRANCH  23  24
ENDBRANCH  16  23
ENDBRANCH   3  16
TORSDOF 5
ENDMDL
MODEL 7
REMARK VINA RESULT:    -5.999      1.832      2.867
REMARK INTER + INTRA:          -8.578
REMARK INTER:                  -8.416
REMARK INTRA:                  -0.162
REMARK UNBOUND:                -1.000
REMARK  Name = 
REMARK  5 active torsions:
REMARK  status: ('A' for Active; 'I' for Inactive)
REMARK    1  A    between atoms: C_2  and  C_13
REMARK    2  A    between atoms: N_3  and  CA_4
REMARK    3  A    between atoms: CA_4  and  C_5
REMARK    4  A    between atoms: CA_4  and  C_7
REMARK    5  A    between atoms: C_5  and  O_6
REMARK                            x       y       z     vdW  Elec       q    Type
REMARK                         _______ _______ _______ _____ _____    ______ ____
ROOT
ATOM      1  O   UNL     1      43.533   5.885  12.314  0.00  0.00    +0.000 OA
ATOM      2  C   UNL     1      44.481   6.233  11.617  0.00  0.00    +0.000 C 
ATOM      3  N   UNL     1      44.890   5.515  10.524  0.00  0.00    +0.000 N 
ATOM      4  H   UNL     1      45.739   5.782  10.040  0.00  0.00    +0.000 HD
ENDROOT
BRANCH   2   5
ATOM      5  C   UNL     1      45.216   7.473  11.881  0.00  0.00    +0.000 A 
ATOM      6  C   UNL     1      46.497   7.435  12.416  0.00  0.00    +0.000 A 
ATOM      7  S   UNL     1      47.181   8.978  12.658  0.00  0.00    +0.000 S 
ATOM      8  C   UNL     1      45.814   9.750  12.001  0.00  0.00    +0.000 A 
ATOM      9  N   UNL     1      45.764  11.103  11.874  0.00  0.00    +0.000 NA
ATOM     10  C   UNL     1      44.680  11.548  11.333  0.00  0.00    +0.000 A 
ATOM     11  N   UNL     1      43.633  10.764  10.918  0.00  0.00    +0.000 N 
ATOM     12  C   UNL     1      43.624   9.397  11.052  0.00  0.00    +0.000 A 
ATOM     13  O   UNL     1      42.653   8.724  10.718  0.00  0.00    +0.000 OA
ATOM     14  C   UNL     1      44.835   8.843  11.636  0.00  0.00    +0.000 A 
ATOM     15  H   UNL     1      42.807  11.183  10.516  0.00  0.00    +0.000 HD
ENDBRANCH   2   5
BRANCH   3  16
ATOM     16  CA  UNL     1      44.290   4.245  10.151  0.00  0.00    +0.000 C 
BRANCH  16  17
ATOM     17  C   UNL     1      45.146   3.572   9.091  0.00  0.00    +0.000 A 
ATOM     18  C   UNL     1      45.791   4.346   8.120  0.00  0.00    +0.000 A 
ATOM     19  C   UNL     1      46.579   3.714   7.170  0.00  0.00    +0.000 A 
ATOM     20  N   UNL     1      46.774   2.379   7.122  0.00  0.00    +0.000 NA
ATOM     21  C   UNL     1      46.158   1.647   8.069  0.00  0.00    +0.000 A 
ATOM     22  C   UNL     1      45.355   2.188   9.064  0.00  0.00    +0.000 A 
ENDBRANCH  16  17
BRANCH  16  23
ATOM     23  C   UNL     1      44.002   3.355  11.388  0.00  0.00    +0.000 C 
BRANCH  23  24
ATOM     24  O   UNL     1      42.645   2.909  11.470  0.00  0.00    +0.000 OA
ATOM     25  H   UNL     1      42.439   2.460  10.630  0.00  0.00    +0.000 HD
ENDBRANCH  23  24
ENDBRANCH  16  23
ENDBRANCH   3  16
TORSDOF 5
ENDMDL
MODEL 8
REMARK VINA RESULT:    -5.863      4.117      6.992
REMARK INTER + INTRA:          -8.406
REMARK INTER:                  -7.639
REMARK INTRA:                  -0.767
REMARK UNBOUND:                -1.000
REMARK  Name = 
REMARK  5 active torsions:
REMARK  status: ('A' for Active; 'I' for Inactive)
REMARK    1  A    between atoms: C_2  and  C_13
REMARK    2  A    between atoms: N_3  and  CA_4
REMARK    3  A    between atoms: CA_4  and  C_5
REMARK    4  A    between atoms: CA_4  and  C_7
REMARK    5  A    between atoms: C_5  and  O_6
REMARK                            x       y       z     vdW  Elec       q    Type
REMARK                         _______ _______ _______ _____ _____    ______ ____
ROOT
ATOM      1  O   UNL     1      47.352   3.155  14.996  0.00  0.00    +0.000 OA
ATOM      2  C   UNL     1      47.333   4.376  15.110  0.00  0.00    +0.000 C 
ATOM      3  N   UNL     1      47.650   5.007  16.285  0.00  0.00    +0.000 N 
ATOM      4  H   UNL     1      47.521   6.009  16.364  0.00  0.00    +0.000 HD
ENDROOT
BRANCH   2   5
ATOM      5  C   UNL     1      47.012   5.250  13.979  0.00  0.00    +0.000 A 
ATOM      6  C   UNL     1      45.851   5.055  13.243  0.00  0.00    +0.000 A 
ATOM      7  S   UNL     1      45.660   6.166  11.964  0.00  0.00    +0.000 S 
ATOM      8  C   UNL     1      47.092   6.985  12.386  0.00  0.00    +0.000 A 
ATOM      9  N   UNL     1      47.499   8.087  11.701  0.00  0.00    +0.000 NA
ATOM     10  C   UNL     1      48.586   8.622  12.149  0.00  0.00    +0.000 A 
ATOM     11  N   UNL     1      49.311   8.147  13.213  0.00  0.00    +0.000 N 
ATOM     12  C   UNL     1      48.955   7.023  13.917  0.00  0.00    +0.000 A 
ATOM     13  O   UNL     1      49.650   6.592  14.833  0.00  0.00    +0.000 OA
ATOM     14  C   UNL     1      47.724   6.395  13.466  0.00  0.00    +0.000 A 
ATOM     15  H   UNL     1      50.161   8.609  13.500  0.00  0.00    +0.000 HD
ENDBRANCH   2   5
BRANCH   3  16
ATOM     16  CA  UNL     1      47.953   4.282  17.508  0.00  0.00    +0.000 C 
BRANCH  16  17
ATOM     17  C   UNL     1      49.404   3.831  17.483  0.00  0.00    +0.000 A 
ATOM     18  C   UNL     1      50.429   4.773  17.617  0.00  0.00    +0.000 A 
ATOM     19  C   UNL     1      51.747   4.339  17.606  0.00  0.00    +0.000 A 
ATOM     20  N   UNL     1      52.112   3.046  17.478  0.00  0.00    +0.000 NA
ATOM     21  C   UNL     1      51.115   2.148  17.361  0.00  0.00    +0.000 A 
ATOM     22  C   UNL     1      49.768   2.484  17.368  0.00  0.00    +0.000 A 
ENDBRANCH  16  17
BRANCH  16  23
ATOM     23  C   UNL     1      47.565   5.091  18.772  0.00  0.00    +0.000 C 
BRANCH  23  24
ATOM     24  O   UNL     1      46.215   5.564  18.758  0.00  0.00    +0.000 OA
ATOM     25  H   UNL     1      46.147   6.219  18.039  0.00  0.00    +0.000 HD
ENDBRANCH  23  24
ENDBRANCH  16  23
ENDBRANCH   3  16
TORSDOF 5
ENDMDL
MODEL 9
REMARK VINA RESULT:    -5.783      2.425      3.141
REMARK INTER + INTRA:          -8.305
REMARK INTER:                  -7.377
REMARK INTRA:                  -0.928
REMARK UNBOUND:                -1.000
REMARK  Name = 
REMARK  5 active torsions:
REMARK  status: ('A' for Active; 'I' for Inactive)
REMARK    1  A    between atoms: C_2  and  C_13
REMARK    2  A    between atoms: N_3  and  CA_4
REMARK    3  A    between atoms: CA_4  and  C_5
REMARK    4  A    between atoms: CA_4  and  C_7
REMARK    5  A    between atoms: C_5  and  O_6
REMARK                            x       y       z     vdW  Elec       q    Type
REMARK                         _______ _______ _______ _____ _____    ______ ____
ROOT
ATOM      1  O   UNL     1      45.141   8.087  13.006  0.00  0.00    +0.000 OA
ATOM      2  C   UNL     1      46.133   7.739  12.374  0.00  0.00    +0.000 C 
ATOM      3  N   UNL     1      46.265   6.477  11.854  0.00  0.00    +0.000 N 
ATOM      4  H   UNL     1      47.142   6.202  11.429  0.00  0.00    +0.000 HD
ENDROOT
BRANCH   2   5
ATOM      5  C   UNL     1      47.230   8.668  12.089  0.00  0.00    +0.000 A 
ATOM      6  C   UNL     1      46.967   9.963  11.666  0.00  0.00    +0.000 A 
ATOM      7  S   UNL     1      48.372  10.886  11.379  0.00  0.00    +0.000 S 
ATOM      8  C   UNL     1      49.381   9.605  11.869  0.00  0.00    +0.000 A 
ATOM      9  N   UNL     1      50.733   9.749  11.902  0.00  0.00    +0.000 NA
ATOM     10  C   UNL     1      51.370   8.707  12.322  0.00  0.00    +0.000 A 
ATOM     11  N   UNL     1      50.779   7.528  12.699  0.00  0.00    +0.000 N 
ATOM     12  C   UNL     1      49.421   7.326  12.656  0.00  0.00    +0.000 A 
ATOM     13  O   UNL     1      48.923   6.244  12.953  0.00  0.00    +0.000 OA
ATOM     14  C   UNL     1      48.655   8.479  12.212  0.00  0.00    +0.000 A 
ATOM     15  H   UNL     1      51.342   6.747  13.004  0.00  0.00    +0.000 HD
ENDBRANCH   2   5
BRANCH   3  16
ATOM     16  CA  UNL     1      45.283   5.430  12.080  0.00  0.00    +0.000 C 
BRANCH  16  17
ATOM     17  C   UNL     1      45.124   4.604  10.814  0.00  0.00    +0.000 A 
ATOM     18  C   UNL     1      44.529   3.339  10.877  0.00  0.00    +0.000 A 
ATOM     19  C   UNL     1      44.381   2.607   9.708  0.00  0.00    +0.000 A 
ATOM     20  N   UNL     1      44.773   3.043   8.492  0.00  0.00    +0.000 NA
ATOM     21  C   UNL     1      45.334   4.267   8.444  0.00  0.00    +0.000 A 
ATOM     22  C   UNL     1      45.519   5.076   9.556  0.00  0.00    +0.000 A 
ENDBRANCH  16  17
BRANCH  16  23
ATOM     23  C   UNL     1      45.609   4.593  13.343  0.00  0.00    +0.000 C 
BRANCH  23  24
ATOM     24  O   UNL     1      46.329   5.320  14.343  0.00  0.00    +0.000 OA
ATOM     25  H   UNL     1      46.857   4.672  14.845  0.00  0.00    +0.000 HD
ENDBRANCH  23  24
ENDBRANCH  16  23
ENDBRANCH   3  16
TORSDOF 5
ENDMDL
