MODEL 1
REMARK VINA RESULT:    -8.242      0.000      0.000
REMARK INTER + INTRA:         -13.095
REMARK INTER:                 -12.097
REMARK INTRA:                  -0.998
REMARK UNBOUND:                -0.998
REMARK  Name = 
REMARK  10 active torsions:
REMARK  status: ('A' for Active; 'I' for Inactive)
REMARK    1  A    between atoms: C_1  and  C_2
REMARK    2  A    between atoms: C_2  and  C_3
REMARK    3  A    between atoms: C_2  and  N_10
REMARK    4  A    between atoms: C_3  and  C_4
REMARK    5  A    between atoms: N_10  and  C_11
REMARK    6  A    between atoms: N_10  and  C_12
REMARK    7  A    between atoms: C_12  and  C_13
REMARK    8  A    between atoms: C_16  and  C_17
REMARK    9  A    between atoms: C_17  and  N_18
REMARK   10  A    between atoms: C_19  and  C_21
REMARK                            x       y       z     vdW  Elec       q    Type
REMARK                         _______ _______ _______ _____ _____    ______ ____
ROOT
ATOM      1  C   UNL     1      46.289   5.316  13.678  0.00  0.00    +0.000 A 
ATOM      2  C   UNL     1      46.776   6.558  13.259  0.00  0.00    +0.000 A 
ATOM      3  C   UNL     1      47.923   7.107  13.825  0.00  0.00    +0.000 A 
ATOM      4  C   UNL     1      48.524   6.450  14.887  0.00  0.00    +0.000 A 
ATOM      5  N   UNL     1      48.054   5.267  15.361  0.00  0.00    +0.000 NA
ATOM      6  C   UNL     1      46.973   4.726  14.738  0.00  0.00    +0.000 A 
ENDROOT
BRANCH   1   7
ATOM      7  C   UNL     1      45.020   4.693  13.117  0.00  0.00    +0.000 C 
BRANCH   7   8
ATOM      8  N   UNL     1      44.707   4.924  11.676  0.00  0.00    +0.000 NA
ATOM      9  C   UNL     1      43.419   5.616  11.516  0.00  0.00    +0.000 C 
BRANCH   8  11
ATOM     10  C   UNL     1      43.580   2.701  11.394  0.00  0.00    +0.000 C 
ATOM     11  C   UNL     1      44.695   3.644  10.880  0.00  0.00    +0.000 C 
BRANCH  11  12
ATOM     12  C   UNL     1      44.486   3.850   9.349  0.00  0.00    +0.000 C 
BRANCH  12  13
ATOM     13  C   UNL     1      45.464   3.105   8.458  0.00  0.00    +0.000 A 
ATOM     14  C   UNL     1      46.216   3.794   7.495  0.00  0.00    +0.000 A 
ATOM     15  C   UNL     1      47.156   3.120   6.712  0.00  0.00    +0.000 A 
ATOM     16  C   UNL     1      47.351   1.751   6.876  0.00  0.00    +0.000 A 
ATOM     17  C   UNL     1      46.598   1.051   7.817  0.00  0.00    +0.000 A 
ATOM     18  C   UNL     1      45.662   1.725   8.606  0.00  0.00    +0.000 A 
ENDBRANCH  12  13
ENDBRANCH  11  12
ENDBRANCH   8  11
ENDBRANCH   7   8
ENDBRANCH   1   7
BRANCH   4  19
ATOM     19  C   UNL     1      49.635   7.140  15.647  0.00  0.00    +0.000 C 
BRANCH  19  20
ATOM     20  N   UNL     1      50.553   6.157  16.186  0.00  0.00    +0.000 N 
ATOM     21  C   UNL     1      50.760   5.988  17.530  0.00  0.00    +0.000 C 
ATOM     22  O   UNL     1      50.138   6.634  18.366  0.00  0.00    +0.000 OA
ATOM     23  H   UNL     1      51.206   5.761  15.516  0.00  0.00    +0.000 HD
BRANCH  21  24
ATOM     24  C   UNL     1      51.712   4.943  17.922  0.00  0.00    +0.000 A 
ATOM     25  C   UNL     1      52.921   5.303  18.505  0.00  0.00    +0.000 A 
ATOM     26  S   UNL     1      53.904   3.974  18.923  0.00  0.00    +0.000 S 
ATOM     27  C   UNL     1      52.769   2.869  18.298  0.00  0.00    +0.000 A 
ATOM     28  N   UNL     1      53.017   1.532  18.312  0.00  0.00    +0.000 NA
ATOM     29  C   UNL     1      52.088   0.813  17.777  0.00  0.00    +0.000 A 
ATOM     30  N   UNL     1      50.929   1.309  17.239  0.00  0.00    +0.000 N 
ATOM     31  C   UNL     1      50.616   2.649  17.239  0.00  0.00    +0.000 A 
ATOM     32  O   UNL     1      49.546   3.050  16.808  0.00  0.00    +0.000 OA
ATOM     33  C   UNL     1      51.642   3.504  17.804  0.00  0.00    +0.000 A 
ATOM     34  H   UNL     1      50.232   0.692  16.849  0.00  0.00    +0.000 HD
ENDBRANCH  21  24
ENDBRANCH  19  20
ENDBRANCH   4  19
TORSDOF 8
ENDMDL
MODEL 2
REMARK VINA RESULT:    -8.230      2.466      2.981
REMARK INTER + INTRA:         -13.077
REMARK INTER:                 -11.792
REMARK INTRA:                  -1.284
REMARK UNBOUND:                -0.998
REMARK  Name = 
REMARK  10 active torsions:
REMARK  status: ('A' for Active; 'I' for Inactive)
REMARK    1  A    between atoms: C_1  and  C_2
REMARK    2  A    between atoms: C_2  and  C_3
REMARK    3  A    between atoms: C_2  and  N_10
REMARK    4  A    between atoms: C_3  and  C_4
REMARK    5  A    between atoms: N_10  and  C_11
REMARK    6  A    between atoms: N_10  and  C_12
REMARK    7  A    between atoms: C_12  and  C_13
REMARK    8  A    between atoms: C_16  and  C_17
REMARK    9  A    between atoms: C_17  and  N_18
REMARK   10  A    between atoms: C_19  and  C_21
REMARK                            x       y       z     vdW  Elec       q    Type
REMARK                         _______ _______ _______ _____ _____    ______ ____
ROOT
ATOM      1  C   UNL     1      44.942   6.921  11.382  0.00  0.00    +0.000 A 
ATOM      2  C   UNL     1      44.715   8.111  12.080  0.00  0.00    +0.000 A 
ATOM      3  C   UNL     1      45.737   8.729  12.794  0.00  0.00    +0.000 A 
ATOM      4  C   UNL     1      46.966   8.094  12.888  0.00  0.00    +0.000 A 
ATOM      5  N   UNL     1      47.214   6.911  12.269  0.00  0.00    +0.000 NA
ATOM      6  C   UNL     1      46.214   6.371  11.524  0.00  0.00    +0.000 A 
ENDROOT
BRANCH   1   7
ATOM      7  C   UNL     1      43.849   6.188  10.619  0.00  0.00    +0.000 C 
BRANCH   7   8
ATOM      8  N   UNL     1      43.425   4.848  11.122  0.00  0.00    +0.000 NA
ATOM      9  C   UNL     1      42.944   4.928  12.509  0.00  0.00    +0.000 C 
BRANCH   8  11
ATOM     10  C   UNL     1      44.715   3.109  12.387  0.00  0.00    +0.000 C 
ATOM     11  C   UNL     1      44.529   3.825  11.027  0.00  0.00    +0.000 C 
BRANCH  11  12
ATOM     12  C   UNL     1      44.294   2.737   9.936  0.00  0.00    +0.000 C 
BRANCH  12  13
ATOM     13  C   UNL     1      45.313   2.723   8.809  0.00  0.00    +0.000 A 
ATOM     14  C   UNL     1      45.658   3.910   8.146  0.00  0.00    +0.000 A 
ATOM     15  C   UNL     1      46.634   3.908   7.148  0.00  0.00    +0.000 A 
ATOM     16  C   UNL     1      47.272   2.721   6.795  0.00  0.00    +0.000 A 
ATOM     17  C   UNL     1      46.927   1.531   7.434  0.00  0.00    +0.000 A 
ATOM     18  C   UNL     1      45.956   1.533   8.438  0.00  0.00    +0.000 A 
ENDBRANCH  12  13
ENDBRANCH  11  12
ENDBRANCH   8  11
ENDBRANCH   7   8
ENDBRANCH   1   7
BRANCH   4  19
ATOM     19  C   UNL     1      48.009   8.645  13.834  0.00  0.00    +0.000 C 
BRANCH  19  20
ATOM     20  N   UNL     1      48.185   7.748  14.958  0.00  0.00    +0.000 N 
ATOM     21  C   UNL     1      49.384   7.154  15.258  0.00  0.00    +0.000 C 
ATOM     22  O   UNL     1      50.400   7.388  14.614  0.00  0.00    +0.000 OA
ATOM     23  H   UNL     1      47.325   7.398  15.372  0.00  0.00    +0.000 HD
BRANCH  21  24
ATOM     24  C   UNL     1      49.406   6.279  16.435  0.00  0.00    +0.000 A 
ATOM     25  C   UNL     1      50.310   6.531  17.459  0.00  0.00    +0.000 A 
ATOM     26  S   UNL     1      50.193   5.439  18.763  0.00  0.00    +0.000 S 
ATOM     27  C   UNL     1      48.959   4.561  17.986  0.00  0.00    +0.000 A 
ATOM     28  N   UNL     1      48.422   3.453  18.564  0.00  0.00    +0.000 NA
ATOM     29  C   UNL     1      47.519   2.865  17.852  0.00  0.00    +0.000 A 
ATOM     30  N   UNL     1      47.098   3.291  16.619  0.00  0.00    +0.000 N 
ATOM     31  C   UNL     1      47.581   4.428  16.013  0.00  0.00    +0.000 A 
ATOM     32  O   UNL     1      47.136   4.814  14.944  0.00  0.00    +0.000 OA
ATOM     33  C   UNL     1      48.620   5.110  16.761  0.00  0.00    +0.000 A 
ATOM     34  H   UNL     1      46.374   2.796  16.119  0.00  0.00    +0.000 HD
ENDBRANCH  21  24
ENDBRANCH  19  20
ENDBRANCH   4  19
TORSDOF 8
ENDMDL
MODEL 3
REMARK VINA RESULT:    -7.745      2.947      3.339
REMARK INTER + INTRA:         -12.365
REMARK INTER:                 -11.312
REMARK INTRA:                  -1.053
REMARK UNBOUND:                -0.998
REMARK  Name = 
REMARK  10 active torsions:
REMARK  status: ('A' for Active; 'I' for Inactive)
REMARK    1  A    between atoms: C_1  and  C_2
REMARK    2  A    between atoms: C_2  and  C_3
REMARK    3  A    between atoms: C_2  and  N_10
REMARK    4  A    between atoms: C_3  and  C_4
REMARK    5  A    between atoms: N_10  and  C_11
REMARK    6  A    between atoms: N_10  and  C_12
REMARK    7  A    between atoms: C_12  and  C_13
REMARK    8  A    between atoms: C_16  and  C_17
REMARK    9  A    between atoms: C_17  and  N_18
REMARK   10  A    between atoms: C_19  and  C_21
REMARK                            x       y       z     vdW  Elec       q    Type
REMARK                         _______ _______ _______ _____ _____    ______ ____
ROOT
ATOM      1  C   UNL     1      46.264   5.510  12.834  0.00  0.00    +0.000 A 
ATOM      2  C   UNL     1      46.856   6.554  12.117  0.00  0.00    +0.000 A 
ATOM      3  C   UNL     1      48.059   7.117  12.532  0.00  0.00    +0.000 A 
ATOM      4  C   UNL     1      48.618   6.694  13.728  0.00  0.00    +0.000 A 
ATOM      5  N   UNL     1      48.050   5.718  14.482  0.00  0.00    +0.000 NA
ATOM      6  C   UNL     1      46.911   5.143  14.012  0.00  0.00    +0.000 A 
ENDROOT
BRANCH   1   7
ATOM      7  C   UNL     1      44.932   4.888  12.442  0.00  0.00    +0.000 C 
BRANCH   7   8
ATOM      8  N   UNL     1      44.721   4.537  11.008  0.00  0.00    +0.000 NA
ATOM      9  C   UNL     1      43.535   5.214  10.463  0.00  0.00    +0.000 C 
BRANCH   8  11
ATOM     10  C   UNL     1      43.488   2.467  11.707  0.00  0.00    +0.000 C 
ATOM     11  C   UNL     1      44.595   3.049  10.795  0.00  0.00    +0.000 C 
BRANCH  11  12
ATOM     12  C   UNL     1      44.274   2.643   9.325  0.00  0.00    +0.000 C 
BRANCH  12  13
ATOM     13  C   UNL     1      45.473   2.591   8.392  0.00  0.00    +0.000 A 
ATOM     14  C   UNL     1      46.197   1.401   8.231  0.00  0.00    +0.000 A 
ATOM     15  C   UNL     1      47.265   1.336   7.333  0.00  0.00    +0.000 A 
ATOM     16  C   UNL     1      47.626   2.459   6.593  0.00  0.00    +0.000 A 
ATOM     17  C   UNL     1      46.925   3.653   6.756  0.00  0.00    +0.000 A 
ATOM     18  C   UNL     1      45.852   3.717   7.648  0.00  0.00    +0.000 A 
ENDBRANCH  12  13
ENDBRANCH  11  12
ENDBRANCH   8  11
ENDBRANCH   7   8
ENDBRANCH   1   7
BRANCH   4  19
ATOM     19  C   UNL     1      49.803   7.444  14.294  0.00  0.00    +0.000 C 
BRANCH  19  20
ATOM     20  N   UNL     1      49.614   7.673  15.712  0.00  0.00    +0.000 N 
ATOM     21  C   UNL     1      50.180   6.880  16.677  0.00  0.00    +0.000 C 
ATOM     22  O   UNL     1      50.926   5.949  16.393  0.00  0.00    +0.000 OA
ATOM     23  H   UNL     1      48.856   8.306  15.952  0.00  0.00    +0.000 HD
BRANCH  21  24
ATOM     24  C   UNL     1      49.906   7.246  18.071  0.00  0.00    +0.000 A 
ATOM     25  C   UNL     1      50.687   8.212  18.692  0.00  0.00    +0.000 A 
ATOM     26  S   UNL     1      50.226   8.540  20.300  0.00  0.00    +0.000 S 
ATOM     27  C   UNL     1      48.992   7.368  20.241  0.00  0.00    +0.000 A 
ATOM     28  N   UNL     1      48.218   7.115  21.330  0.00  0.00    +0.000 NA
ATOM     29  C   UNL     1      47.344   6.181  21.157  0.00  0.00    +0.000 A 
ATOM     30  N   UNL     1      47.167   5.485  19.989  0.00  0.00    +0.000 N 
ATOM     31  C   UNL     1      47.896   5.734  18.850  0.00  0.00    +0.000 A 
ATOM     32  O   UNL     1      47.668   5.138  17.809  0.00  0.00    +0.000 OA
ATOM     33  C   UNL     1      48.914   6.756  19.001  0.00  0.00    +0.000 A 
ATOM     34  H   UNL     1      46.452   4.775  19.912  0.00  0.00    +0.000 HD
ENDBRANCH  21  24
ENDBRANCH  19  20
ENDBRANCH   4  19
TORSDOF 8
ENDMDL
MODEL 4
REMARK VINA RESULT:    -7.736      4.174      8.969
REMARK INTER + INTRA:         -12.352
REMARK INTER:                 -10.196
REMARK INTRA:                  -2.155
REMARK UNBOUND:                -0.998
REMARK  Name = 
REMARK  10 active torsions:
REMARK  status: ('A' for Active; 'I' for Inactive)
REMARK    1  A    between atoms: C_1  and  C_2
REMARK    2  A    between atoms: C_2  and  C_3
REMARK    3  A    between atoms: C_2  and  N_10
REMARK    4  A    between atoms: C_3  and  C_4
REMARK    5  A    between atoms: N_10  and  C_11
REMARK    6  A    between atoms: N_10  and  C_12
REMARK    7  A    between atoms: C_12  and  C_13
REMARK    8  A    between atoms: C_16  and  C_17
REMARK    9  A    between atoms: C_17  and  N_18
REMARK   10  A    between atoms: C_19  and  C_21
REMARK                            x       y       z     vdW  Elec       q    Type
REMARK                         _______ _______ _______ _____ _____    ______ ____
ROOT
ATOM      1  C   UNL     1      48.950   8.080  16.159  0.00  0.00    +0.000 A 
ATOM      2  C   UNL     1      49.109   6.895  15.433  0.00  0.00    +0.000 A 
ATOM      3  C   UNL     1      48.847   6.851  14.067  0.00  0.00    +0.000 A 
ATOM      4  C   UNL     1      48.328   7.978  13.449  0.00  0.00    +0.000 A 
ATOM      5  N   UNL     1      48.110   9.134  14.126  0.00  0.00    +0.000 NA
ATOM      6  C   UNL     1      48.442   9.162  15.445  0.00  0.00    +0.000 A 
ENDROOT
BRANCH   1   7
ATOM      7  C   UNL     1      49.187   8.169  17.659  0.00  0.00    +0.000 C 
BRANCH   7   8
ATOM      8  N   UNL     1      47.993   8.184  18.554  0.00  0.00    +0.000 NA
ATOM      9  C   UNL     1      47.949   9.412  19.362  0.00  0.00    +0.000 C 
BRANCH   8  11
ATOM     10  C   UNL     1      47.403   7.380  20.856  0.00  0.00    +0.000 C 
ATOM     11  C   UNL     1      47.943   6.980  19.461  0.00  0.00    +0.000 C 
BRANCH  11  12
ATOM     12  C   UNL     1      47.063   5.813  18.919  0.00  0.00    +0.000 C 
BRANCH  12  13
ATOM     13  C   UNL     1      47.827   4.690  18.239  0.00  0.00    +0.000 A 
ATOM     14  C   UNL     1      47.192   3.866  17.299  0.00  0.00    +0.000 A 
ATOM     15  C   UNL     1      47.907   2.868  16.632  0.00  0.00    +0.000 A 
ATOM     16  C   UNL     1      49.260   2.678  16.901  0.00  0.00    +0.000 A 
ATOM     17  C   UNL     1      49.899   3.479  17.845  0.00  0.00    +0.000 A 
ATOM     18  C   UNL     1      49.187   4.482  18.508  0.00  0.00    +0.000 A 
ENDBRANCH  12  13
ENDBRANCH  11  12
ENDBRANCH   8  11
ENDBRANCH   7   8
ENDBRANCH   1   7
BRANCH   4  19
ATOM     19  C   UNL     1      47.839   7.876  12.021  0.00  0.00    +0.000 C 
BRANCH  19  20
ATOM     20  N   UNL     1      47.047   6.675  11.852  0.00  0.00    +0.000 N 
ATOM     21  C   UNL     1      45.680   6.663  11.961  0.00  0.00    +0.000 C 
ATOM     22  O   UNL     1      45.038   7.687  12.162  0.00  0.00    +0.000 OA
ATOM     23  H   UNL     1      47.569   5.804  11.881  0.00  0.00    +0.000 HD
BRANCH  21  24
ATOM     24  C   UNL     1      45.017   5.371  11.752  0.00  0.00    +0.000 A 
ATOM     25  C   UNL     1      44.318   4.783  12.798  0.00  0.00    +0.000 A 
ATOM     26  S   UNL     1      43.586   3.299  12.388  0.00  0.00    +0.000 S 
ATOM     27  C   UNL     1      44.215   3.364  10.808  0.00  0.00    +0.000 A 
ATOM     28  N   UNL     1      43.986   2.357   9.923  0.00  0.00    +0.000 NA
ATOM     29  C   UNL     1      44.549   2.520   8.773  0.00  0.00    +0.000 A 
ATOM     30  N   UNL     1      45.312   3.603   8.424  0.00  0.00    +0.000 N 
ATOM     31  C   UNL     1      45.538   4.665   9.269  0.00  0.00    +0.000 A 
ATOM     32  O   UNL     1      46.170   5.644   8.903  0.00  0.00    +0.000 OA
ATOM     33  C   UNL     1      44.950   4.518  10.587  0.00  0.00    +0.000 A 
ATOM     34  H   UNL     1      45.713   3.680   7.500  0.00  0.00    +0.000 HD
ENDBRANCH  21  24
ENDBRANCH  19  20
ENDBRANCH   4  19
TORSDOF 8
ENDMDL
MODEL 5
REMARK VINA RESULT:    -7.597      4.052      8.671
REMARK INTER + INTRA:         -12.148
REMARK INTER:                 -10.485
REMARK INTRA:                  -1.663
REMARK UNBOUND:                -0.998
REMARK  Name = 
REMARK  10 active torsions:
REMARK  status: ('A' for Active; 'I' for Inactive)
REMARK    1  A    between atoms: C_1  and  C_2
REMARK    2  A    between atoms: C_2  and  C_3
REMARK    3  A    between atoms: C_2  and  N_10
REMARK    4  A    between atoms: C_3  and  C_4
REMARK    5  A    between atoms: N_10  and  C_11
REMARK    6  A    between atoms: N_10  and  C_12
REMARK    7  A    between atoms: C_12  and  C_13
REMARK    8  A    between atoms: C_16  and  C_17
REMARK    9  A    between atoms: C_17  and  N_18
REMARK   10  A    between atoms: C_19  and  C_21
REMARK                            x       y       z     vdW  Elec       q    Type
REMARK                         _______ _______ _______ _____ _____    ______ ____
ROOT
ATOM      1  C   UNL     1      48.799   7.879  16.305  0.00  0.00    +0.000 A 
ATOM      2  C   UNL     1      48.342   9.028  15.652  0.00  0.00    +0.000 A 
ATOM      3  C   UNL     1      48.139   9.037  14.275  0.00  0.00    +0.000 A 
ATOM      4  C   UNL     1      48.491   7.916  13.540  0.00  0.00    +0.000 A 
ATOM      5  N   UNL     1      48.986   6.796  14.127  0.00  0.00    +0.000 NA
ATOM      6  C   UNL     1      49.107   6.799  15.482  0.00  0.00    +0.000 A 
ENDROOT
BRANCH   1   7
ATOM      7  C   UNL     1      49.072   7.831  17.801  0.00  0.00    +0.000 C 
BRANCH   7   8
ATOM      8  N   UNL     1      47.924   7.552  18.712  0.00  0.00    +0.000 NA
ATOM      9  C   UNL     1      47.838   8.556  19.783  0.00  0.00    +0.000 C 
BRANCH   8  11
ATOM     10  C   UNL     1      47.259   6.145  20.679  0.00  0.00    +0.000 C 
ATOM     11  C   UNL     1      47.994   6.173  19.317  0.00  0.00    +0.000 C 
BRANCH  11  12
ATOM     12  C   UNL     1      47.388   5.053  18.418  0.00  0.00    +0.000 C 
BRANCH  12  13
ATOM     13  C   UNL     1      48.393   4.064  17.852  0.00  0.00    +0.000 A 
ATOM     14  C   UNL     1      49.751   4.158  18.189  0.00  0.00    +0.000 A 
ATOM     15  C   UNL     1      50.668   3.218  17.715  0.00  0.00    +0.000 A 
ATOM     16  C   UNL     1      50.241   2.177  16.893  0.00  0.00    +0.000 A 
ATOM     17  C   UNL     1      48.897   2.081  16.537  0.00  0.00    +0.000 A 
ATOM     18  C   UNL     1      47.977   3.018  17.016  0.00  0.00    +0.000 A 
ENDBRANCH  12  13
ENDBRANCH  11  12
ENDBRANCH   8  11
ENDBRANCH   7   8
ENDBRANCH   1   7
BRANCH   4  19
ATOM     19  C   UNL     1      48.478   7.992  12.029  0.00  0.00    +0.000 C 
BRANCH  19  20
ATOM     20  N   UNL     1      47.702   6.896  11.484  0.00  0.00    +0.000 N 
ATOM     21  C   UNL     1      46.334   6.922  11.402  0.00  0.00    +0.000 C 
ATOM     22  O   UNL     1      45.683   7.902  11.745  0.00  0.00    +0.000 OA
ATOM     23  H   UNL     1      48.203   6.018  11.382  0.00  0.00    +0.000 HD
BRANCH  21  24
ATOM     24  C   UNL     1      45.690   5.741  10.815  0.00  0.00    +0.000 A 
ATOM     25  C   UNL     1      45.802   5.508   9.450  0.00  0.00    +0.000 A 
ATOM     26  S   UNL     1      45.020   4.085   8.930  0.00  0.00    +0.000 S 
ATOM     27  C   UNL     1      44.463   3.752  10.504  0.00  0.00    +0.000 A 
ATOM     28  N   UNL     1      43.684   2.666  10.753  0.00  0.00    +0.000 NA
ATOM     29  C   UNL     1      43.305   2.552  11.982  0.00  0.00    +0.000 A 
ATOM     30  N   UNL     1      43.645   3.420  12.986  0.00  0.00    +0.000 N 
ATOM     31  C   UNL     1      44.464   4.508  12.792  0.00  0.00    +0.000 A 
ATOM     32  O   UNL     1      44.797   5.225  13.723  0.00  0.00    +0.000 OA
ATOM     33  C   UNL     1      44.893   4.698  11.420  0.00  0.00    +0.000 A 
ATOM     34  H   UNL     1      43.330   3.266  13.933  0.00  0.00    +0.000 HD
ENDBRANCH  21  24
ENDBRANCH  19  20
ENDBRANCH   4  19
TORSDOF 8
ENDMDL
MODEL 6
REMARK VINA RESULT:    -7.463      2.550      3.391
REMARK INTER + INTRA:         -11.951
REMARK INTER:                 -11.079
REMARK INTRA:                  -0.872
REMARK UNBOUND:                -0.998
REMARK  Name = 
REMARK  10 active torsions:
REMARK  status: ('A' for Active; 'I' for Inactive)
REMARK    1  A    between atoms: C_1  and  C_2
REMARK    2  A    between atoms: C_2  and  C_3
REMARK    3  A    between atoms: C_2  and  N_10
REMARK    4  A    between atoms: C_3  and  C_4
REMARK    5  A    between atoms: N_10  and  C_11
REMARK    6  A    between atoms: N_10  and  C_12
REMARK    7  A    between atoms: C_12  and  C_13
REMARK    8  A    between atoms: C_16  and  C_17
REMARK    9  A    between atoms: C_17  and  N_18
REMARK   10  A    between atoms: C_19  and  C_21
REMARK                            x       y       z     vdW  Elec       q    Type
REMARK                         _______ _______ _______ _____ _____    ______ ____
ROOT
ATOM      1  C   UNL     1      44.611   5.456  11.146  0.00  0.00    +0.000 A 
ATOM      2  C   UNL     1      45.867   5.852  10.675  0.00  0.00    +0.000 A 
ATOM      3  C   UNL     1      46.712   6.633  11.457  0.00  0.00    +0.000 A 
ATOM      4  C   UNL     1      46.251   7.103  12.677  0.00  0.00    +0.000 A 
ATOM      5  N   UNL     1      45.018   6.786  13.150  0.00  0.00    +0.000 NA
ATOM      6  C   UNL     1      44.246   5.964  12.390  0.00  0.00    +0.000 A 
ENDROOT
BRANCH   1   7
ATOM      7  C   UNL     1      43.637   4.635  10.315  0.00  0.00    +0.000 C 
BRANCH   7   8
ATOM      8  N   UNL     1      43.832   3.156  10.271  0.00  0.00    +0.000 NA
ATOM      9  C   UNL     1      44.699   2.701  11.367  0.00  0.00    +0.000 C 
BRANCH   8  11
ATOM     10  C   UNL     1      44.184   3.773   7.865  0.00  0.00    +0.000 C 
ATOM     11  C   UNL     1      44.398   2.692   8.953  0.00  0.00    +0.000 C 
BRANCH  11  12
ATOM     12  C   UNL     1      45.918   2.348   9.000  0.00  0.00    +0.000 C 
BRANCH  12  13
ATOM     13  C   UNL     1      46.557   2.061   7.652  0.00  0.00    +0.000 A 
ATOM     14  C   UNL     1      46.797   0.741   7.245  0.00  0.00    +0.000 A 
ATOM     15  C   UNL     1      47.334   0.473   5.984  0.00  0.00    +0.000 A 
ATOM     16  C   UNL     1      47.644   1.519   5.118  0.00  0.00    +0.000 A 
ATOM     17  C   UNL     1      47.426   2.837   5.517  0.00  0.00    +0.000 A 
ATOM     18  C   UNL     1      46.883   3.106   6.775  0.00  0.00    +0.000 A 
ENDBRANCH  12  13
ENDBRANCH  11  12
ENDBRANCH   8  11
ENDBRANCH   7   8
ENDBRANCH   1   7
BRANCH   4  19
ATOM     19  C   UNL     1      47.072   8.124  13.432  0.00  0.00    +0.000 C 
BRANCH  19  20
ATOM     20  N   UNL     1      47.606   7.534  14.643  0.00  0.00    +0.000 N 
ATOM     21  C   UNL     1      48.820   6.899  14.689  0.00  0.00    +0.000 C 
ATOM     22  O   UNL     1      49.554   6.833  13.709  0.00  0.00    +0.000 OA
ATOM     23  H   UNL     1      46.937   7.410  15.397  0.00  0.00    +0.000 HD
BRANCH  21  24
ATOM     24  C   UNL     1      49.231   6.362  15.991  0.00  0.00    +0.000 A 
ATOM     25  C   UNL     1      50.305   6.934  16.660  0.00  0.00    +0.000 A 
ATOM     26  S   UNL     1      50.639   6.213  18.168  0.00  0.00    +0.000 S 
ATOM     27  C   UNL     1      49.387   5.078  17.963  0.00  0.00    +0.000 A 
ATOM     28  N   UNL     1      49.151   4.123  18.901  0.00  0.00    +0.000 NA
ATOM     29  C   UNL     1      48.194   3.308  18.603  0.00  0.00    +0.000 A 
ATOM     30  N   UNL     1      47.446   3.370  17.456  0.00  0.00    +0.000 N 
ATOM     31  C   UNL     1      47.620   4.342  16.498  0.00  0.00    +0.000 A 
ATOM     32  O   UNL     1      46.893   4.404  15.519  0.00  0.00    +0.000 OA
ATOM     33  C   UNL     1      48.704   5.266  16.773  0.00  0.00    +0.000 A 
ATOM     34  H   UNL     1      46.699   2.712  17.289  0.00  0.00    +0.000 HD
ENDBRANCH  21  24
ENDBRANCH  19  20
ENDBRANCH   4  19
TORSDOF 8
ENDMDL
MODEL 7
REMARK VINA RESULT:    -7.284      3.391      4.194
REMARK INTER + INTRA:         -11.688
REMARK INTER:                 -10.459
REMARK INTRA:                  -1.230
REMARK UNBOUND:                -0.998
REMARK  Name = 
REMARK  10 active torsions:
REMARK  status: ('A' for Active; 'I' for Inactive)
REMARK    1  A    between atoms: C_1  and  C_2
REMARK    2  A    between atoms: C_2  and  C_3
REMARK    3  A    between atoms: C_2  and  N_10
REMARK    4  A    between atoms: C_3  and  C_4
REMARK    5  A    between atoms: N_10  and  C_11
REMARK    6  A    between atoms: N_10  and  C_12
REMARK    7  A    between atoms: C_12  and  C_13
REMARK    8  A    between atoms: C_16  and  C_17
REMARK    9  A    between atoms: C_17  and  N_18
REMARK   10  A    between atoms: C_19  and  C_21
REMARK                            x       y       z     vdW  Elec       q    Type
REMARK                         _______ _______ _______ _____ _____    ______ ____
ROOT
ATOM      1  C   UNL     1      45.272   6.789  11.549  0.00  0.00    +0.000 A 
ATOM      2  C   UNL     1      46.613   6.423  11.394  0.00  0.00    +0.000 A 
ATOM      3  C   UNL     1      47.596   6.928  12.240  0.00  0.00    +0.000 A 
ATOM      4  C   UNL     1      47.243   7.881  13.182  0.00  0.00    +0.000 A 
ATOM      5  N   UNL     1      45.961   8.303  13.333  0.00  0.00    +0.000 NA
ATOM      6  C   UNL     1      45.016   7.738  12.535  0.00  0.00    +0.000 A 
ENDROOT
BRANCH   1   7
ATOM      7  C   UNL     1      44.168   6.295  10.627  0.00  0.00    +0.000 C 
BRANCH   7   8
ATOM      8  N   UNL     1      43.613   4.931  10.871  0.00  0.00    +0.000 NA
ATOM      9  C   UNL     1      42.967   4.848  12.189  0.00  0.00    +0.000 C 
BRANCH   8  11
ATOM     10  C   UNL     1      44.851   3.137  12.113  0.00  0.00    +0.000 C 
ATOM     11  C   UNL     1      44.664   3.856  10.754  0.00  0.00    +0.000 C 
BRANCH  11  12
ATOM     12  C   UNL     1      44.349   2.775   9.676  0.00  0.00    +0.000 C 
BRANCH  12  13
ATOM     13  C   UNL     1      45.395   2.628   8.584  0.00  0.00    +0.000 A 
ATOM     14  C   UNL     1      45.790   3.738   7.823  0.00  0.00    +0.000 A 
ATOM     15  C   UNL     1      46.791   3.617   6.857  0.00  0.00    +0.000 A 
ATOM     16  C   UNL     1      47.403   2.386   6.634  0.00  0.00    +0.000 A 
ATOM     17  C   UNL     1      47.008   1.271   7.371  0.00  0.00    +0.000 A 
ATOM     18  C   UNL     1      46.012   1.392   8.343  0.00  0.00    +0.000 A 
ENDBRANCH  12  13
ENDBRANCH  11  12
ENDBRANCH   8  11
ENDBRANCH   7   8
ENDBRANCH   1   7
BRANCH   4  19
ATOM     19  C   UNL     1      48.331   8.591  13.956  0.00  0.00    +0.000 C 
BRANCH  19  20
ATOM     20  N   UNL     1      48.263   8.227  15.357  0.00  0.00    +0.000 N 
ATOM     21  C   UNL     1      48.909   7.134  15.875  0.00  0.00    +0.000 C 
ATOM     22  O   UNL     1      49.629   6.421  15.185  0.00  0.00    +0.000 OA
ATOM     23  H   UNL     1      47.527   8.684  15.888  0.00  0.00    +0.000 HD
BRANCH  21  24
ATOM     24  C   UNL     1      48.753   6.902  17.315  0.00  0.00    +0.000 A 
ATOM     25  C   UNL     1      48.349   5.652  17.767  0.00  0.00    +0.000 A 
ATOM     26  S   UNL     1      48.240   5.537  19.465  0.00  0.00    +0.000 S 
ATOM     27  C   UNL     1      48.684   7.170  19.656  0.00  0.00    +0.000 A 
ATOM     28  N   UNL     1      48.750   7.734  20.892  0.00  0.00    +0.000 NA
ATOM     29  C   UNL     1      49.066   8.986  20.890  0.00  0.00    +0.000 A 
ATOM     30  N   UNL     1      49.334   9.721  19.765  0.00  0.00    +0.000 N 
ATOM     31  C   UNL     1      49.321   9.185  18.498  0.00  0.00    +0.000 A 
ATOM     32  O   UNL     1      49.627   9.853  17.523  0.00  0.00    +0.000 OA
ATOM     33  C   UNL     1      48.942   7.786  18.443  0.00  0.00    +0.000 A 
ATOM     34  H   UNL     1      49.594  10.694  19.831  0.00  0.00    +0.000 HD
ENDBRANCH  21  24
ENDBRANCH  19  20
ENDBRANCH   4  19
TORSDOF 8
ENDMDL
MODEL 8
REMARK VINA RESULT:    -7.000      4.336      8.889
REMARK INTER + INTRA:         -11.272
REMARK INTER:                  -9.166
REMARK INTRA:                  -2.105
REMARK UNBOUND:                -0.998
REMARK  Name = 
REMARK  10 active torsions:
REMARK  status: ('A' for Active; 'I' for Inactive)
REMARK    1  A    between atoms: C_1  and  C_2
REMARK    2  A    between atoms: C_2  and  C_3
REMARK    3  A    between atoms: C_2  and  N_10
REMARK    4  A    between atoms: C_3  and  C_4
REMARK    5  A    between atoms: N_10  and  C_11
REMARK    6  A    between atoms: N_10  and  C_12
REMARK    7  A    between atoms: C_12  and  C_13
REMARK    8  A    between atoms: C_16  and  C_17
REMARK    9  A    between atoms: C_17  and  N_18
REMARK   10  A    between atoms: C_19  and  C_21
REMARK                            x       y       z     vdW  Elec       q    Type
REMARK                         _______ _______ _______ _____ _____    ______ ____
ROOT
ATOM      1  C   UNL     1      49.438   8.391  18.114  0.00  0.00    +0.000 A 
ATOM      2  C   UNL     1      50.279   7.887  17.116  0.00  0.00    +0.000 A 
ATOM      3  C   UNL     1      50.022   8.133  15.771  0.00  0.00    +0.000 A 
ATOM      4  C   UNL     1      48.860   8.804  15.424  0.00  0.00    +0.000 A 
ATOM      5  N   UNL     1      47.989   9.266  16.358  0.00  0.00    +0.000 NA
ATOM      6  C   UNL     1      48.307   9.068  17.665  0.00  0.00    +0.000 A 
ENDROOT
BRANCH   1   7
ATOM      7  C   UNL     1      49.655   8.117  19.595  0.00  0.00    +0.000 C 
BRANCH   7   8
ATOM      8  N   UNL     1      48.458   7.809  20.430  0.00  0.00    +0.000 NA
ATOM      9  C   UNL     1      48.634   8.288  21.809  0.00  0.00    +0.000 C 
BRANCH   8  11
ATOM     10  C   UNL     1      47.377   5.965  21.743  0.00  0.00    +0.000 C 
ATOM     11  C   UNL     1      48.134   6.336  20.445  0.00  0.00    +0.000 C 
BRANCH  11  12
ATOM     12  C   UNL     1      47.274   5.864  19.233  0.00  0.00    +0.000 C 
BRANCH  12  13
ATOM     13  C   UNL     1      47.906   4.779  18.377  0.00  0.00    +0.000 A 
ATOM     14  C   UNL     1      49.225   4.365  18.612  0.00  0.00    +0.000 A 
ATOM     15  C   UNL     1      49.789   3.331  17.862  0.00  0.00    +0.000 A 
ATOM     16  C   UNL     1      49.045   2.702  16.867  0.00  0.00    +0.000 A 
ATOM     17  C   UNL     1      47.739   3.115  16.612  0.00  0.00    +0.000 A 
ATOM     18  C   UNL     1      47.171   4.145  17.365  0.00  0.00    +0.000 A 
ENDBRANCH  12  13
ENDBRANCH  11  12
ENDBRANCH   8  11
ENDBRANCH   7   8
ENDBRANCH   1   7
BRANCH   4  19
ATOM     19  C   UNL     1      48.464   8.887  13.967  0.00  0.00    +0.000 C 
BRANCH  19  20
ATOM     20  N   UNL     1      47.440   7.904  13.674  0.00  0.00    +0.000 N 
ATOM     21  C   UNL     1      47.721   6.673  13.139  0.00  0.00    +0.000 C 
ATOM     22  O   UNL     1      48.871   6.310  12.919  0.00  0.00    +0.000 OA
ATOM     23  H   UNL     1      46.488   8.258  13.666  0.00  0.00    +0.000 HD
BRANCH  21  24
ATOM     24  C   UNL     1      46.578   5.782  12.910  0.00  0.00    +0.000 A 
ATOM     25  C   UNL     1      46.673   4.442  13.263  0.00  0.00    +0.000 A 
ATOM     26  S   UNL     1      45.255   3.547  12.954  0.00  0.00    +0.000 S 
ATOM     27  C   UNL     1      44.476   4.910  12.294  0.00  0.00    +0.000 A 
ATOM     28  N   UNL     1      43.214   4.818  11.796  0.00  0.00    +0.000 NA
ATOM     29  C   UNL     1      42.757   5.918  11.297  0.00  0.00    +0.000 A 
ATOM     30  N   UNL     1      43.445   7.103  11.260  0.00  0.00    +0.000 N 
ATOM     31  C   UNL     1      44.707   7.254  11.787  0.00  0.00    +0.000 A 
ATOM     32  O   UNL     1      45.264   8.340  11.794  0.00  0.00    +0.000 OA
ATOM     33  C   UNL     1      45.277   6.039  12.336  0.00  0.00    +0.000 A 
ATOM     34  H   UNL     1      43.025   7.934  10.870  0.00  0.00    +0.000 HD
ENDBRANCH  21  24
ENDBRANCH  19  20
ENDBRANCH   4  19
TORSDOF 8
ENDMDL
MODEL 9
REMARK VINA RESULT:    -6.714      2.457      4.088
REMARK INTER + INTRA:         -10.852
REMARK INTER:                  -9.346
REMARK INTRA:                  -1.506
REMARK UNBOUND:                -0.998
REMARK  Name = 
REMARK  10 active torsions:
REMARK  status: ('A' for Active; 'I' for Inactive)
REMARK    1  A    between atoms: C_1  and  C_2
REMARK    2  A    between atoms: C_2  and  C_3
REMARK    3  A    between atoms: C_2  and  N_10
REMARK    4  A    between atoms: C_3  and  C_4
REMARK    5  A    between atoms: N_10  and  C_11
REMARK    6  A    between atoms: N_10  and  C_12
REMARK    7  A    between atoms: C_12  and  C_13
REMARK    8  A    between atoms: C_16  and  C_17
REMARK    9  A    between atoms: C_17  and  N_18
REMARK   10  A    between atoms: C_19  and  C_21
REMARK                            x       y       z     vdW  Elec       q    Type
REMARK                         _______ _______ _______ _____ _____    ______ ____
ROOT
ATOM      1  C   UNL     1      47.254   4.574  14.925  0.00  0.00    +0.000 A 
ATOM      2  C   UNL     1      47.234   3.897  16.149  0.00  0.00    +0.000 A 
ATOM      3  C   UNL     1      47.829   4.445  17.281  0.00  0.00    +0.000 A 
ATOM      4  C   UNL     1      48.533   5.633  17.158  0.00  0.00    +0.000 A 
ATOM      5  N   UNL     1      48.623   6.297  15.977  0.00  0.00    +0.000 NA
ATOM      6  C   UNL     1      47.971   5.768  14.908  0.00  0.00    +0.000 A 
ENDROOT
BRANCH   1   7
ATOM      7  C   UNL     1      46.651   3.999  13.652  0.00  0.00    +0.000 C 
BRANCH   7   8
ATOM      8  N   UNL     1      45.475   4.700  13.058  0.00  0.00    +0.000 NA
ATOM      9  C   UNL     1      44.517   3.742  12.488  0.00  0.00    +0.000 C 
BRANCH   8  11
ATOM     10  C   UNL     1      45.031   5.503  10.724  0.00  0.00    +0.000 C 
ATOM     11  C   UNL     1      45.877   5.701  12.005  0.00  0.00    +0.000 C 
BRANCH  11  12
ATOM     12  C   UNL     1      45.734   7.187  12.453  0.00  0.00    +0.000 C 
BRANCH  12  13
ATOM     13  C   UNL     1      46.939   8.067  12.167  0.00  0.00    +0.000 A 
ATOM     14  C   UNL     1      48.175   7.495  11.833  0.00  0.00    +0.000 A 
ATOM     15  C   UNL     1      49.269   8.303  11.517  0.00  0.00    +0.000 A 
ATOM     16  C   UNL     1      49.144   9.690  11.537  0.00  0.00    +0.000 A 
ATOM     17  C   UNL     1      47.926  10.272  11.884  0.00  0.00    +0.000 A 
ATOM     18  C   UNL     1      46.829   9.465  12.194  0.00  0.00    +0.000 A 
ENDBRANCH  12  13
ENDBRANCH  11  12
ENDBRANCH   8  11
ENDBRANCH   7   8
ENDBRANCH   1   7
BRANCH   4  19
ATOM     19  C   UNL     1      49.361   6.123  18.325  0.00  0.00    +0.000 C 
BRANCH  19  20
ATOM     20  N   UNL     1      50.420   5.177  18.615  0.00  0.00    +0.000 N 
ATOM     21  C   UNL     1      51.633   5.198  17.977  0.00  0.00    +0.000 C 
ATOM     22  O   UNL     1      51.913   6.056  17.147  0.00  0.00    +0.000 OA
ATOM     23  H   UNL     1      50.136   4.358  19.145  0.00  0.00    +0.000 HD
BRANCH  21  24
ATOM     24  C   UNL     1      52.608   4.182  18.388  0.00  0.00    +0.000 A 
ATOM     25  C   UNL     1      53.731   4.563  19.110  0.00  0.00    +0.000 A 
ATOM     26  S   UNL     1      54.752   3.264  19.531  0.00  0.00    +0.000 S 
ATOM     27  C   UNL     1      53.752   2.147  18.724  0.00  0.00    +0.000 A 
ATOM     28  N   UNL     1      54.080   0.829  18.670  0.00  0.00    +0.000 NA
ATOM     29  C   UNL     1      53.252   0.101  17.999  0.00  0.00    +0.000 A 
ATOM     30  N   UNL     1      52.120   0.570  17.385  0.00  0.00    +0.000 N 
ATOM     31  C   UNL     1      51.725   1.887  17.445  0.00  0.00    +0.000 A 
ATOM     32  O   UNL     1      50.678   2.258  16.940  0.00  0.00    +0.000 OA
ATOM     33  C   UNL     1      52.639   2.754  18.165  0.00  0.00    +0.000 A 
ATOM     34  H   UNL     1      51.502  -0.055  16.887  0.00  0.00    +0.000 HD
ENDBRANCH  21  24
ENDBRANCH  19  20
ENDBRANCH   4  19
TORSDOF 8
ENDMDL
