MODEL 1
REMARK VINA RESULT:    -5.928      0.000      0.000
REMARK INTER + INTRA:          -8.076
REMARK INTER:                  -7.661
REMARK INTRA:                  -0.416
REMARK UNBOUND:                -0.416
REMARK  Name = 
REMARK  7 active torsions:
REMARK  status: ('A' for Active; 'I' for Inactive)
REMARK    1  A    between atoms: C_1  and  O_2
REMARK    2  A    between atoms: O_2  and  C_3
REMARK    3  A    between atoms: C_6  and  C_7
REMARK    4  A    between atoms: C_8  and  C_9
REMARK    5  A    between atoms: C_14  and  C_15
REMARK    6  A    between atoms: C_15  and  N_16
REMARK    7  A    between atoms: C_19  and  O_20
REMARK                            x       y       z     vdW  Elec       q    Type
REMARK                         _______ _______ _______ _____ _____    ______ ____
ROOT
ATOM      1  C   UNL     1      45.906   3.388   8.870  0.00  0.00    +0.000 C 
ATOM      2  C   UNL     1      45.868   4.721   9.033  0.00  0.00    +0.000 C 
ENDROOT
BRANCH   2   3
ATOM      3  C   UNL     1      45.458   5.400  10.273  0.00  0.00    +0.000 A 
ATOM      4  C   UNL     1      44.414   4.931  11.078  0.00  0.00    +0.000 A 
ATOM      5  C   UNL     1      44.087   5.596  12.258  0.00  0.00    +0.000 A 
ATOM      6 CL   UNL     1      42.784   5.020  13.227  0.00  0.00    +0.000 Cl
ATOM      7  C   UNL     1      44.800   6.722  12.664  0.00  0.00    +0.000 A 
ATOM      8  C   UNL     1      45.861   7.202  11.888  0.00  0.00    +0.000 A 
ATOM      9  C   UNL     1      46.181   6.530  10.693  0.00  0.00    +0.000 A 
BRANCH   8  10
ATOM     10  C   UNL     1      46.625   8.432  12.307  0.00  0.00    +0.000 C 
BRANCH  10  11
ATOM     11  N   UNL     1      46.367   8.783  13.697  0.00  0.00    +0.000 NA
ATOM     12  H   UNL     1      45.852   9.662  13.728  0.00  0.00    +0.000 HD
ATOM     13  H   UNL     1      47.254   8.961  14.165  0.00  0.00    +0.000 HD
ENDBRANCH  10  11
ENDBRANCH   8  10
ENDBRANCH   2   3
BRANCH   1  17
ATOM     14  C   UNL     1      47.181   1.384   5.287  0.00  0.00    +0.000 A 
ATOM     15  C   UNL     1      47.004   2.769   5.289  0.00  0.00    +0.000 A 
ATOM     16  C   UNL     1      46.584   3.430   6.449  0.00  0.00    +0.000 A 
ATOM     17  C   UNL     1      46.318   2.720   7.626  0.00  0.00    +0.000 A 
ATOM     18  C   UNL     1      46.508   1.333   7.630  0.00  0.00    +0.000 A 
ATOM     19  C   UNL     1      46.928   0.676   6.470  0.00  0.00    +0.000 A 
BRANCH  14  21
ATOM     20  C   UNL     1      46.621   0.365   3.210  0.00  0.00    +0.000 C 
ATOM     21  O   UNL     1      47.592   0.649   4.207  0.00  0.00    +0.000 OA
ENDBRANCH  14  21
BRANCH  19  22
ATOM     22  O   UNL     1      47.101  -0.683   6.486  0.00  0.00    +0.000 OA
ATOM     23  H   UNL     1      46.243  -1.115   6.351  0.00  0.00    +0.000 HD
ENDBRANCH  19  22
ENDBRANCH   1  17
TORSDOF 6
ENDMDL
MODEL 2
REMARK VINA RESULT:    -5.915      5.754      7.144
REMARK INTER + INTRA:          -8.060
REMARK INTER:                  -7.644
REMARK INTRA:                  -0.416
REMARK UNBOUND:                -0.416
REMARK  Name = 
REMARK  7 active torsions:
REMARK  status: ('A' for Active; 'I' for Inactive)
REMARK    1  A    between atoms: C_1  and  O_2
REMARK    2  A    between atoms: O_2  and  C_3
REMARK    3  A    between atoms: C_6  and  C_7
REMARK    4  A    between atoms: C_8  and  C_9
REMARK    5  A    between atoms: C_14  and  C_15
REMARK    6  A    between atoms: C_15  and  N_16
REMARK    7  A    between atoms: C_19  and  O_20
REMARK                            x       y       z     vdW  Elec       q    Type
REMARK                         _______ _______ _______ _____ _____    ______ ____
ROOT
ATOM      1  C   UNL     1      47.015   4.934  14.248  0.00  0.00    +0.000 C 
ATOM      2  C   UNL     1      46.994   4.012  15.226  0.00  0.00    +0.000 C 
ENDROOT
BRANCH   2   3
ATOM      3  C   UNL     1      47.779   4.095  16.468  0.00  0.00    +0.000 A 
ATOM      4  C   UNL     1      47.351   4.825  17.582  0.00  0.00    +0.000 A 
ATOM      5  C   UNL     1      48.119   4.846  18.744  0.00  0.00    +0.000 A 
ATOM      6 CL   UNL     1      47.589   5.768  20.100  0.00  0.00    +0.000 Cl
ATOM      7  C   UNL     1      49.312   4.130  18.824  0.00  0.00    +0.000 A 
ATOM      8  C   UNL     1      49.756   3.377  17.731  0.00  0.00    +0.000 A 
ATOM      9  C   UNL     1      48.978   3.367  16.558  0.00  0.00    +0.000 A 
BRANCH   8  10
ATOM     10  C   UNL     1      51.055   2.616  17.799  0.00  0.00    +0.000 C 
BRANCH  10  11
ATOM     11  N   UNL     1      50.986   1.359  17.067  0.00  0.00    +0.000 NA
ATOM     12  H   UNL     1      51.523   0.652  17.569  0.00  0.00    +0.000 HD
ATOM     13  H   UNL     1      51.447   1.472  16.166  0.00  0.00    +0.000 HD
ENDBRANCH  10  11
ENDBRANCH   8  10
ENDBRANCH   2   3
BRANCH   1  17
ATOM     14  C   UNL     1      44.746   4.566  10.616  0.00  0.00    +0.000 A 
ATOM     15  C   UNL     1      45.505   5.714  10.853  0.00  0.00    +0.000 A 
ATOM     16  C   UNL     1      46.242   5.846  12.035  0.00  0.00    +0.000 A 
ATOM     17  C   UNL     1      46.225   4.841  13.010  0.00  0.00    +0.000 A 
ATOM     18  C   UNL     1      45.476   3.684  12.767  0.00  0.00    +0.000 A 
ATOM     19  C   UNL     1      44.742   3.555  11.585  0.00  0.00    +0.000 A 
BRANCH  14  21
ATOM     20  C   UNL     1      44.692   3.943   8.319  0.00  0.00    +0.000 C 
ATOM     21  O   UNL     1      43.997   4.342   9.491  0.00  0.00    +0.000 OA
ENDBRANCH  14  21
BRANCH  19  22
ATOM     22  O   UNL     1      44.005   2.421  11.366  0.00  0.00    +0.000 OA
ATOM     23  H   UNL     1      44.504   1.822  10.789  0.00  0.00    +0.000 HD
ENDBRANCH  19  22
ENDBRANCH   1  17
TORSDOF 6
ENDMDL
MODEL 3
REMARK VINA RESULT:    -5.731      5.313      6.837
REMARK INTER + INTRA:          -7.822
REMARK INTER:                  -7.385
REMARK INTRA:                  -0.437
REMARK UNBOUND:                -0.416
REMARK  Name = 
REMARK  7 active torsions:
REMARK  status: ('A' for Active; 'I' for Inactive)
REMARK    1  A    between atoms: C_1  and  O_2
REMARK    2  A    between atoms: O_2  and  C_3
REMARK    3  A    between atoms: C_6  and  C_7
REMARK    4  A    between atoms: C_8  and  C_9
REMARK    5  A    between atoms: C_14  and  C_15
REMARK    6  A    between atoms: C_15  and  N_16
REMARK    7  A    between atoms: C_19  and  O_20
REMARK                            x       y       z     vdW  Elec       q    Type
REMARK                         _______ _______ _______ _____ _____    ______ ____
ROOT
ATOM      1  C   UNL     1      46.466   4.656  14.175  0.00  0.00    +0.000 C 
ATOM      2  C   UNL     1      47.516   5.436  14.488  0.00  0.00    +0.000 C 
ENDROOT
BRANCH   2   3
ATOM      3  C   UNL     1      48.153   5.485  15.813  0.00  0.00    +0.000 A 
ATOM      4  C   UNL     1      48.848   6.608  16.274  0.00  0.00    +0.000 A 
ATOM      5  C   UNL     1      49.407   6.611  17.550  0.00  0.00    +0.000 A 
ATOM      6 CL   UNL     1      50.279   7.994  18.094  0.00  0.00    +0.000 Cl
ATOM      7  C   UNL     1      49.271   5.510  18.392  0.00  0.00    +0.000 A 
ATOM      8  C   UNL     1      48.565   4.379  17.964  0.00  0.00    +0.000 A 
ATOM      9  C   UNL     1      48.009   4.381  16.671  0.00  0.00    +0.000 A 
BRANCH   8  10
ATOM     10  C   UNL     1      48.430   3.174  18.859  0.00  0.00    +0.000 C 
BRANCH  10  11
ATOM     11  N   UNL     1      48.411   3.544  20.268  0.00  0.00    +0.000 NA
ATOM     12  H   UNL     1      47.677   4.235  20.420  0.00  0.00    +0.000 HD
ATOM     13  H   UNL     1      49.286   4.008  20.501  0.00  0.00    +0.000 HD
ENDBRANCH  10  11
ENDBRANCH   8  10
ENDBRANCH   2   3
BRANCH   1  17
ATOM     14  C   UNL     1      44.657   4.438  10.281  0.00  0.00    +0.000 A 
ATOM     15  C   UNL     1      45.466   5.525  10.617  0.00  0.00    +0.000 A 
ATOM     16  C   UNL     1      46.056   5.608  11.883  0.00  0.00    +0.000 A 
ATOM     17  C   UNL     1      45.837   4.615  12.845  0.00  0.00    +0.000 A 
ATOM     18  C   UNL     1      45.037   3.517  12.506  0.00  0.00    +0.000 A 
ATOM     19  C   UNL     1      44.451   3.438  11.240  0.00  0.00    +0.000 A 
BRANCH  14  21
ATOM     20  C   UNL     1      44.831   3.738   8.013  0.00  0.00    +0.000 C 
ATOM     21  O   UNL     1      44.042   4.265   9.070  0.00  0.00    +0.000 OA
ENDBRANCH  14  21
BRANCH  19  22
ATOM     22  O   UNL     1      43.662   2.362  10.926  0.00  0.00    +0.000 OA
ATOM     23  H   UNL     1      43.659   2.238   9.964  0.00  0.00    +0.000 HD
ENDBRANCH  19  22
ENDBRANCH   1  17
TORSDOF 6
ENDMDL
MODEL 4
REMARK VINA RESULT:    -5.631      5.745      7.186
REMARK INTER + INTRA:          -7.693
REMARK INTER:                  -7.266
REMARK INTRA:                  -0.427
REMARK UNBOUND:                -0.416
REMARK  Name = 
REMARK  7 active torsions:
REMARK  status: ('A' for Active; 'I' for Inactive)
REMARK    1  A    between atoms: C_1  and  O_2
REMARK    2  A    between atoms: O_2  and  C_3
REMARK    3  A    between atoms: C_6  and  C_7
REMARK    4  A    between atoms: C_8  and  C_9
REMARK    5  A    between atoms: C_14  and  C_15
REMARK    6  A    between atoms: C_15  and  N_16
REMARK    7  A    between atoms: C_19  and  O_20
REMARK                            x       y       z     vdW  Elec       q    Type
REMARK                         _______ _______ _______ _____ _____    ______ ____
ROOT
ATOM      1  C   UNL     1      47.013   4.882  14.310  0.00  0.00    +0.000 C 
ATOM      2  C   UNL     1      47.028   3.934  15.263  0.00  0.00    +0.000 C 
ENDROOT
BRANCH   2   3
ATOM      3  C   UNL     1      47.832   4.000  16.493  0.00  0.00    +0.000 A 
ATOM      4  C   UNL     1      49.056   3.336  16.630  0.00  0.00    +0.000 A 
ATOM      5  C   UNL     1      49.791   3.457  17.807  0.00  0.00    +0.000 A 
ATOM      6 CL   UNL     1      51.286   2.614  17.968  0.00  0.00    +0.000 Cl
ATOM      7  C   UNL     1      49.333   4.250  18.857  0.00  0.00    +0.000 A 
ATOM      8  C   UNL     1      48.121   4.940  18.741  0.00  0.00    +0.000 A 
ATOM      9  C   UNL     1      47.380   4.807  17.552  0.00  0.00    +0.000 A 
BRANCH   8  10
ATOM     10  C   UNL     1      47.606   5.784  19.878  0.00  0.00    +0.000 C 
BRANCH  10  11
ATOM     11  N   UNL     1      47.675   5.080  21.151  0.00  0.00    +0.000 NA
ATOM     12  H   UNL     1      47.927   4.107  20.980  0.00  0.00    +0.000 HD
ATOM     13  H   UNL     1      46.748   5.059  21.571  0.00  0.00    +0.000 HD
ENDBRANCH  10  11
ENDBRANCH   8  10
ENDBRANCH   2   3
BRANCH   1  17
ATOM     14  C   UNL     1      44.687   4.564  10.709  0.00  0.00    +0.000 A 
ATOM     15  C   UNL     1      45.447   5.709  10.952  0.00  0.00    +0.000 A 
ATOM     16  C   UNL     1      46.204   5.824  12.123  0.00  0.00    +0.000 A 
ATOM     17  C   UNL     1      46.204   4.805  13.083  0.00  0.00    +0.000 A 
ATOM     18  C   UNL     1      45.453   3.651  12.836  0.00  0.00    +0.000 A 
ATOM     19  C   UNL     1      44.699   3.539  11.664  0.00  0.00    +0.000 A 
BRANCH  14  21
ATOM     20  C   UNL     1      44.600   4.005   8.397  0.00  0.00    +0.000 C 
ATOM     21  O   UNL     1      43.920   4.356   9.594  0.00  0.00    +0.000 OA
ENDBRANCH  14  21
BRANCH  19  22
ATOM     22  O   UNL     1      43.960   2.407  11.440  0.00  0.00    +0.000 OA
ATOM     23  H   UNL     1      43.167   2.427  11.997  0.00  0.00    +0.000 HD
ENDBRANCH  19  22
ENDBRANCH   1  17
TORSDOF 6
ENDMDL
MODEL 5
REMARK VINA RESULT:    -5.409      5.221      8.595
REMARK INTER + INTRA:          -7.406
REMARK INTER:                  -6.982
REMARK INTRA:                  -0.424
REMARK UNBOUND:                -0.416
REMARK  Name = 
REMARK  7 active torsions:
REMARK  status: ('A' for Active; 'I' for Inactive)
REMARK    1  A    between atoms: C_1  and  O_2
REMARK    2  A    between atoms: O_2  and  C_3
REMARK    3  A    between atoms: C_6  and  C_7
REMARK    4  A    between atoms: C_8  and  C_9
REMARK    5  A    between atoms: C_14  and  C_15
REMARK    6  A    between atoms: C_15  and  N_16
REMARK    7  A    between atoms: C_19  and  O_20
REMARK                            x       y       z     vdW  Elec       q    Type
REMARK                         _______ _______ _______ _____ _____    ______ ____
ROOT
ATOM      1  C   UNL     1      47.004   6.771  11.895  0.00  0.00    +0.000 C 
ATOM      2  C   UNL     1      46.129   6.656  10.882  0.00  0.00    +0.000 C 
ENDROOT
BRANCH   2   3
ATOM      3  C   UNL     1      45.558   5.384  10.412  0.00  0.00    +0.000 A 
ATOM      4  C   UNL     1      44.707   4.604  11.202  0.00  0.00    +0.000 A 
ATOM      5  C   UNL     1      44.171   3.421  10.696  0.00  0.00    +0.000 A 
ATOM      6 CL   UNL     1      43.142   2.460  11.689  0.00  0.00    +0.000 Cl
ATOM      7  C   UNL     1      44.456   3.006   9.397  0.00  0.00    +0.000 A 
ATOM      8  C   UNL     1      45.290   3.776   8.579  0.00  0.00    +0.000 A 
ATOM      9  C   UNL     1      45.834   4.966   9.099  0.00  0.00    +0.000 A 
BRANCH   8  10
ATOM     10  C   UNL     1      45.622   3.326   7.179  0.00  0.00    +0.000 C 
BRANCH  10  11
ATOM     11  N   UNL     1      46.796   4.009   6.654  0.00  0.00    +0.000 NA
ATOM     12  H   UNL     1      46.619   4.279   5.687  0.00  0.00    +0.000 HD
ATOM     13  H   UNL     1      47.576   3.354   6.623  0.00  0.00    +0.000 HD
ENDBRANCH  10  11
ENDBRANCH   8  10
ENDBRANCH   2   3
BRANCH   1  17
ATOM     14  C   UNL     1      48.624  10.549  13.155  0.00  0.00    +0.000 A 
ATOM     15  C   UNL     1      49.381   9.384  13.288  0.00  0.00    +0.000 A 
ATOM     16  C   UNL     1      48.861   8.149  12.886  0.00  0.00    +0.000 A 
ATOM     17  C   UNL     1      47.569   8.050  12.357  0.00  0.00    +0.000 A 
ATOM     18  C   UNL     1      46.813   9.219  12.209  0.00  0.00    +0.000 A 
ATOM     19  C   UNL     1      47.337  10.451  12.611  0.00  0.00    +0.000 A 
BRANCH  14  21
ATOM     20  C   UNL     1      50.418  12.105  13.310  0.00  0.00    +0.000 C 
ATOM     21  O   UNL     1      49.046  11.802  13.513  0.00  0.00    +0.000 OA
ENDBRANCH  14  21
BRANCH  19  22
ATOM     22  O   UNL     1      46.581  11.585  12.470  0.00  0.00    +0.000 OA
ATOM     23  H   UNL     1      47.162  12.361  12.498  0.00  0.00    +0.000 HD
ENDBRANCH  19  22
ENDBRANCH   1  17
TORSDOF 6
ENDMDL
MODEL 6
REMARK VINA RESULT:    -5.298      5.686      8.683
REMARK INTER + INTRA:          -7.262
REMARK INTER:                  -6.823
REMARK INTRA:                  -0.439
REMARK UNBOUND:                -0.416
REMARK  Name = 
REMARK  7 active torsions:
REMARK  status: ('A' for Active; 'I' for Inactive)
REMARK    1  A    between atoms: C_1  and  O_2
REMARK    2  A    between atoms: O_2  and  C_3
REMARK    3  A    between atoms: C_6  and  C_7
REMARK    4  A    between atoms: C_8  and  C_9
REMARK    5  A    between atoms: C_14  and  C_15
REMARK    6  A    between atoms: C_15  and  N_16
REMARK    7  A    between atoms: C_19  and  O_20
REMARK                            x       y       z     vdW  Elec       q    Type
REMARK                         _______ _______ _______ _____ _____    ______ ____
ROOT
ATOM      1  C   UNL     1      47.517   6.868  11.926  0.00  0.00    +0.000 C 
ATOM      2  C   UNL     1      46.467   6.906  11.088  0.00  0.00    +0.000 C 
ENDROOT
BRANCH   2   3
ATOM      3  C   UNL     1      45.730   5.721  10.620  0.00  0.00    +0.000 A 
ATOM      4  C   UNL     1      45.857   5.220   9.320  0.00  0.00    +0.000 A 
ATOM      5  C   UNL     1      45.158   4.076   8.939  0.00  0.00    +0.000 A 
ATOM      6 CL   UNL     1      45.307   3.484   7.328  0.00  0.00    +0.000 Cl
ATOM      7  C   UNL     1      44.338   3.406   9.844  0.00  0.00    +0.000 A 
ATOM      8  C   UNL     1      44.206   3.875  11.156  0.00  0.00    +0.000 A 
ATOM      9  C   UNL     1      44.910   5.034  11.532  0.00  0.00    +0.000 A 
BRANCH   8  10
ATOM     10  C   UNL     1      43.306   3.169  12.138  0.00  0.00    +0.000 C 
BRANCH  10  11
ATOM     11  N   UNL     1      42.973   1.821  11.697  0.00  0.00    +0.000 NA
ATOM     12  H   UNL     1      43.801   1.394  11.282  0.00  0.00    +0.000 HD
ATOM     13  H   UNL     1      42.282   1.876  10.951  0.00  0.00    +0.000 HD
ENDBRANCH  10  11
ENDBRANCH   8  10
ENDBRANCH   2   3
BRANCH   1  17
ATOM     14  C   UNL     1      49.609  10.402  13.197  0.00  0.00    +0.000 A 
ATOM     15  C   UNL     1      50.288   9.186  13.094  0.00  0.00    +0.000 A 
ATOM     16  C   UNL     1      49.615   8.029  12.687  0.00  0.00    +0.000 A 
ATOM     17  C   UNL     1      48.247   8.059  12.388  0.00  0.00    +0.000 A 
ATOM     18  C   UNL     1      47.568   9.280  12.476  0.00  0.00    +0.000 A 
ATOM     19  C   UNL     1      48.244  10.434  12.883  0.00  0.00    +0.000 A 
BRANCH  14  21
ATOM     20  C   UNL     1      51.180  12.128  12.730  0.00  0.00    +0.000 C 
ATOM     21  O   UNL     1      50.180  11.586  13.581  0.00  0.00    +0.000 OA
ENDBRANCH  14  21
BRANCH  19  22
ATOM     22  O   UNL     1      47.564  11.620  12.975  0.00  0.00    +0.000 OA
ATOM     23  H   UNL     1      46.623  11.462  12.806  0.00  0.00    +0.000 HD
ENDBRANCH  19  22
ENDBRANCH   1  17
TORSDOF 6
ENDMDL
MODEL 7
REMARK VINA RESULT:    -5.240      5.300      7.242
REMARK INTER + INTRA:          -7.187
REMARK INTER:                  -6.766
REMARK INTRA:                  -0.421
REMARK UNBOUND:                -0.416
REMARK  Name = 
REMARK  7 active torsions:
REMARK  status: ('A' for Active; 'I' for Inactive)
REMARK    1  A    between atoms: C_1  and  O_2
REMARK    2  A    between atoms: O_2  and  C_3
REMARK    3  A    between atoms: C_6  and  C_7
REMARK    4  A    between atoms: C_8  and  C_9
REMARK    5  A    between atoms: C_14  and  C_15
REMARK    6  A    between atoms: C_15  and  N_16
REMARK    7  A    between atoms: C_19  and  O_20
REMARK                            x       y       z     vdW  Elec       q    Type
REMARK                         _______ _______ _______ _____ _____    ______ ____
ROOT
ATOM      1  C   UNL     1      46.953   7.692  11.787  0.00  0.00    +0.000 C 
ATOM      2  C   UNL     1      48.268   7.444  11.657  0.00  0.00    +0.000 C 
ENDROOT
BRANCH   2   3
ATOM      3  C   UNL     1      49.326   8.453  11.817  0.00  0.00    +0.000 A 
ATOM      4  C   UNL     1      49.072   9.743  12.296  0.00  0.00    +0.000 A 
ATOM      5  C   UNL     1      50.117  10.650  12.457  0.00  0.00    +0.000 A 
ATOM      6 CL   UNL     1      49.784  12.242  13.026  0.00  0.00    +0.000 Cl
ATOM      7  C   UNL     1      51.430  10.286  12.162  0.00  0.00    +0.000 A 
ATOM      8  C   UNL     1      51.716   8.997  11.699  0.00  0.00    +0.000 A 
ATOM      9  C   UNL     1      50.654   8.089  11.532  0.00  0.00    +0.000 A 
BRANCH   8  10
ATOM     10  C   UNL     1      53.129   8.599  11.357  0.00  0.00    +0.000 C 
BRANCH  10  11
ATOM     11  N   UNL     1      53.618   7.535  12.223  0.00  0.00    +0.000 NA
ATOM     12  H   UNL     1      53.430   6.635  11.782  0.00  0.00    +0.000 HD
ATOM     13  H   UNL     1      53.083   7.539  13.089  0.00  0.00    +0.000 HD
ENDBRANCH  10  11
ENDBRANCH   8  10
ENDBRANCH   2   3
BRANCH   1  17
ATOM     14  C   UNL     1      43.896   4.692  11.410  0.00  0.00    +0.000 A 
ATOM     15  C   UNL     1      44.900   4.793  10.445  0.00  0.00    +0.000 A 
ATOM     16  C   UNL     1      45.896   5.769  10.556  0.00  0.00    +0.000 A 
ATOM     17  C   UNL     1      45.902   6.674  11.624  0.00  0.00    +0.000 A 
ATOM     18  C   UNL     1      44.905   6.566  12.600  0.00  0.00    +0.000 A 
ATOM     19  C   UNL     1      43.912   5.589  12.487  0.00  0.00    +0.000 A 
BRANCH  14  21
ATOM     20  C   UNL     1      43.235   2.419  11.649  0.00  0.00    +0.000 C 
ATOM     21  O   UNL     1      42.883   3.771  11.393  0.00  0.00    +0.000 OA
ENDBRANCH  14  21
BRANCH  19  22
ATOM     22  O   UNL     1      42.936   5.501  13.445  0.00  0.00    +0.000 OA
ATOM     23  H   UNL     1      42.719   4.568  13.595  0.00  0.00    +0.000 HD
ENDBRANCH  19  22
ENDBRANCH   1  17
TORSDOF 6
ENDMDL
MODEL 8
REMARK VINA RESULT:    -5.216      4.242      6.228
REMARK INTER + INTRA:          -7.157
REMARK INTER:                  -6.711
REMARK INTRA:                  -0.446
REMARK UNBOUND:                -0.416
REMARK  Name = 
REMARK  7 active torsions:
REMARK  status: ('A' for Active; 'I' for Inactive)
REMARK    1  A    between atoms: C_1  and  O_2
REMARK    2  A    between atoms: O_2  and  C_3
REMARK    3  A    between atoms: C_6  and  C_7
REMARK    4  A    between atoms: C_8  and  C_9
REMARK    5  A    between atoms: C_14  and  C_15
REMARK    6  A    between atoms: C_15  and  N_16
REMARK    7  A    between atoms: C_19  and  O_20
REMARK                            x       y       z     vdW  Elec       q    Type
REMARK                         _______ _______ _______ _____ _____    ______ ____
ROOT
ATOM      1  C   UNL     1      46.824   6.599  13.037  0.00  0.00    +0.000 C 
ATOM      2  C   UNL     1      47.761   6.209  13.918  0.00  0.00    +0.000 C 
ENDROOT
BRANCH   2   3
ATOM      3  C   UNL     1      48.539   7.122  14.769  0.00  0.00    +0.000 A 
ATOM      4  C   UNL     1      49.155   6.707  15.955  0.00  0.00    +0.000 A 
ATOM      5  C   UNL     1      49.905   7.608  16.708  0.00  0.00    +0.000 A 
ATOM      6 CL   UNL     1      50.638   7.086  18.177  0.00  0.00    +0.000 Cl
ATOM      7  C   UNL     1      50.068   8.927  16.289  0.00  0.00    +0.000 A 
ATOM      8  C   UNL     1      49.478   9.365  15.098  0.00  0.00    +0.000 A 
ATOM      9  C   UNL     1      48.716   8.451  14.346  0.00  0.00    +0.000 A 
BRANCH   8  10
ATOM     10  C   UNL     1      49.630  10.795  14.646  0.00  0.00    +0.000 C 
BRANCH  10  11
ATOM     11  N   UNL     1      48.659  11.673  15.286  0.00  0.00    +0.000 NA
ATOM     12  H   UNL     1      48.963  12.640  15.177  0.00  0.00    +0.000 HD
ATOM     13  H   UNL     1      48.656  11.491  16.288  0.00  0.00    +0.000 HD
ENDBRANCH  10  11
ENDBRANCH   8  10
ENDBRANCH   2   3
BRANCH   1  17
ATOM     14  C   UNL     1      44.623   3.824  10.602  0.00  0.00    +0.000 A 
ATOM     15  C   UNL     1      45.164   4.977  10.032  0.00  0.00    +0.000 A 
ATOM     16  C   UNL     1      45.878   5.890  10.817  0.00  0.00    +0.000 A 
ATOM     17  C   UNL     1      46.052   5.676  12.190  0.00  0.00    +0.000 A 
ATOM     18  C   UNL     1      45.523   4.513  12.760  0.00  0.00    +0.000 A 
ATOM     19  C   UNL     1      44.811   3.603  11.972  0.00  0.00    +0.000 A 
BRANCH  14  21
ATOM     20  C   UNL     1      44.649   2.018   9.052  0.00  0.00    +0.000 C 
ATOM     21  O   UNL     1      43.915   2.871   9.918  0.00  0.00    +0.000 OA
ENDBRANCH  14  21
BRANCH  19  22
ATOM     22  O   UNL     1      44.289   2.474  12.547  0.00  0.00    +0.000 OA
ATOM     23  H   UNL     1      44.744   1.695  12.190  0.00  0.00    +0.000 HD
ENDBRANCH  19  22
ENDBRANCH   1  17
TORSDOF 6
ENDMDL
MODEL 9
REMARK VINA RESULT:    -5.205      3.959      6.025
REMARK INTER + INTRA:          -7.142
REMARK INTER:                  -6.698
REMARK INTRA:                  -0.444
REMARK UNBOUND:                -0.416
REMARK  Name = 
REMARK  7 active torsions:
REMARK  status: ('A' for Active; 'I' for Inactive)
REMARK    1  A    between atoms: C_1  and  O_2
REMARK    2  A    between atoms: O_2  and  C_3
REMARK    3  A    between atoms: C_6  and  C_7
REMARK    4  A    between atoms: C_8  and  C_9
REMARK    5  A    between atoms: C_14  and  C_15
REMARK    6  A    between atoms: C_15  and  N_16
REMARK    7  A    between atoms: C_19  and  O_20
REMARK                            x       y       z     vdW  Elec       q    Type
REMARK                         _______ _______ _______ _____ _____    ______ ____
ROOT
ATOM      1  C   UNL     1      46.219   6.795  12.720  0.00  0.00    +0.000 C 
ATOM      2  C   UNL     1      47.445   7.303  12.509  0.00  0.00    +0.000 C 
ENDROOT
BRANCH   2   3
ATOM      3  C   UNL     1      48.045   8.392  13.296  0.00  0.00    +0.000 A 
ATOM      4  C   UNL     1      48.374   9.632  12.739  0.00  0.00    +0.000 A 
ATOM      5  C   UNL     1      48.913  10.639  13.538  0.00  0.00    +0.000 A 
ATOM      6 CL   UNL     1      49.334  12.153  12.832  0.00  0.00    +0.000 Cl
ATOM      7  C   UNL     1      49.115  10.436  14.902  0.00  0.00    +0.000 A 
ATOM      8  C   UNL     1      48.777   9.212  15.489  0.00  0.00    +0.000 A 
ATOM      9  C   UNL     1      48.241   8.197  14.675  0.00  0.00    +0.000 A 
BRANCH   8  10
ATOM     10  C   UNL     1      49.012   8.974  16.960  0.00  0.00    +0.000 C 
BRANCH  10  11
ATOM     11  N   UNL     1      47.767   8.721  17.673  0.00  0.00    +0.000 NA
ATOM     12  H   UNL     1      47.040   9.329  17.300  0.00  0.00    +0.000 HD
ATOM     13  H   UNL     1      47.883   8.988  18.649  0.00  0.00    +0.000 HD
ENDBRANCH  10  11
ENDBRANCH   8  10
ENDBRANCH   2   3
BRANCH   1  17
ATOM     14  C   UNL     1      44.549   3.545  10.456  0.00  0.00    +0.000 A 
ATOM     15  C   UNL     1      45.082   4.654   9.798  0.00  0.00    +0.000 A 
ATOM     16  C   UNL     1      45.623   5.720  10.526  0.00  0.00    +0.000 A 
ATOM     17  C   UNL     1      45.629   5.706  11.926  0.00  0.00    +0.000 A 
ATOM     18  C   UNL     1      45.108   4.588  12.588  0.00  0.00    +0.000 A 
ATOM     19  C   UNL     1      44.569   3.525  11.857  0.00  0.00    +0.000 A 
BRANCH  14  21
ATOM     20  C   UNL     1      44.827   1.753   8.915  0.00  0.00    +0.000 C 
ATOM     21  O   UNL     1      44.002   2.453   9.835  0.00  0.00    +0.000 OA
ENDBRANCH  14  21
BRANCH  19  22
ATOM     22  O   UNL     1      44.052   2.442  12.519  0.00  0.00    +0.000 OA
ATOM     23  H   UNL     1      43.120   2.333  12.274  0.00  0.00    +0.000 HD
ENDBRANCH  19  22
ENDBRANCH   1  17
TORSDOF 6
ENDMDL
