MODEL 1
REMARK VINA RESULT:    -7.927      0.000      0.000
REMARK INTER + INTRA:         -12.286
REMARK INTER:                 -11.171
REMARK INTRA:                  -1.116
REMARK UNBOUND:                -1.116
REMARK  Name = 
REMARK  7 active torsions:
REMARK  status: ('A' for Active; 'I' for Inactive)
REMARK    1  A    between atoms: C_2  and  C_4
REMARK    2  A    between atoms: C_7  and  O_8
REMARK    3  A    between atoms: O_8  and  C_9
REMARK    4  A    between atoms: C_9  and  C_10
REMARK    5  A    between atoms: C_10  and  C_11
REMARK    6  A    between atoms: C_15  and  O_16
REMARK    7  A    between atoms: O_16  and  C_17
REMARK                            x       y       z     vdW  Elec       q    Type
REMARK                         _______ _______ _______ _____ _____    ______ ____
ROOT
ATOM      1  C   UNL     1      43.248   4.763  10.936  0.00  0.00    +0.000 C 
ENDROOT
BRANCH   1   2
ATOM      2  O   UNL     1      43.432   3.363  10.668  0.00  0.00    +0.000 OA
BRANCH   2   6
ATOM      3  C   UNL     1      46.304   2.833   7.746  0.00  0.00    +0.000 A 
ATOM      4  C   UNL     1      45.862   4.121   8.044  0.00  0.00    +0.000 A 
ATOM      5  C   UNL     1      44.881   4.299   9.030  0.00  0.00    +0.000 A 
ATOM      6  C   UNL     1      44.388   3.177   9.680  0.00  0.00    +0.000 A 
ATOM      7  N   UNL     1      44.797   1.921   9.395  0.00  0.00    +0.000 NA
ATOM      8  C   UNL     1      45.735   1.772   8.433  0.00  0.00    +0.000 A 
BRANCH   3  10
ATOM      9  N   UNL     1      47.277   3.197   5.547  0.00  0.00    +0.000 N 
ATOM     10  C   UNL     1      47.334   2.518   6.733  0.00  0.00    +0.000 C 
ATOM     11  O   UNL     1      48.230   1.717   6.958  0.00  0.00    +0.000 OA
ATOM     12  H   UNL     1      48.068   3.071   4.929  0.00  0.00    +0.000 HD
ATOM     13  H   UNL     1      46.734   4.044   5.435  0.00  0.00    +0.000 HD
ENDBRANCH   3  10
ENDBRANCH   2   6
ENDBRANCH   1   2
BRANCH   1  14
ATOM     14  C   UNL     1      43.473   5.094  12.411  0.00  0.00    +0.000 C 
BRANCH  14  15
ATOM     15  C   UNL     1      44.934   5.417  12.645  0.00  0.00    +0.000 A 
ATOM     16  C   UNL     1      45.501   6.560  12.068  0.00  0.00    +0.000 A 
ATOM     17  C   UNL     1      46.814   6.923  12.367  0.00  0.00    +0.000 A 
ATOM     18  C   UNL     1      47.580   6.147  13.239  0.00  0.00    +0.000 A 
ATOM     19  C   UNL     1      47.041   4.996  13.811  0.00  0.00    +0.000 A 
ATOM     20  C   UNL     1      45.716   4.644  13.520  0.00  0.00    +0.000 A 
BRANCH  19  21
ATOM     21  O   UNL     1      47.690   4.175  14.693  0.00  0.00    +0.000 OA
BRANCH  21  22
ATOM     22  C   UNL     1      47.469   4.384  16.090  0.00  0.00    +0.000 C 
ATOM     23  C   UNL     1      48.471   5.371  16.687  0.00  0.00    +0.000 C 
ATOM     24  C   UNL     1      48.749   4.903  18.110  0.00  0.00    +0.000 C 
ATOM     25  C   UNL     1      48.141   3.513  18.244  0.00  0.00    +0.000 C 
ATOM     26  C   UNL     1      47.760   3.084  16.837  0.00  0.00    +0.000 C 
ENDBRANCH  21  22
ENDBRANCH  19  21
ENDBRANCH  14  15
ENDBRANCH   1  14
TORSDOF 7
ENDMDL
MODEL 2
REMARK VINA RESULT:    -7.107      2.073      3.863
REMARK INTER + INTRA:         -11.130
REMARK INTER:                 -10.072
REMARK INTRA:                  -1.058
REMARK UNBOUND:                -1.116
REMARK  Name = 
REMARK  7 active torsions:
REMARK  status: ('A' for Active; 'I' for Inactive)
REMARK    1  A    between atoms: C_2  and  C_4
REMARK    2  A    between atoms: C_7  and  O_8
REMARK    3  A    between atoms: O_8  and  C_9
REMARK    4  A    between atoms: C_9  and  C_10
REMARK    5  A    between atoms: C_10  and  C_11
REMARK    6  A    between atoms: C_15  and  O_16
REMARK    7  A    between atoms: O_16  and  C_17
REMARK                            x       y       z     vdW  Elec       q    Type
REMARK                         _______ _______ _______ _____ _____    ______ ____
ROOT
ATOM      1  C   UNL     1      43.774   5.027  10.630  0.00  0.00    +0.000 C 
ENDROOT
BRANCH   1   2
ATOM      2  O   UNL     1      43.508   3.714  10.110  0.00  0.00    +0.000 OA
BRANCH   2   6
ATOM      3  C   UNL     1      46.596   2.512   7.643  0.00  0.00    +0.000 A 
ATOM      4  C   UNL     1      46.292   3.868   7.747  0.00  0.00    +0.000 A 
ATOM      5  C   UNL     1      45.239   4.274   8.578  0.00  0.00    +0.000 A 
ATOM      6  C   UNL     1      44.537   3.302   9.275  0.00  0.00    +0.000 A 
ATOM      7  N   UNL     1      44.810   1.982   9.176  0.00  0.00    +0.000 NA
ATOM      8  C   UNL     1      45.822   1.613   8.360  0.00  0.00    +0.000 A 
BRANCH   3  10
ATOM      9  N   UNL     1      48.682   2.818   6.430  0.00  0.00    +0.000 N 
ATOM     10  C   UNL     1      47.683   1.961   6.806  0.00  0.00    +0.000 C 
ATOM     11  O   UNL     1      47.718   0.780   6.496  0.00  0.00    +0.000 OA
ATOM     12  H   UNL     1      49.482   2.391   5.981  0.00  0.00    +0.000 HD
ATOM     13  H   UNL     1      48.828   3.709   6.887  0.00  0.00    +0.000 HD
ENDBRANCH   3  10
ENDBRANCH   2   6
ENDBRANCH   1   2
BRANCH   1  14
ATOM     14  C   UNL     1      43.795   5.041  12.158  0.00  0.00    +0.000 C 
BRANCH  14  15
ATOM     15  C   UNL     1      45.191   5.366  12.646  0.00  0.00    +0.000 A 
ATOM     16  C   UNL     1      45.688   4.762  13.808  0.00  0.00    +0.000 A 
ATOM     17  C   UNL     1      47.009   4.972  14.202  0.00  0.00    +0.000 A 
ATOM     18  C   UNL     1      47.850   5.792  13.447  0.00  0.00    +0.000 A 
ATOM     19  C   UNL     1      47.371   6.415  12.296  0.00  0.00    +0.000 A 
ATOM     20  C   UNL     1      46.047   6.190  11.895  0.00  0.00    +0.000 A 
BRANCH  19  21
ATOM     21  O   UNL     1      48.109   7.220  11.470  0.00  0.00    +0.000 OA
BRANCH  21  22
ATOM     22  C   UNL     1      48.797   8.329  12.055  0.00  0.00    +0.000 C 
ATOM     23  C   UNL     1      48.160   9.664  11.672  0.00  0.00    +0.000 C 
ATOM     24  C   UNL     1      49.296  10.671  11.553  0.00  0.00    +0.000 C 
ATOM     25  C   UNL     1      50.595   9.877  11.586  0.00  0.00    +0.000 C 
ATOM     26  C   UNL     1      50.197   8.416  11.452  0.00  0.00    +0.000 C 
ENDBRANCH  21  22
ENDBRANCH  19  21
ENDBRANCH  14  15
ENDBRANCH   1  14
TORSDOF 7
ENDMDL
MODEL 3
REMARK VINA RESULT:    -7.096      2.927      7.983
REMARK INTER + INTRA:         -11.116
REMARK INTER:                 -10.128
REMARK INTRA:                  -0.987
REMARK UNBOUND:                -1.116
REMARK  Name = 
REMARK  7 active torsions:
REMARK  status: ('A' for Active; 'I' for Inactive)
REMARK    1  A    between atoms: C_2  and  C_4
REMARK    2  A    between atoms: C_7  and  O_8
REMARK    3  A    between atoms: O_8  and  C_9
REMARK    4  A    between atoms: C_9  and  C_10
REMARK    5  A    between atoms: C_10  and  C_11
REMARK    6  A    between atoms: C_15  and  O_16
REMARK    7  A    between atoms: O_16  and  C_17
REMARK                            x       y       z     vdW  Elec       q    Type
REMARK                         _______ _______ _______ _____ _____    ______ ____
ROOT
ATOM      1  C   UNL     1      46.386   6.922  12.713  0.00  0.00    +0.000 C 
ENDROOT
BRANCH   1   2
ATOM      2  O   UNL     1      47.276   5.795  12.766  0.00  0.00    +0.000 OA
BRANCH   2   6
ATOM      3  C   UNL     1      48.102   4.730  16.670  0.00  0.00    +0.000 A 
ATOM      4  C   UNL     1      47.258   3.925  15.906  0.00  0.00    +0.000 A 
ATOM      5  C   UNL     1      46.972   4.292  14.584  0.00  0.00    +0.000 A 
ATOM      6  C   UNL     1      47.549   5.449  14.081  0.00  0.00    +0.000 A 
ATOM      7  N   UNL     1      48.359   6.246  14.812  0.00  0.00    +0.000 NA
ATOM      8  C   UNL     1      48.611   5.879  16.088  0.00  0.00    +0.000 A 
BRANCH   3  10
ATOM      9  N   UNL     1      47.908   3.357  18.669  0.00  0.00    +0.000 N 
ATOM     10  C   UNL     1      48.481   4.446  18.071  0.00  0.00    +0.000 C 
ATOM     11  O   UNL     1      49.307   5.127  18.661  0.00  0.00    +0.000 OA
ATOM     12  H   UNL     1      48.287   3.102  19.572  0.00  0.00    +0.000 HD
ATOM     13  H   UNL     1      47.448   2.629  18.138  0.00  0.00    +0.000 HD
ENDBRANCH   3  10
ENDBRANCH   2   6
ENDBRANCH   1   2
BRANCH   1  14
ATOM     14  C   UNL     1      45.407   6.820  11.543  0.00  0.00    +0.000 C 
BRANCH  14  15
ATOM     15  C   UNL     1      44.833   5.420  11.479  0.00  0.00    +0.000 A 
ATOM     16  C   UNL     1      44.048   4.934  12.531  0.00  0.00    +0.000 A 
ATOM     17  C   UNL     1      43.426   3.689  12.431  0.00  0.00    +0.000 A 
ATOM     18  C   UNL     1      43.586   2.911  11.283  0.00  0.00    +0.000 A 
ATOM     19  C   UNL     1      44.376   3.369  10.230  0.00  0.00    +0.000 A 
ATOM     20  C   UNL     1      44.987   4.627  10.329  0.00  0.00    +0.000 A 
BRANCH  19  21
ATOM     21  O   UNL     1      44.585   2.702   9.053  0.00  0.00    +0.000 OA
BRANCH  21  22
ATOM     22  C   UNL     1      45.903   2.719   8.498  0.00  0.00    +0.000 C 
ATOM     23  C   UNL     1      45.958   3.485   7.177  0.00  0.00    +0.000 C 
ATOM     24  C   UNL     1      46.989   2.777   6.306  0.00  0.00    +0.000 C 
ATOM     25  C   UNL     1      47.320   1.460   6.995  0.00  0.00    +0.000 C 
ATOM     26  C   UNL     1      46.292   1.296   8.103  0.00  0.00    +0.000 C 
ENDBRANCH  21  22
ENDBRANCH  19  21
ENDBRANCH  14  15
ENDBRANCH   1  14
TORSDOF 7
ENDMDL
MODEL 4
REMARK VINA RESULT:    -6.945      3.539      8.412
REMARK INTER + INTRA:         -10.903
REMARK INTER:                 -10.171
REMARK INTRA:                  -0.732
REMARK UNBOUND:                -1.116
REMARK  Name = 
REMARK  7 active torsions:
REMARK  status: ('A' for Active; 'I' for Inactive)
REMARK    1  A    between atoms: C_2  and  C_4
REMARK    2  A    between atoms: C_7  and  O_8
REMARK    3  A    between atoms: O_8  and  C_9
REMARK    4  A    between atoms: C_9  and  C_10
REMARK    5  A    between atoms: C_10  and  C_11
REMARK    6  A    between atoms: C_15  and  O_16
REMARK    7  A    between atoms: O_16  and  C_17
REMARK                            x       y       z     vdW  Elec       q    Type
REMARK                         _______ _______ _______ _____ _____    ______ ____
ROOT
ATOM      1  C   UNL     1      46.976   4.022  14.152  0.00  0.00    +0.000 C 
ENDROOT
BRANCH   1   2
ATOM      2  O   UNL     1      46.727   3.900  15.562  0.00  0.00    +0.000 OA
BRANCH   2   6
ATOM      3  C   UNL     1      50.294   3.857  17.643  0.00  0.00    +0.000 A 
ATOM      4  C   UNL     1      49.626   2.656  17.408  0.00  0.00    +0.000 A 
ATOM      5  C   UNL     1      48.411   2.673  16.709  0.00  0.00    +0.000 A 
ATOM      6  C   UNL     1      47.920   3.894  16.270  0.00  0.00    +0.000 A 
ATOM      7  N   UNL     1      48.549   5.067  16.500  0.00  0.00    +0.000 NA
ATOM      8  C   UNL     1      49.712   5.029  17.186  0.00  0.00    +0.000 A 
BRANCH   3  10
ATOM      9  N   UNL     1      51.530   4.179  19.713  0.00  0.00    +0.000 N 
ATOM     10  C   UNL     1      51.582   3.969  18.363  0.00  0.00    +0.000 C 
ATOM     11  O   UNL     1      52.651   3.834  17.786  0.00  0.00    +0.000 OA
ATOM     12  H   UNL     1      52.413   4.110  20.203  0.00  0.00    +0.000 HD
ATOM     13  H   UNL     1      50.688   4.020  20.253  0.00  0.00    +0.000 HD
ENDBRANCH   3  10
ENDBRANCH   2   6
ENDBRANCH   1   2
BRANCH   1  14
ATOM     14  C   UNL     1      46.330   5.278  13.567  0.00  0.00    +0.000 C 
BRANCH  14  15
ATOM     15  C   UNL     1      45.100   4.896  12.771  0.00  0.00    +0.000 A 
ATOM     16  C   UNL     1      43.872   5.514  13.035  0.00  0.00    +0.000 A 
ATOM     17  C   UNL     1      42.761   5.248  12.235  0.00  0.00    +0.000 A 
ATOM     18  C   UNL     1      42.860   4.356  11.165  0.00  0.00    +0.000 A 
ATOM     19  C   UNL     1      44.068   3.718  10.893  0.00  0.00    +0.000 A 
ATOM     20  C   UNL     1      45.186   4.000  11.691  0.00  0.00    +0.000 A 
BRANCH  19  21
ATOM     21  O   UNL     1      44.285   2.845   9.861  0.00  0.00    +0.000 OA
BRANCH  21  22
ATOM     22  C   UNL     1      45.541   2.911   9.181  0.00  0.00    +0.000 C 
ATOM     23  C   UNL     1      45.511   3.905   8.020  0.00  0.00    +0.000 C 
ATOM     24  C   UNL     1      46.407   3.331   6.930  0.00  0.00    +0.000 C 
ATOM     25  C   UNL     1      46.726   1.897   7.332  0.00  0.00    +0.000 C 
ATOM     26  C   UNL     1      45.804   1.572   8.496  0.00  0.00    +0.000 C 
ENDBRANCH  21  22
ENDBRANCH  19  21
ENDBRANCH  14  15
ENDBRANCH   1  14
TORSDOF 7
ENDMDL
MODEL 5
REMARK VINA RESULT:    -6.865      3.247      7.323
REMARK INTER + INTRA:         -10.790
REMARK INTER:                  -9.605
REMARK INTRA:                  -1.185
REMARK UNBOUND:                -1.116
REMARK  Name = 
REMARK  7 active torsions:
REMARK  status: ('A' for Active; 'I' for Inactive)
REMARK    1  A    between atoms: C_2  and  C_4
REMARK    2  A    between atoms: C_7  and  O_8
REMARK    3  A    between atoms: O_8  and  C_9
REMARK    4  A    between atoms: C_9  and  C_10
REMARK    5  A    between atoms: C_10  and  C_11
REMARK    6  A    between atoms: C_15  and  O_16
REMARK    7  A    between atoms: O_16  and  C_17
REMARK                            x       y       z     vdW  Elec       q    Type
REMARK                         _______ _______ _______ _____ _____    ______ ____
ROOT
ATOM      1  C   UNL     1      47.053   4.798  14.193  0.00  0.00    +0.000 C 
ENDROOT
BRANCH   1   2
ATOM      2  O   UNL     1      47.800   5.563  13.233  0.00  0.00    +0.000 OA
BRANCH   2   6
ATOM      3  C   UNL     1      45.748   9.011  12.252  0.00  0.00    +0.000 A 
ATOM      4  C   UNL     1      45.553   7.860  11.490  0.00  0.00    +0.000 A 
ATOM      5  C   UNL     1      46.257   6.692  11.819  0.00  0.00    +0.000 A 
ATOM      6  C   UNL     1      47.122   6.727  12.902  0.00  0.00    +0.000 A 
ATOM      7  N   UNL     1      47.331   7.838  13.643  0.00  0.00    +0.000 NA
ATOM      8  C   UNL     1      46.651   8.954  13.301  0.00  0.00    +0.000 A 
BRANCH   3  10
ATOM      9  N   UNL     1      43.700  10.319  12.136  0.00  0.00    +0.000 N 
ATOM     10  C   UNL     1      45.062  10.299  12.008  0.00  0.00    +0.000 C 
ATOM     11  O   UNL     1      45.686  11.317  11.748  0.00  0.00    +0.000 OA
ATOM     12  H   UNL     1      43.270  11.234  12.105  0.00  0.00    +0.000 HD
ATOM     13  H   UNL     1      43.191   9.584  12.610  0.00  0.00    +0.000 HD
ENDBRANCH   3  10
ENDBRANCH   2   6
ENDBRANCH   1   2
BRANCH   1  14
ATOM     14  C   UNL     1      46.617   3.446  13.629  0.00  0.00    +0.000 C 
BRANCH  14  15
ATOM     15  C   UNL     1      45.376   3.624  12.778  0.00  0.00    +0.000 A 
ATOM     16  C   UNL     1      44.271   4.318  13.284  0.00  0.00    +0.000 A 
ATOM     17  C   UNL     1      43.170   4.582  12.470  0.00  0.00    +0.000 A 
ATOM     18  C   UNL     1      43.154   4.150  11.142  0.00  0.00    +0.000 A 
ATOM     19  C   UNL     1      44.238   3.444  10.622  0.00  0.00    +0.000 A 
ATOM     20  C   UNL     1      45.349   3.195  11.440  0.00  0.00    +0.000 A 
BRANCH  19  21
ATOM     21  O   UNL     1      44.340   2.993   9.333  0.00  0.00    +0.000 OA
BRANCH  21  22
ATOM     22  C   UNL     1      45.643   2.933   8.747  0.00  0.00    +0.000 C 
ATOM     23  C   UNL     1      45.709   3.691   7.421  0.00  0.00    +0.000 C 
ATOM     24  C   UNL     1      46.675   2.923   6.528  0.00  0.00    +0.000 C 
ATOM     25  C   UNL     1      46.947   1.590   7.215  0.00  0.00    +0.000 C 
ATOM     26  C   UNL     1      45.939   1.489   8.348  0.00  0.00    +0.000 C 
ENDBRANCH  21  22
ENDBRANCH  19  21
ENDBRANCH  14  15
ENDBRANCH   1  14
TORSDOF 7
ENDMDL
MODEL 6
REMARK VINA RESULT:    -6.828      2.560      3.272
REMARK INTER + INTRA:         -10.737
REMARK INTER:                  -9.562
REMARK INTRA:                  -1.175
REMARK UNBOUND:                -1.116
REMARK  Name = 
REMARK  7 active torsions:
REMARK  status: ('A' for Active; 'I' for Inactive)
REMARK    1  A    between atoms: C_2  and  C_4
REMARK    2  A    between atoms: C_7  and  O_8
REMARK    3  A    between atoms: O_8  and  C_9
REMARK    4  A    between atoms: C_9  and  C_10
REMARK    5  A    between atoms: C_10  and  C_11
REMARK    6  A    between atoms: C_15  and  O_16
REMARK    7  A    between atoms: O_16  and  C_17
REMARK                            x       y       z     vdW  Elec       q    Type
REMARK                         _______ _______ _______ _____ _____    ______ ____
ROOT
ATOM      1  C   UNL     1      44.505   2.956  11.785  0.00  0.00    +0.000 C 
ENDROOT
BRANCH   1   2
ATOM      2  O   UNL     1      43.772   2.737  10.568  0.00  0.00    +0.000 OA
BRANCH   2   6
ATOM      3  C   UNL     1      46.340   2.776   7.332  0.00  0.00    +0.000 A 
ATOM      4  C   UNL     1      45.641   3.936   7.664  0.00  0.00    +0.000 A 
ATOM      5  C   UNL     1      44.763   3.919   8.758  0.00  0.00    +0.000 A 
ATOM      6  C   UNL     1      44.628   2.740   9.476  0.00  0.00    +0.000 A 
ATOM      7  N   UNL     1      45.288   1.604   9.160  0.00  0.00    +0.000 NA
ATOM      8  C   UNL     1      46.120   1.640   8.095  0.00  0.00    +0.000 A 
BRANCH   3  10
ATOM      9  N   UNL     1      48.613   2.481   6.520  0.00  0.00    +0.000 N 
ATOM     10  C   UNL     1      47.294   2.670   6.208  0.00  0.00    +0.000 C 
ATOM     11  O   UNL     1      46.920   2.705   5.045  0.00  0.00    +0.000 OA
ATOM     12  H   UNL     1      49.223   2.270   5.740  0.00  0.00    +0.000 HD
ATOM     13  H   UNL     1      48.912   2.175   7.437  0.00  0.00    +0.000 HD
ENDBRANCH   3  10
ENDBRANCH   2   6
ENDBRANCH   1   2
BRANCH   1  14
ATOM     14  C   UNL     1      43.795   3.949  12.705  0.00  0.00    +0.000 C 
BRANCH  14  15
ATOM     15  C   UNL     1      44.051   5.362  12.225  0.00  0.00    +0.000 A 
ATOM     16  C   UNL     1      43.126   5.998  11.388  0.00  0.00    +0.000 A 
ATOM     17  C   UNL     1      43.300   7.335  11.031  0.00  0.00    +0.000 A 
ATOM     18  C   UNL     1      44.403   8.053  11.500  0.00  0.00    +0.000 A 
ATOM     19  C   UNL     1      45.343   7.435  12.322  0.00  0.00    +0.000 A 
ATOM     20  C   UNL     1      45.156   6.096  12.690  0.00  0.00    +0.000 A 
BRANCH  19  21
ATOM     21  O   UNL     1      46.446   8.046  12.856  0.00  0.00    +0.000 OA
BRANCH  21  22
ATOM     22  C   UNL     1      47.684   7.331  12.831  0.00  0.00    +0.000 C 
ATOM     23  C   UNL     1      48.487   7.532  14.115  0.00  0.00    +0.000 C 
ATOM     24  C   UNL     1      49.957   7.534  13.716  0.00  0.00    +0.000 C 
ATOM     25  C   UNL     1      50.001   7.619  12.195  0.00  0.00    +0.000 C 
ATOM     26  C   UNL     1      48.582   7.935  11.752  0.00  0.00    +0.000 C 
ENDBRANCH  21  22
ENDBRANCH  19  21
ENDBRANCH  14  15
ENDBRANCH   1  14
TORSDOF 7
ENDMDL
MODEL 7
REMARK VINA RESULT:    -6.721      3.664      8.279
REMARK INTER + INTRA:         -10.586
REMARK INTER:                 -10.366
REMARK INTRA:                  -0.220
REMARK UNBOUND:                -1.116
REMARK  Name = 
REMARK  7 active torsions:
REMARK  status: ('A' for Active; 'I' for Inactive)
REMARK    1  A    between atoms: C_2  and  C_4
REMARK    2  A    between atoms: C_7  and  O_8
REMARK    3  A    between atoms: O_8  and  C_9
REMARK    4  A    between atoms: C_9  and  C_10
REMARK    5  A    between atoms: C_10  and  C_11
REMARK    6  A    between atoms: C_15  and  O_16
REMARK    7  A    between atoms: O_16  and  C_17
REMARK                            x       y       z     vdW  Elec       q    Type
REMARK                         _______ _______ _______ _____ _____    ______ ____
ROOT
ATOM      1  C   UNL     1      47.088   4.309  15.188  0.00  0.00    +0.000 C 
ENDROOT
BRANCH   1   2
ATOM      2  O   UNL     1      47.103   3.400  16.302  0.00  0.00    +0.000 OA
BRANCH   2   6
ATOM      3  C   UNL     1      50.967   2.651  17.552  0.00  0.00    +0.000 A 
ATOM      4  C   UNL     1      50.328   3.818  17.969  0.00  0.00    +0.000 A 
ATOM      5  C   UNL     1      49.019   4.075  17.537  0.00  0.00    +0.000 A 
ATOM      6  C   UNL     1      48.404   3.148  16.709  0.00  0.00    +0.000 A 
ATOM      7  N   UNL     1      49.014   2.019  16.286  0.00  0.00    +0.000 NA
ATOM      8  C   UNL     1      50.280   1.797  16.705  0.00  0.00    +0.000 A 
BRANCH   3  10
ATOM      9  N   UNL     1      53.256   3.274  18.090  0.00  0.00    +0.000 N 
ATOM     10  C   UNL     1      52.341   2.268  17.943  0.00  0.00    +0.000 C 
ATOM     11  O   UNL     1      52.641   1.105  18.170  0.00  0.00    +0.000 OA
ATOM     12  H   UNL     1      54.144   3.005  18.493  0.00  0.00    +0.000 HD
ATOM     13  H   UNL     1      52.982   4.244  18.182  0.00  0.00    +0.000 HD
ENDBRANCH   3  10
ENDBRANCH   2   6
ENDBRANCH   1   2
BRANCH   1  14
ATOM     14  C   UNL     1      46.917   3.576  13.858  0.00  0.00    +0.000 C 
BRANCH  14  15
ATOM     15  C   UNL     1      46.336   4.521  12.826  0.00  0.00    +0.000 A 
ATOM     16  C   UNL     1      46.863   5.809  12.679  0.00  0.00    +0.000 A 
ATOM     17  C   UNL     1      46.407   6.645  11.659  0.00  0.00    +0.000 A 
ATOM     18  C   UNL     1      45.416   6.208  10.778  0.00  0.00    +0.000 A 
ATOM     19  C   UNL     1      44.867   4.935  10.917  0.00  0.00    +0.000 A 
ATOM     20  C   UNL     1      45.339   4.093  11.933  0.00  0.00    +0.000 A 
BRANCH  19  21
ATOM     21  O   UNL     1      43.909   4.395  10.100  0.00  0.00    +0.000 OA
BRANCH  21  22
ATOM     22  C   UNL     1      44.343   3.694   8.932  0.00  0.00    +0.000 C 
ATOM     23  C   UNL     1      44.857   2.293   9.264  0.00  0.00    +0.000 C 
ATOM     24  C   UNL     1      45.996   2.005   8.294  0.00  0.00    +0.000 C 
ATOM     25  C   UNL     1      46.328   3.320   7.600  0.00  0.00    +0.000 C 
ATOM     26  C   UNL     1      45.572   4.398   8.360  0.00  0.00    +0.000 C 
ENDBRANCH  21  22
ENDBRANCH  19  21
ENDBRANCH  14  15
ENDBRANCH   1  14
TORSDOF 7
ENDMDL
MODEL 8
REMARK VINA RESULT:    -6.671      3.154      5.493
REMARK INTER + INTRA:         -10.516
REMARK INTER:                  -9.801
REMARK INTRA:                  -0.715
REMARK UNBOUND:                -1.116
REMARK  Name = 
REMARK  7 active torsions:
REMARK  status: ('A' for Active; 'I' for Inactive)
REMARK    1  A    between atoms: C_2  and  C_4
REMARK    2  A    between atoms: C_7  and  O_8
REMARK    3  A    between atoms: O_8  and  C_9
REMARK    4  A    between atoms: C_9  and  C_10
REMARK    5  A    between atoms: C_10  and  C_11
REMARK    6  A    between atoms: C_15  and  O_16
REMARK    7  A    between atoms: O_16  and  C_17
REMARK                            x       y       z     vdW  Elec       q    Type
REMARK                         _______ _______ _______ _____ _____    ______ ____
ROOT
ATOM      1  C   UNL     1      43.684   4.632  11.247  0.00  0.00    +0.000 C 
ENDROOT
BRANCH   1   2
ATOM      2  O   UNL     1      43.662   4.788   9.819  0.00  0.00    +0.000 OA
BRANCH   2   6
ATOM      3  C   UNL     1      46.157   2.024   8.031  0.00  0.00    +0.000 A 
ATOM      4  C   UNL     1      46.311   3.377   7.732  0.00  0.00    +0.000 A 
ATOM      5  C   UNL     1      45.458   4.313   8.333  0.00  0.00    +0.000 A 
ATOM      6  C   UNL     1      44.490   3.853   9.213  0.00  0.00    +0.000 A 
ATOM      7  N   UNL     1      44.320   2.545   9.504  0.00  0.00    +0.000 NA
ATOM      8  C   UNL     1      45.146   1.659   8.905  0.00  0.00    +0.000 A 
BRANCH   3  10
ATOM      9  N   UNL     1      48.003   1.311   6.616  0.00  0.00    +0.000 N 
ATOM     10  C   UNL     1      46.996   0.944   7.466  0.00  0.00    +0.000 C 
ATOM     11  O   UNL     1      46.830  -0.225   7.779  0.00  0.00    +0.000 OA
ATOM     12  H   UNL     1      48.648   0.576   6.356  0.00  0.00    +0.000 HD
ATOM     13  H   UNL     1      48.338   2.264   6.555  0.00  0.00    +0.000 HD
ENDBRANCH   3  10
ENDBRANCH   2   6
ENDBRANCH   1   2
BRANCH   1  14
ATOM     14  C   UNL     1      45.110   4.616  11.797  0.00  0.00    +0.000 C 
BRANCH  14  15
ATOM     15  C   UNL     1      45.607   6.037  11.967  0.00  0.00    +0.000 A 
ATOM     16  C   UNL     1      46.977   6.289  12.107  0.00  0.00    +0.000 A 
ATOM     17  C   UNL     1      47.452   7.599  12.154  0.00  0.00    +0.000 A 
ATOM     18  C   UNL     1      46.565   8.675  12.068  0.00  0.00    +0.000 A 
ATOM     19  C   UNL     1      45.196   8.446  11.945  0.00  0.00    +0.000 A 
ATOM     20  C   UNL     1      44.725   7.127  11.883  0.00  0.00    +0.000 A 
BRANCH  19  21
ATOM     21  O   UNL     1      44.241   9.420  11.831  0.00  0.00    +0.000 OA
BRANCH  21  22
ATOM     22  C   UNL     1      44.194  10.174  10.617  0.00  0.00    +0.000 C 
ATOM     23  C   UNL     1      44.473  11.658  10.853  0.00  0.00    +0.000 C 
ATOM     24  C   UNL     1      43.614  12.427   9.858  0.00  0.00    +0.000 C 
ATOM     25  C   UNL     1      42.642  11.426   9.248  0.00  0.00    +0.000 C 
ATOM     26  C   UNL     1      42.764  10.161  10.082  0.00  0.00    +0.000 C 
ENDBRANCH  21  22
ENDBRANCH  19  21
ENDBRANCH  14  15
ENDBRANCH   1  14
TORSDOF 7
ENDMDL
MODEL 9
REMARK VINA RESULT:    -6.589      2.794      7.946
REMARK INTER + INTRA:         -10.400
REMARK INTER:                  -9.930
REMARK INTRA:                  -0.470
REMARK UNBOUND:                -1.116
REMARK  Name = 
REMARK  7 active torsions:
REMARK  status: ('A' for Active; 'I' for Inactive)
REMARK    1  A    between atoms: C_2  and  C_4
REMARK    2  A    between atoms: C_7  and  O_8
REMARK    3  A    between atoms: O_8  and  C_9
REMARK    4  A    between atoms: C_9  and  C_10
REMARK    5  A    between atoms: C_10  and  C_11
REMARK    6  A    between atoms: C_15  and  O_16
REMARK    7  A    between atoms: O_16  and  C_17
REMARK                            x       y       z     vdW  Elec       q    Type
REMARK                         _______ _______ _______ _____ _____    ______ ____
ROOT
ATOM      1  C   UNL     1      43.562   4.450  10.799  0.00  0.00    +0.000 C 
ENDROOT
BRANCH   1   2
ATOM      2  O   UNL     1      43.690   4.626  12.220  0.00  0.00    +0.000 OA
BRANCH   2   6
ATOM      3  C   UNL     1      47.439   6.063  13.190  0.00  0.00    +0.000 A 
ATOM      4  C   UNL     1      46.662   6.753  12.260  0.00  0.00    +0.000 A 
ATOM      5  C   UNL     1      45.393   6.259  11.926  0.00  0.00    +0.000 A 
ATOM      6  C   UNL     1      44.954   5.097  12.542  0.00  0.00    +0.000 A 
ATOM      7  N   UNL     1      45.700   4.410  13.436  0.00  0.00    +0.000 NA
ATOM      8  C   UNL     1      46.924   4.898  13.735  0.00  0.00    +0.000 A 
BRANCH   3  10
ATOM      9  N   UNL     1      49.652   6.924  12.661  0.00  0.00    +0.000 N 
ATOM     10  C   UNL     1      48.788   6.485  13.627  0.00  0.00    +0.000 C 
ATOM     11  O   UNL     1      49.107   6.486  14.806  0.00  0.00    +0.000 OA
ATOM     12  H   UNL     1      50.512   7.338  12.997  0.00  0.00    +0.000 HD
ATOM     13  H   UNL     1      49.338   7.194  11.738  0.00  0.00    +0.000 HD
ENDBRANCH   3  10
ENDBRANCH   2   6
ENDBRANCH   1   2
BRANCH   1  14
ATOM     14  C   UNL     1      44.023   3.062  10.354  0.00  0.00    +0.000 C 
BRANCH  14  15
ATOM     15  C   UNL     1      45.005   3.194   9.208  0.00  0.00    +0.000 A 
ATOM     16  C   UNL     1      45.441   4.460   8.800  0.00  0.00    +0.000 A 
ATOM     17  C   UNL     1      46.427   4.585   7.821  0.00  0.00    +0.000 A 
ATOM     18  C   UNL     1      46.985   3.448   7.232  0.00  0.00    +0.000 A 
ATOM     19  C   UNL     1      46.554   2.179   7.613  0.00  0.00    +0.000 A 
ATOM     20  C   UNL     1      45.574   2.058   8.608  0.00  0.00    +0.000 A 
BRANCH  19  21
ATOM     21  O   UNL     1      47.044   0.999   7.120  0.00  0.00    +0.000 OA
BRANCH  21  22
ATOM     22  C   UNL     1      47.439   0.960   5.747  0.00  0.00    +0.000 C 
ATOM     23  C   UNL     1      46.615   1.918   4.887  0.00  0.00    +0.000 C 
ATOM     24  C   UNL     1      46.449   1.251   3.527  0.00  0.00    +0.000 C 
ATOM     25  C   UNL     1      46.922  -0.189   3.682  0.00  0.00    +0.000 C 
ATOM     26  C   UNL     1      47.099  -0.415   5.174  0.00  0.00    +0.000 C 
ENDBRANCH  21  22
ENDBRANCH  19  21
ENDBRANCH  14  15
ENDBRANCH   1  14
TORSDOF 7
ENDMDL
