MODEL 1
REMARK VINA RESULT:    -8.548      0.000      0.000
REMARK INTER + INTRA:         -13.406
REMARK INTER:                 -12.296
REMARK INTRA:                  -1.111
REMARK UNBOUND:                -1.111
REMARK  Name = 
REMARK  9 active torsions:
REMARK  status: ('A' for Active; 'I' for Inactive)
REMARK    1  A    between atoms: C_1  and  O_2
REMARK    2  A    between atoms: O_2  and  C_3
REMARK    3  A    between atoms: C_5  and  C_6
REMARK    4  A    between atoms: C_14  and  C_15
REMARK    5  A    between atoms: C_15  and  O_16
REMARK    6  A    between atoms: C_15  and  C_17
REMARK    7  A    between atoms: C_17  and  O_18
REMARK    8  A    between atoms: O_18  and  C_19
REMARK    9  A    between atoms: C_22  and  C_23
REMARK                            x       y       z     vdW  Elec       q    Type
REMARK                         _______ _______ _______ _____ _____    ______ ____
ROOT
ATOM      1  C   UNL     1      43.299   4.829  12.317  0.00  0.00    +0.000 C 
ENDROOT
BRANCH   1   6
ATOM      2  C   UNL     1      46.771   4.496  13.922  0.00  0.00    +0.000 A 
ATOM      3  C   UNL     1      47.358   5.703  13.538  0.00  0.00    +0.000 A 
ATOM      4  C   UNL     1      46.662   6.645  12.754  0.00  0.00    +0.000 A 
ATOM      5  C   UNL     1      45.336   6.336  12.390  0.00  0.00    +0.000 A 
ATOM      6  C   UNL     1      44.714   5.134  12.777  0.00  0.00    +0.000 A 
ATOM      7  C   UNL     1      45.451   4.229  13.559  0.00  0.00    +0.000 A 
BRANCH   4   8
ATOM      8  C   UNL     1      47.320   7.901  12.310  0.00  0.00    +0.000 A 
ATOM      9  C   UNL     1      48.665   7.926  11.895  0.00  0.00    +0.000 A 
ATOM     10  C   UNL     1      49.284   9.112  11.482  0.00  0.00    +0.000 A 
ATOM     11  C   UNL     1      48.564  10.303  11.460  0.00  0.00    +0.000 A 
ATOM     12  C   UNL     1      47.234  10.303  11.861  0.00  0.00    +0.000 A 
ATOM     13 CL   UNL     1      46.330  11.768  11.823  0.00  0.00    +0.000 Cl
ATOM     14  C   UNL     1      46.622   9.124  12.291  0.00  0.00    +0.000 A 
ENDBRANCH   4   8
BRANCH   2  16
ATOM     15  C   UNL     1      47.543   3.718  16.036  0.00  0.00    +0.000 C 
ATOM     16  O   UNL     1      47.383   3.502  14.637  0.00  0.00    +0.000 OA
ENDBRANCH   2  16
ENDBRANCH   1   6
BRANCH   1  17
ATOM     17  O   UNL     1      42.611   6.059  12.063  0.00  0.00    +0.000 OA
ATOM     18  H   UNL     1      42.202   6.352  12.892  0.00  0.00    +0.000 HD
ENDBRANCH   1  17
BRANCH   1  19
ATOM     19  C   UNL     1      43.260   3.921  11.074  0.00  0.00    +0.000 C 
BRANCH  19  20
ATOM     20  O   UNL     1      43.674   4.654   9.904  0.00  0.00    +0.000 OA
BRANCH  20  21
ATOM     21  C   UNL     1      44.615   3.965   9.167  0.00  0.00    +0.000 A 
ATOM     22  C   UNL     1      44.746   2.592   9.359  0.00  0.00    +0.000 A 
ATOM     23  N   UNL     1      45.648   1.829   8.682  0.00  0.00    +0.000 NA
ATOM     24  C   UNL     1      46.419   2.522   7.794  0.00  0.00    +0.000 A 
ATOM     25  C   UNL     1      46.289   3.889   7.603  0.00  0.00    +0.000 A 
ATOM     26  N   UNL     1      45.389   4.639   8.285  0.00  0.00    +0.000 NA
BRANCH  24  27
ATOM     27  C   UNL     1      47.433   1.778   6.998  0.00  0.00    +0.000 C 
ATOM     28  N   UNL     1      48.480   2.511   6.517  0.00  0.00    +0.000 N 
ATOM     29  O   UNL     1      47.334   0.579   6.777  0.00  0.00    +0.000 OA
ATOM     30  H   UNL     1      48.546   3.504   6.712  0.00  0.00    +0.000 HD
ATOM     31  H   UNL     1      49.199   2.049   5.976  0.00  0.00    +0.000 HD
ENDBRANCH  24  27
ENDBRANCH  20  21
ENDBRANCH  19  20
ENDBRANCH   1  19
TORSDOF 8
ENDMDL
MODEL 2
REMARK VINA RESULT:    -7.848      1.695      2.120
REMARK INTER + INTRA:         -12.400
REMARK INTER:                 -11.412
REMARK INTRA:                  -0.988
REMARK UNBOUND:                -1.111
REMARK  Name = 
REMARK  9 active torsions:
REMARK  status: ('A' for Active; 'I' for Inactive)
REMARK    1  A    between atoms: C_1  and  O_2
REMARK    2  A    between atoms: O_2  and  C_3
REMARK    3  A    between atoms: C_5  and  C_6
REMARK    4  A    between atoms: C_14  and  C_15
REMARK    5  A    between atoms: C_15  and  O_16
REMARK    6  A    between atoms: C_15  and  C_17
REMARK    7  A    between atoms: C_17  and  O_18
REMARK    8  A    between atoms: O_18  and  C_19
REMARK    9  A    between atoms: C_22  and  C_23
REMARK                            x       y       z     vdW  Elec       q    Type
REMARK                         _______ _______ _______ _____ _____    ______ ____
ROOT
ATOM      1  C   UNL     1      43.740   4.088  12.553  0.00  0.00    +0.000 C 
ENDROOT
BRANCH   1   6
ATOM      2  C   UNL     1      46.893   5.979  13.661  0.00  0.00    +0.000 A 
ATOM      3  C   UNL     1      46.639   7.248  13.138  0.00  0.00    +0.000 A 
ATOM      4  C   UNL     1      45.461   7.527  12.416  0.00  0.00    +0.000 A 
ATOM      5  C   UNL     1      44.531   6.479  12.260  0.00  0.00    +0.000 A 
ATOM      6  C   UNL     1      44.754   5.195  12.790  0.00  0.00    +0.000 A 
ATOM      7  C   UNL     1      45.942   4.970  13.503  0.00  0.00    +0.000 A 
BRANCH   4   8
ATOM      8  C   UNL     1      45.232   8.868  11.821  0.00  0.00    +0.000 A 
ATOM      9  C   UNL     1      46.107   9.944  12.061  0.00  0.00    +0.000 A 
ATOM     10  C   UNL     1      45.885  11.209  11.503  0.00  0.00    +0.000 A 
ATOM     11  C   UNL     1      44.786  11.424  10.676  0.00  0.00    +0.000 A 
ATOM     12  C   UNL     1      43.910  10.376  10.422  0.00  0.00    +0.000 A 
ATOM     13 CL   UNL     1      42.555  10.627   9.389  0.00  0.00    +0.000 Cl
ATOM     14  C   UNL     1      44.120   9.119  10.994  0.00  0.00    +0.000 A 
ENDBRANCH   4   8
BRANCH   2  16
ATOM     15  C   UNL     1      48.695   6.608  15.084  0.00  0.00    +0.000 C 
ATOM     16  O   UNL     1      48.026   5.602  14.330  0.00  0.00    +0.000 OA
ENDBRANCH   2  16
ENDBRANCH   1   6
BRANCH   1  17
ATOM     17  O   UNL     1      42.453   4.672  12.315  0.00  0.00    +0.000 OA
ATOM     18  H   UNL     1      42.520   5.239  11.531  0.00  0.00    +0.000 HD
ENDBRANCH   1  17
BRANCH   1  19
ATOM     19  C   UNL     1      44.135   3.160  11.390  0.00  0.00    +0.000 C 
BRANCH  19  20
ATOM     20  O   UNL     1      43.885   3.805  10.125  0.00  0.00    +0.000 OA
BRANCH  20  21
ATOM     21  C   UNL     1      44.782   3.409   9.155  0.00  0.00    +0.000 A 
ATOM     22  C   UNL     1      45.231   2.090   9.153  0.00  0.00    +0.000 A 
ATOM     23  N   UNL     1      46.118   1.609   8.238  0.00  0.00    +0.000 NA
ATOM     24  C   UNL     1      46.535   2.528   7.318  0.00  0.00    +0.000 A 
ATOM     25  C   UNL     1      46.088   3.840   7.321  0.00  0.00    +0.000 A 
ATOM     26  N   UNL     1      45.206   4.308   8.238  0.00  0.00    +0.000 NA
BRANCH  24  27
ATOM     27  C   UNL     1      47.501   2.099   6.271  0.00  0.00    +0.000 C 
ATOM     28  N   UNL     1      48.779   2.566   6.400  0.00  0.00    +0.000 N 
ATOM     29  O   UNL     1      47.174   1.375   5.341  0.00  0.00    +0.000 OA
ATOM     30  H   UNL     1      49.031   3.163   7.180  0.00  0.00    +0.000 HD
ATOM     31  H   UNL     1      49.474   2.298   5.718  0.00  0.00    +0.000 HD
ENDBRANCH  24  27
ENDBRANCH  20  21
ENDBRANCH  19  20
ENDBRANCH   1  19
TORSDOF 8
ENDMDL
MODEL 3
REMARK VINA RESULT:    -7.530      2.626      4.623
REMARK INTER + INTRA:         -11.943
REMARK INTER:                 -11.040
REMARK INTRA:                  -0.902
REMARK UNBOUND:                -1.111
REMARK  Name = 
REMARK  9 active torsions:
REMARK  status: ('A' for Active; 'I' for Inactive)
REMARK    1  A    between atoms: C_1  and  O_2
REMARK    2  A    between atoms: O_2  and  C_3
REMARK    3  A    between atoms: C_5  and  C_6
REMARK    4  A    between atoms: C_14  and  C_15
REMARK    5  A    between atoms: C_15  and  O_16
REMARK    6  A    between atoms: C_15  and  C_17
REMARK    7  A    between atoms: C_17  and  O_18
REMARK    8  A    between atoms: O_18  and  C_19
REMARK    9  A    between atoms: C_22  and  C_23
REMARK                            x       y       z     vdW  Elec       q    Type
REMARK                         _______ _______ _______ _____ _____    ______ ____
ROOT
ATOM      1  C   UNL     1      45.113   4.106  12.107  0.00  0.00    +0.000 C 
ENDROOT
BRANCH   1   6
ATOM      2  C   UNL     1      47.533   6.915  13.107  0.00  0.00    +0.000 A 
ATOM      3  C   UNL     1      47.982   6.450  14.344  0.00  0.00    +0.000 A 
ATOM      4  C   UNL     1      47.519   5.235  14.889  0.00  0.00    +0.000 A 
ATOM      5  C   UNL     1      46.599   4.489  14.125  0.00  0.00    +0.000 A 
ATOM      6  C   UNL     1      46.141   4.926  12.868  0.00  0.00    +0.000 A 
ATOM      7  C   UNL     1      46.634   6.143  12.369  0.00  0.00    +0.000 A 
BRANCH   4   8
ATOM      8  C   UNL     1      47.968   4.782  16.230  0.00  0.00    +0.000 A 
ATOM      9  C   UNL     1      47.435   3.630  16.839  0.00  0.00    +0.000 A 
ATOM     10  C   UNL     1      47.856   3.208  18.106  0.00  0.00    +0.000 A 
ATOM     11  C   UNL     1      48.836   3.923  18.789  0.00  0.00    +0.000 A 
ATOM     12  C   UNL     1      49.380   5.060  18.206  0.00  0.00    +0.000 A 
ATOM     13 CL   UNL     1      50.603   5.944  19.036  0.00  0.00    +0.000 Cl
ATOM     14  C   UNL     1      48.946   5.493  16.951  0.00  0.00    +0.000 A 
ENDBRANCH   4   8
BRANCH   2  16
ATOM     15  C   UNL     1      48.168   9.191  13.395  0.00  0.00    +0.000 C 
ATOM     16  O   UNL     1      47.885   8.101  12.523  0.00  0.00    +0.000 OA
ENDBRANCH   2  16
ENDBRANCH   1   6
BRANCH   1  17
ATOM     17  O   UNL     1      44.186   3.534  13.036  0.00  0.00    +0.000 OA
ATOM     18  H   UNL     1      43.628   2.902  12.554  0.00  0.00    +0.000 HD
ENDBRANCH   1  17
BRANCH   1  19
ATOM     19  C   UNL     1      44.368   4.929  11.039  0.00  0.00    +0.000 C 
BRANCH  19  20
ATOM     20  O   UNL     1      43.768   4.056  10.061  0.00  0.00    +0.000 OA
BRANCH  20  21
ATOM     21  C   UNL     1      44.708   3.486   9.228  0.00  0.00    +0.000 A 
ATOM     22  C   UNL     1      45.451   4.313   8.388  0.00  0.00    +0.000 A 
ATOM     23  N   UNL     1      46.398   3.842   7.529  0.00  0.00    +0.000 NA
ATOM     24  C   UNL     1      46.562   2.486   7.558  0.00  0.00    +0.000 A 
ATOM     25  C   UNL     1      45.822   1.664   8.394  0.00  0.00    +0.000 A 
ATOM     26  N   UNL     1      44.880   2.145   9.243  0.00  0.00    +0.000 NA
BRANCH  24  27
ATOM     27  C   UNL     1      47.577   1.873   6.660  0.00  0.00    +0.000 C 
ATOM     28  N   UNL     1      48.646   2.657   6.331  0.00  0.00    +0.000 N 
ATOM     29  O   UNL     1      47.461   0.733   6.229  0.00  0.00    +0.000 OA
ATOM     30  H   UNL     1      48.725   3.599   6.700  0.00  0.00    +0.000 HD
ATOM     31  H   UNL     1      49.367   2.284   5.730  0.00  0.00    +0.000 HD
ENDBRANCH  24  27
ENDBRANCH  20  21
ENDBRANCH  19  20
ENDBRANCH   1  19
TORSDOF 8
ENDMDL
MODEL 4
REMARK VINA RESULT:    -7.290      2.136      3.429
REMARK INTER + INTRA:         -11.598
REMARK INTER:                 -10.608
REMARK INTRA:                  -0.990
REMARK UNBOUND:                -1.111
REMARK  Name = 
REMARK  9 active torsions:
REMARK  status: ('A' for Active; 'I' for Inactive)
REMARK    1  A    between atoms: C_1  and  O_2
REMARK    2  A    between atoms: O_2  and  C_3
REMARK    3  A    between atoms: C_5  and  C_6
REMARK    4  A    between atoms: C_14  and  C_15
REMARK    5  A    between atoms: C_15  and  O_16
REMARK    6  A    between atoms: C_15  and  C_17
REMARK    7  A    between atoms: C_17  and  O_18
REMARK    8  A    between atoms: O_18  and  C_19
REMARK    9  A    between atoms: C_22  and  C_23
REMARK                            x       y       z     vdW  Elec       q    Type
REMARK                         _______ _______ _______ _____ _____    ______ ____
ROOT
ATOM      1  C   UNL     1      44.182   4.327  12.907  0.00  0.00    +0.000 C 
ENDROOT
BRANCH   1   6
ATOM      2  C   UNL     1      45.017   7.892  11.749  0.00  0.00    +0.000 A 
ATOM      3  C   UNL     1      46.295   8.052  12.288  0.00  0.00    +0.000 A 
ATOM      4  C   UNL     1      46.915   7.032  13.036  0.00  0.00    +0.000 A 
ATOM      5  C   UNL     1      46.205   5.826  13.203  0.00  0.00    +0.000 A 
ATOM      6  C   UNL     1      44.923   5.630  12.658  0.00  0.00    +0.000 A 
ATOM      7  C   UNL     1      44.350   6.678  11.919  0.00  0.00    +0.000 A 
BRANCH   4   8
ATOM      8  C   UNL     1      48.253   7.240  13.646  0.00  0.00    +0.000 A 
ATOM      9  C   UNL     1      48.546   6.812  14.954  0.00  0.00    +0.000 A 
ATOM     10  C   UNL     1      49.807   7.015  15.528  0.00  0.00    +0.000 A 
ATOM     11  C   UNL     1      50.814   7.639  14.797  0.00  0.00    +0.000 A 
ATOM     12  C   UNL     1      50.550   8.066  13.502  0.00  0.00    +0.000 A 
ATOM     13 CL   UNL     1      51.792   8.827  12.584  0.00  0.00    +0.000 Cl
ATOM     14  C   UNL     1      49.286   7.883  12.936  0.00  0.00    +0.000 A 
ENDBRANCH   4   8
BRANCH   2  16
ATOM     15  C   UNL     1      44.384  10.177  11.541  0.00  0.00    +0.000 C 
ATOM     16  O   UNL     1      44.317   8.840  11.055  0.00  0.00    +0.000 OA
ENDBRANCH   2  16
ENDBRANCH   1   6
BRANCH   1  17
ATOM     17  O   UNL     1      42.772   4.581  12.915  0.00  0.00    +0.000 OA
ATOM     18  H   UNL     1      42.468   4.619  11.994  0.00  0.00    +0.000 HD
ENDBRANCH   1  17
BRANCH   1  19
ATOM     19  C   UNL     1      44.529   3.238  11.876  0.00  0.00    +0.000 C 
BRANCH  19  20
ATOM     20  O   UNL     1      43.877   3.511  10.620  0.00  0.00    +0.000 OA
BRANCH  20  21
ATOM     21  C   UNL     1      44.712   3.291   9.544  0.00  0.00    +0.000 A 
ATOM     22  C   UNL     1      45.130   4.380   8.784  0.00  0.00    +0.000 A 
ATOM     23  N   UNL     1      45.950   4.261   7.702  0.00  0.00    +0.000 NA
ATOM     24  C   UNL     1      46.332   2.981   7.421  0.00  0.00    +0.000 A 
ATOM     25  C   UNL     1      45.916   1.896   8.178  0.00  0.00    +0.000 A 
ATOM     26  N   UNL     1      45.097   2.027   9.251  0.00  0.00    +0.000 NA
BRANCH  24  27
ATOM     27  C   UNL     1      47.234   2.745   6.262  0.00  0.00    +0.000 C 
ATOM     28  N   UNL     1      48.550   2.527   6.554  0.00  0.00    +0.000 N 
ATOM     29  O   UNL     1      46.826   2.753   5.108  0.00  0.00    +0.000 OA
ATOM     30  H   UNL     1      48.869   2.522   7.517  0.00  0.00    +0.000 HD
ATOM     31  H   UNL     1      49.201   2.355   5.801  0.00  0.00    +0.000 HD
ENDBRANCH  24  27
ENDBRANCH  20  21
ENDBRANCH  19  20
ENDBRANCH   1  19
TORSDOF 8
ENDMDL
MODEL 5
REMARK VINA RESULT:    -7.143      4.313      7.725
REMARK INTER + INTRA:         -11.386
REMARK INTER:                 -10.250
REMARK INTRA:                  -1.136
REMARK UNBOUND:                -1.111
REMARK  Name = 
REMARK  9 active torsions:
REMARK  status: ('A' for Active; 'I' for Inactive)
REMARK    1  A    between atoms: C_1  and  O_2
REMARK    2  A    between atoms: O_2  and  C_3
REMARK    3  A    between atoms: C_5  and  C_6
REMARK    4  A    between atoms: C_14  and  C_15
REMARK    5  A    between atoms: C_15  and  O_16
REMARK    6  A    between atoms: C_15  and  C_17
REMARK    7  A    between atoms: C_17  and  O_18
REMARK    8  A    between atoms: O_18  and  C_19
REMARK    9  A    between atoms: C_22  and  C_23
REMARK                            x       y       z     vdW  Elec       q    Type
REMARK                         _______ _______ _______ _____ _____    ______ ____
ROOT
ATOM      1  C   UNL     1      49.124   8.360  12.327  0.00  0.00    +0.000 C 
ENDROOT
BRANCH   1   6
ATOM      2  C   UNL     1      45.345   9.013  12.132  0.00  0.00    +0.000 A 
ATOM      3  C   UNL     1      44.889   7.785  11.650  0.00  0.00    +0.000 A 
ATOM      4  C   UNL     1      45.775   6.726  11.370  0.00  0.00    +0.000 A 
ATOM      5  C   UNL     1      47.145   6.942  11.619  0.00  0.00    +0.000 A 
ATOM      6  C   UNL     1      47.632   8.164  12.121  0.00  0.00    +0.000 A 
ATOM      7  C   UNL     1      46.707   9.187  12.384  0.00  0.00    +0.000 A 
BRANCH   4   8
ATOM      8  C   UNL     1      45.277   5.445  10.807  0.00  0.00    +0.000 A 
ATOM      9  C   UNL     1      44.480   4.565  11.562  0.00  0.00    +0.000 A 
ATOM     10  C   UNL     1      44.017   3.355  11.031  0.00  0.00    +0.000 A 
ATOM     11  C   UNL     1      44.328   3.004   9.720  0.00  0.00    +0.000 A 
ATOM     12  C   UNL     1      45.110   3.859   8.954  0.00  0.00    +0.000 A 
ATOM     13 CL   UNL     1      45.490   3.441   7.327  0.00  0.00    +0.000 Cl
ATOM     14  C   UNL     1      45.589   5.056   9.490  0.00  0.00    +0.000 A 
ENDBRANCH   4   8
BRANCH   2  16
ATOM     15  C   UNL     1      43.755  10.586  11.316  0.00  0.00    +0.000 C 
ATOM     16  O   UNL     1      44.569  10.112  12.384  0.00  0.00    +0.000 OA
ENDBRANCH   2  16
ENDBRANCH   1   6
BRANCH   1  17
ATOM     17  O   UNL     1      49.381   9.737  12.625  0.00  0.00    +0.000 OA
ATOM     18  H   UNL     1      49.196  10.257  11.827  0.00  0.00    +0.000 HD
ENDBRANCH   1  17
BRANCH   1  19
ATOM     19  C   UNL     1      49.697   7.452  13.431  0.00  0.00    +0.000 C 
BRANCH  19  20
ATOM     20  O   UNL     1      49.172   7.835  14.717  0.00  0.00    +0.000 OA
BRANCH  20  21
ATOM     21  C   UNL     1      48.761   6.744  15.455  0.00  0.00    +0.000 A 
ATOM     22  C   UNL     1      49.117   6.669  16.799  0.00  0.00    +0.000 A 
ATOM     23  N   UNL     1      48.761   5.630  17.605  0.00  0.00    +0.000 NA
ATOM     24  C   UNL     1      48.023   4.663  16.987  0.00  0.00    +0.000 A 
ATOM     25  C   UNL     1      47.668   4.737  15.649  0.00  0.00    +0.000 A 
ATOM     26  N   UNL     1      48.031   5.776  14.855  0.00  0.00    +0.000 NA
BRANCH  24  27
ATOM     27  C   UNL     1      47.578   3.487  17.784  0.00  0.00    +0.000 C 
ATOM     28  N   UNL     1      48.311   3.203  18.901  0.00  0.00    +0.000 N 
ATOM     29  O   UNL     1      46.617   2.805  17.456  0.00  0.00    +0.000 OA
ATOM     30  H   UNL     1      49.104   3.781  19.157  0.00  0.00    +0.000 HD
ATOM     31  H   UNL     1      48.045   2.418  19.479  0.00  0.00    +0.000 HD
ENDBRANCH  24  27
ENDBRANCH  20  21
ENDBRANCH  19  20
ENDBRANCH   1  19
TORSDOF 8
ENDMDL
MODEL 6
REMARK VINA RESULT:    -6.945      4.406      6.864
REMARK INTER + INTRA:         -11.101
REMARK INTER:                 -10.366
REMARK INTRA:                  -0.735
REMARK UNBOUND:                -1.111
REMARK  Name = 
REMARK  9 active torsions:
REMARK  status: ('A' for Active; 'I' for Inactive)
REMARK    1  A    between atoms: C_1  and  O_2
REMARK    2  A    between atoms: O_2  and  C_3
REMARK    3  A    between atoms: C_5  and  C_6
REMARK    4  A    between atoms: C_14  and  C_15
REMARK    5  A    between atoms: C_15  and  O_16
REMARK    6  A    between atoms: C_15  and  C_17
REMARK    7  A    between atoms: C_17  and  O_18
REMARK    8  A    between atoms: O_18  and  C_19
REMARK    9  A    between atoms: C_22  and  C_23
REMARK                            x       y       z     vdW  Elec       q    Type
REMARK                         _______ _______ _______ _____ _____    ______ ____
ROOT
ATOM      1  C   UNL     1      47.671   3.418  16.863  0.00  0.00    +0.000 C 
ENDROOT
BRANCH   1   6
ATOM      2  C   UNL     1      50.547   4.659  19.084  0.00  0.00    +0.000 A 
ATOM      3  C   UNL     1      49.945   5.751  19.711  0.00  0.00    +0.000 A 
ATOM      4  C   UNL     1      48.613   6.120  19.434  0.00  0.00    +0.000 A 
ATOM      5  C   UNL     1      47.897   5.327  18.516  0.00  0.00    +0.000 A 
ATOM      6  C   UNL     1      48.473   4.211  17.881  0.00  0.00    +0.000 A 
ATOM      7  C   UNL     1      49.803   3.885  18.192  0.00  0.00    +0.000 A 
BRANCH   4   8
ATOM      8  C   UNL     1      48.007   7.317  20.071  0.00  0.00    +0.000 A 
ATOM      9  C   UNL     1      47.641   7.328  21.430  0.00  0.00    +0.000 A 
ATOM     10  C   UNL     1      47.064   8.456  22.026  0.00  0.00    +0.000 A 
ATOM     11  C   UNL     1      46.853   9.610  21.277  0.00  0.00    +0.000 A 
ATOM     12  C   UNL     1      47.211   9.625  19.934  0.00  0.00    +0.000 A 
ATOM     13 CL   UNL     1      46.968  11.052  19.002  0.00  0.00    +0.000 Cl
ATOM     14  C   UNL     1      47.768   8.494  19.334  0.00  0.00    +0.000 A 
ENDBRANCH   4   8
BRANCH   2  16
ATOM     15  C   UNL     1      52.403   3.442  18.224  0.00  0.00    +0.000 C 
ATOM     16  O   UNL     1      51.844   4.257  19.250  0.00  0.00    +0.000 OA
ENDBRANCH   2  16
ENDBRANCH   1   6
BRANCH   1  17
ATOM     17  O   UNL     1      46.512   2.868  17.500  0.00  0.00    +0.000 OA
ATOM     18  H   UNL     1      46.064   2.290  16.863  0.00  0.00    +0.000 HD
ENDBRANCH   1  17
BRANCH   1  19
ATOM     19  C   UNL     1      47.264   4.261  15.639  0.00  0.00    +0.000 C 
BRANCH  19  20
ATOM     20  O   UNL     1      47.390   3.484  14.431  0.00  0.00    +0.000 OA
BRANCH  20  21
ATOM     21  C   UNL     1      46.451   3.841  13.486  0.00  0.00    +0.000 A 
ATOM     22  C   UNL     1      46.294   5.188  13.169  0.00  0.00    +0.000 A 
ATOM     23  N   UNL     1      45.391   5.635  12.253  0.00  0.00    +0.000 NA
ATOM     24  C   UNL     1      44.648   4.652  11.666  0.00  0.00    +0.000 A 
ATOM     25  C   UNL     1      44.804   3.311  11.981  0.00  0.00    +0.000 A 
ATOM     26  N   UNL     1      45.705   2.878  12.898  0.00  0.00    +0.000 NA
BRANCH  24  27
ATOM     27  C   UNL     1      43.636   5.037  10.645  0.00  0.00    +0.000 C 
ATOM     28  N   UNL     1      43.868   4.604   9.370  0.00  0.00    +0.000 N 
ATOM     29  O   UNL     1      42.654   5.712  10.925  0.00  0.00    +0.000 OA
ATOM     30  H   UNL     1      44.687   4.044   9.159  0.00  0.00    +0.000 HD
ATOM     31  H   UNL     1      43.206   4.834   8.643  0.00  0.00    +0.000 HD
ENDBRANCH  24  27
ENDBRANCH  20  21
ENDBRANCH  19  20
ENDBRANCH   1  19
TORSDOF 8
ENDMDL
MODEL 7
REMARK VINA RESULT:    -6.736      5.228      7.967
REMARK INTER + INTRA:         -10.800
REMARK INTER:                 -10.075
REMARK INTRA:                  -0.725
REMARK UNBOUND:                -1.111
REMARK  Name = 
REMARK  9 active torsions:
REMARK  status: ('A' for Active; 'I' for Inactive)
REMARK    1  A    between atoms: C_1  and  O_2
REMARK    2  A    between atoms: O_2  and  C_3
REMARK    3  A    between atoms: C_5  and  C_6
REMARK    4  A    between atoms: C_14  and  C_15
REMARK    5  A    between atoms: C_15  and  O_16
REMARK    6  A    between atoms: C_15  and  C_17
REMARK    7  A    between atoms: C_17  and  O_18
REMARK    8  A    between atoms: O_18  and  C_19
REMARK    9  A    between atoms: C_22  and  C_23
REMARK                            x       y       z     vdW  Elec       q    Type
REMARK                         _______ _______ _______ _____ _____    ______ ____
ROOT
ATOM      1  C   UNL     1      47.630   3.169  16.875  0.00  0.00    +0.000 C 
ENDROOT
BRANCH   1   6
ATOM      2  C   UNL     1      49.698   4.953  19.574  0.00  0.00    +0.000 A 
ATOM      3  C   UNL     1      50.981   4.497  19.269  0.00  0.00    +0.000 A 
ATOM      4  C   UNL     1      51.215   3.608  18.201  0.00  0.00    +0.000 A 
ATOM      5  C   UNL     1      50.103   3.210  17.432  0.00  0.00    +0.000 A 
ATOM      6  C   UNL     1      48.800   3.666  17.706  0.00  0.00    +0.000 A 
ATOM      7  C   UNL     1      48.622   4.553  18.781  0.00  0.00    +0.000 A 
BRANCH   4   8
ATOM      8  C   UNL     1      52.580   3.092  17.924  0.00  0.00    +0.000 A 
ATOM      9  C   UNL     1      53.688   3.953  17.811  0.00  0.00    +0.000 A 
ATOM     10  C   UNL     1      54.972   3.464  17.544  0.00  0.00    +0.000 A 
ATOM     11  C   UNL     1      55.182   2.096  17.399  0.00  0.00    +0.000 A 
ATOM     12  C   UNL     1      54.105   1.226  17.510  0.00  0.00    +0.000 A 
ATOM     13 CL   UNL     1      54.355  -0.470  17.347  0.00  0.00    +0.000 Cl
ATOM     14  C   UNL     1      52.820   1.714  17.757  0.00  0.00    +0.000 A 
ENDBRANCH   4   8
BRANCH   2  16
ATOM     15  C   UNL     1      49.677   5.309  21.928  0.00  0.00    +0.000 C 
ATOM     16  O   UNL     1      49.368   5.775  20.618  0.00  0.00    +0.000 OA
ENDBRANCH   2  16
ENDBRANCH   1   6
BRANCH   1  17
ATOM     17  O   UNL     1      46.556   2.799  17.747  0.00  0.00    +0.000 OA
ATOM     18  H   UNL     1      45.722   2.916  17.263  0.00  0.00    +0.000 HD
ENDBRANCH   1  17
BRANCH   1  19
ATOM     19  C   UNL     1      47.153   4.205  15.840  0.00  0.00    +0.000 C 
BRANCH  19  20
ATOM     20  O   UNL     1      47.541   3.801  14.511  0.00  0.00    +0.000 OA
BRANCH  20  21
ATOM     21  C   UNL     1      46.574   4.103  13.575  0.00  0.00    +0.000 A 
ATOM     22  C   UNL     1      46.340   5.439  13.257  0.00  0.00    +0.000 A 
ATOM     23  N   UNL     1      45.405   5.834  12.349  0.00  0.00    +0.000 NA
ATOM     24  C   UNL     1      44.710   4.810  11.772  0.00  0.00    +0.000 A 
ATOM     25  C   UNL     1      44.943   3.481  12.089  0.00  0.00    +0.000 A 
ATOM     26  N   UNL     1      45.875   3.100  12.997  0.00  0.00    +0.000 NA
BRANCH  24  27
ATOM     27  C   UNL     1      43.669   5.137  10.761  0.00  0.00    +0.000 C 
ATOM     28  N   UNL     1      42.833   6.173  11.067  0.00  0.00    +0.000 N 
ATOM     29  O   UNL     1      43.557   4.510   9.716  0.00  0.00    +0.000 OA
ATOM     30  H   UNL     1      42.943   6.682  11.938  0.00  0.00    +0.000 HD
ATOM     31  H   UNL     1      42.113   6.438  10.410  0.00  0.00    +0.000 HD
ENDBRANCH  24  27
ENDBRANCH  20  21
ENDBRANCH  19  20
ENDBRANCH   1  19
TORSDOF 8
ENDMDL
MODEL 8
REMARK VINA RESULT:    -6.729      4.157      6.959
REMARK INTER + INTRA:         -10.790
REMARK INTER:                  -9.836
REMARK INTRA:                  -0.954
REMARK UNBOUND:                -1.111
REMARK  Name = 
REMARK  9 active torsions:
REMARK  status: ('A' for Active; 'I' for Inactive)
REMARK    1  A    between atoms: C_1  and  O_2
REMARK    2  A    between atoms: O_2  and  C_3
REMARK    3  A    between atoms: C_5  and  C_6
REMARK    4  A    between atoms: C_14  and  C_15
REMARK    5  A    between atoms: C_15  and  O_16
REMARK    6  A    between atoms: C_15  and  C_17
REMARK    7  A    between atoms: C_17  and  O_18
REMARK    8  A    between atoms: O_18  and  C_19
REMARK    9  A    between atoms: C_22  and  C_23
REMARK                            x       y       z     vdW  Elec       q    Type
REMARK                         _______ _______ _______ _____ _____    ______ ____
ROOT
ATOM      1  C   UNL     1      46.779   4.333  14.729  0.00  0.00    +0.000 C 
ENDROOT
BRANCH   1   6
ATOM      2  C   UNL     1      44.777   5.747  11.772  0.00  0.00    +0.000 A 
ATOM      3  C   UNL     1      45.482   6.923  11.514  0.00  0.00    +0.000 A 
ATOM      4  C   UNL     1      46.605   7.295  12.279  0.00  0.00    +0.000 A 
ATOM      5  C   UNL     1      47.010   6.419  13.306  0.00  0.00    +0.000 A 
ATOM      6  C   UNL     1      46.329   5.218  13.579  0.00  0.00    +0.000 A 
ATOM      7  C   UNL     1      45.216   4.894  12.786  0.00  0.00    +0.000 A 
BRANCH   4   8
ATOM      8  C   UNL     1      47.311   8.577  12.024  0.00  0.00    +0.000 A 
ATOM      9  C   UNL     1      48.675   8.615  11.682  0.00  0.00    +0.000 A 
ATOM     10  C   UNL     1      49.339   9.826  11.448  0.00  0.00    +0.000 A 
ATOM     11  C   UNL     1      48.646  11.030  11.533  0.00  0.00    +0.000 A 
ATOM     12  C   UNL     1      47.297  11.017  11.865  0.00  0.00    +0.000 A 
ATOM     13 CL   UNL     1      46.426  12.499  11.959  0.00  0.00    +0.000 Cl
ATOM     14  C   UNL     1      46.639   9.811  12.119  0.00  0.00    +0.000 A 
ENDBRANCH   4   8
BRANCH   2  16
ATOM     15  C   UNL     1      42.416   5.448  11.820  0.00  0.00    +0.000 C 
ATOM     16  O   UNL     1      43.649   5.329  11.119  0.00  0.00    +0.000 OA
ENDBRANCH   2  16
ENDBRANCH   1   6
BRANCH   1  17
ATOM     17  O   UNL     1      47.360   3.135  14.201  0.00  0.00    +0.000 OA
ATOM     18  H   UNL     1      47.866   3.370  13.408  0.00  0.00    +0.000 HD
ENDBRANCH   1  17
BRANCH   1  19
ATOM     19  C   UNL     1      47.767   5.042  15.674  0.00  0.00    +0.000 C 
BRANCH  19  20
ATOM     20  O   UNL     1      47.793   4.386  16.957  0.00  0.00    +0.000 OA
BRANCH  20  21
ATOM     21  C   UNL     1      48.963   3.683  17.156  0.00  0.00    +0.000 A 
ATOM     22  C   UNL     1      49.998   4.288  17.865  0.00  0.00    +0.000 A 
ATOM     23  N   UNL     1      51.190   3.675  18.108  0.00  0.00    +0.000 NA
ATOM     24  C   UNL     1      51.290   2.413  17.598  0.00  0.00    +0.000 A 
ATOM     25  C   UNL     1      50.260   1.811  16.892  0.00  0.00    +0.000 A 
ATOM     26  N   UNL     1      49.078   2.432  16.654  0.00  0.00    +0.000 NA
BRANCH  24  27
ATOM     27  C   UNL     1      52.552   1.655  17.815  0.00  0.00    +0.000 C 
ATOM     28  N   UNL     1      52.416   0.355  18.214  0.00  0.00    +0.000 N 
ATOM     29  O   UNL     1      53.653   2.165  17.655  0.00  0.00    +0.000 OA
ATOM     30  H   UNL     1      51.495  -0.050  18.339  0.00  0.00    +0.000 HD
ATOM     31  H   UNL     1      53.244  -0.203  18.368  0.00  0.00    +0.000 HD
ENDBRANCH  24  27
ENDBRANCH  20  21
ENDBRANCH  19  20
ENDBRANCH   1  19
TORSDOF 8
ENDMDL
MODEL 9
REMARK VINA RESULT:    -6.515      4.753      8.422
REMARK INTER + INTRA:         -10.483
REMARK INTER:                  -9.649
REMARK INTRA:                  -0.834
REMARK UNBOUND:                -1.111
REMARK  Name = 
REMARK  9 active torsions:
REMARK  status: ('A' for Active; 'I' for Inactive)
REMARK    1  A    between atoms: C_1  and  O_2
REMARK    2  A    between atoms: O_2  and  C_3
REMARK    3  A    between atoms: C_5  and  C_6
REMARK    4  A    between atoms: C_14  and  C_15
REMARK    5  A    between atoms: C_15  and  O_16
REMARK    6  A    between atoms: C_15  and  C_17
REMARK    7  A    between atoms: C_17  and  O_18
REMARK    8  A    between atoms: O_18  and  C_19
REMARK    9  A    between atoms: C_22  and  C_23
REMARK                            x       y       z     vdW  Elec       q    Type
REMARK                         _______ _______ _______ _____ _____    ______ ____
ROOT
ATOM      1  C   UNL     1      48.992   7.894  12.876  0.00  0.00    +0.000 C 
ENDROOT
BRANCH   1   6
ATOM      2  C   UNL     1      45.313   8.749  12.181  0.00  0.00    +0.000 A 
ATOM      3  C   UNL     1      44.884   7.580  11.552  0.00  0.00    +0.000 A 
ATOM      4  C   UNL     1      45.757   6.497  11.330  0.00  0.00    +0.000 A 
ATOM      5  C   UNL     1      47.083   6.626  11.790  0.00  0.00    +0.000 A 
ATOM      6  C   UNL     1      47.539   7.787  12.442  0.00  0.00    +0.000 A 
ATOM      7  C   UNL     1      46.629   8.837  12.639  0.00  0.00    +0.000 A 
BRANCH   4   8
ATOM      8  C   UNL     1      45.296   5.281  10.612  0.00  0.00    +0.000 A 
ATOM      9  C   UNL     1      44.399   4.369  11.199  0.00  0.00    +0.000 A 
ATOM     10  C   UNL     1      43.971   3.221  10.522  0.00  0.00    +0.000 A 
ATOM     11  C   UNL     1      44.420   2.965   9.230  0.00  0.00    +0.000 A 
ATOM     12  C   UNL     1      45.302   3.853   8.627  0.00  0.00    +0.000 A 
ATOM     13 CL   UNL     1      45.853   3.554   7.023  0.00  0.00    +0.000 Cl
ATOM     14  C   UNL     1      45.746   4.988   9.310  0.00  0.00    +0.000 A 
ENDBRANCH   4   8
BRANCH   2  16
ATOM     15  C   UNL     1      43.846  10.391  11.274  0.00  0.00    +0.000 C 
ATOM     16  O   UNL     1      44.554   9.868  12.394  0.00  0.00    +0.000 OA
ENDBRANCH   2  16
ENDBRANCH   1   6
BRANCH   1  17
ATOM     17  O   UNL     1      49.470   9.215  12.600  0.00  0.00    +0.000 OA
ATOM     18  H   UNL     1      48.842   9.642  11.996  0.00  0.00    +0.000 HD
ENDBRANCH   1  17
BRANCH   1  19
ATOM     19  C   UNL     1      49.196   7.544  14.362  0.00  0.00    +0.000 C 
BRANCH  19  20
ATOM     20  O   UNL     1      48.853   6.166  14.605  0.00  0.00    +0.000 OA
BRANCH  20  21
ATOM     21  C   UNL     1      48.728   5.892  15.951  0.00  0.00    +0.000 A 
ATOM     22  C   UNL     1      48.948   6.917  16.868  0.00  0.00    +0.000 A 
ATOM     23  N   UNL     1      48.853   6.741  18.216  0.00  0.00    +0.000 NA
ATOM     24  C   UNL     1      48.522   5.472  18.598  0.00  0.00    +0.000 A 
ATOM     25  C   UNL     1      48.304   4.452  17.685  0.00  0.00    +0.000 A 
ATOM     26  N   UNL     1      48.405   4.639  16.345  0.00  0.00    +0.000 NA
BRANCH  24  27
ATOM     27  C   UNL     1      48.387   5.178  20.050  0.00  0.00    +0.000 C 
ATOM     28  N   UNL     1      48.502   3.867  20.415  0.00  0.00    +0.000 N 
ATOM     29  O   UNL     1      48.176   6.057  20.875  0.00  0.00    +0.000 OA
ATOM     30  H   UNL     1      48.680   3.153  19.716  0.00  0.00    +0.000 HD
ATOM     31  H   UNL     1      48.425   3.617  21.391  0.00  0.00    +0.000 HD
ENDBRANCH  24  27
ENDBRANCH  20  21
ENDBRANCH  19  20
ENDBRANCH   1  19
TORSDOF 8
ENDMDL
