MODEL 1
REMARK VINA RESULT:    -8.271      0.000      0.000
REMARK INTER + INTRA:         -13.500
REMARK INTER:                 -12.381
REMARK INTRA:                  -1.119
REMARK UNBOUND:                -1.119
REMARK  Name = 
REMARK  9 active torsions:
REMARK  status: ('A' for Active; 'I' for Inactive)
REMARK    1  A    between atoms: C_2  and  O_3
REMARK    2  A    between atoms: C_2  and  C_22
REMARK    3  A    between atoms: O_3  and  C_4
REMARK    4  A    between atoms: C_4  and  C_5
REMARK    5  A    between atoms: C_9  and  C_10
REMARK    6  A    between atoms: C_10  and  N_11
REMARK    7  A    between atoms: N_11  and  C_12
REMARK    8  A    between atoms: C_12  and  C_13
REMARK    9  A    between atoms: C_13  and  O_14
REMARK                            x       y       z     vdW  Elec       q    Type
REMARK                         _______ _______ _______ _____ _____    ______ ____
ROOT
ATOM      1  C   UNL     1      47.279   5.588  14.147  0.00  0.00    +0.000 A 
ATOM      2  C   UNL     1      48.276   6.530  13.855  0.00  0.00    +0.000 A 
ATOM      3  C   UNL     1      48.097   7.451  12.827  0.00  0.00    +0.000 A 
ATOM      4  C   UNL     1      46.948   7.402  12.041  0.00  0.00    +0.000 A 
ATOM      5  C   UNL     1      45.990   6.395  12.236  0.00  0.00    +0.000 A 
ATOM      6  C   UNL     1      46.137   5.523  13.329  0.00  0.00    +0.000 A 
ENDROOT
BRANCH   1   7
ATOM      7  C   UNL     1      47.457   4.654  15.316  0.00  0.00    +0.000 C 
BRANCH   7   8
ATOM      8  O   UNL     1      48.588   5.035  16.105  0.00  0.00    +0.000 OA
BRANCH   8  10
ATOM      9  O   UNL     1      47.646   4.263  18.040  0.00  0.00    +0.000 OA
ATOM     10  C   UNL     1      48.631   4.534  17.364  0.00  0.00    +0.000 C 
BRANCH  10  11
ATOM     11  C   UNL     1      49.994   4.285  17.822  0.00  0.00    +0.000 A 
ATOM     12  C   UNL     1      50.705   5.253  18.512  0.00  0.00    +0.000 A 
ATOM     13  S   UNL     1      52.251   4.728  19.007  0.00  0.00    +0.000 S 
ATOM     14  C   UNL     1      52.025   3.201  18.286  0.00  0.00    +0.000 A 
ATOM     15  N   UNL     1      52.991   2.246  18.351  0.00  0.00    +0.000 NA
ATOM     16  C   UNL     1      52.685   1.140  17.760  0.00  0.00    +0.000 A 
ATOM     17  N   UNL     1      51.506   0.905  17.098  0.00  0.00    +0.000 N 
ATOM     18  C   UNL     1      50.535   1.868  16.932  0.00  0.00    +0.000 A 
ATOM     19  O   UNL     1      49.585   1.675  16.182  0.00  0.00    +0.000 OA
ATOM     20  C   UNL     1      50.797   3.100  17.656  0.00  0.00    +0.000 A 
ATOM     21  H   UNL     1      51.352   0.037  16.610  0.00  0.00    +0.000 HD
ENDBRANCH  10  11
ENDBRANCH   8  10
ENDBRANCH   7   8
ENDBRANCH   1   7
BRANCH   5  22
ATOM     22  C   UNL     1      45.004   6.106  11.124  0.00  0.00    +0.000 C 
BRANCH  22  23
ATOM     23  N   UNL     1      44.567   4.733  10.885  0.00  0.00    +0.000 N 
ATOM     24  C   UNL     1      44.956   4.206   9.624  0.00  0.00    +0.000 A 
ATOM     25  C   UNL     1      45.835   4.863   8.739  0.00  0.00    +0.000 A 
ATOM     26  N   UNL     1      46.261   4.375   7.543  0.00  0.00    +0.000 NA
ATOM     27  C   UNL     1      45.785   3.159   7.231  0.00  0.00    +0.000 A 
ATOM     28  C   UNL     1      44.916   2.486   8.064  0.00  0.00    +0.000 A 
ATOM     29  N   UNL     1      44.490   2.991   9.251  0.00  0.00    +0.000 NA
BRANCH  23  30
ATOM     30  C   UNL     1      43.201   4.328  11.267  0.00  0.00    +0.000 C 
BRANCH  30  31
ATOM     31  C   UNL     1      42.425   5.470  11.943  0.00  0.00    +0.000 C 
BRANCH  31  32
ATOM     32  O   UNL     1      42.518   5.361  13.366  0.00  0.00    +0.000 OA
ATOM     33  H   UNL     1      42.283   4.443  13.586  0.00  0.00    +0.000 HD
ENDBRANCH  31  32
ENDBRANCH  30  31
ENDBRANCH  23  30
ENDBRANCH  22  23
ENDBRANCH   5  22
TORSDOF 9
ENDMDL
MODEL 2
REMARK VINA RESULT:    -7.662      1.457      2.131
REMARK INTER + INTRA:         -12.589
REMARK INTER:                 -11.400
REMARK INTRA:                  -1.189
REMARK UNBOUND:                -1.119
REMARK  Name = 
REMARK  9 active torsions:
REMARK  status: ('A' for Active; 'I' for Inactive)
REMARK    1  A    between atoms: C_2  and  O_3
REMARK    2  A    between atoms: C_2  and  C_22
REMARK    3  A    between atoms: O_3  and  C_4
REMARK    4  A    between atoms: C_4  and  C_5
REMARK    5  A    between atoms: C_9  and  C_10
REMARK    6  A    between atoms: C_10  and  N_11
REMARK    7  A    between atoms: N_11  and  C_12
REMARK    8  A    between atoms: C_12  and  C_13
REMARK    9  A    between atoms: C_13  and  O_14
REMARK                            x       y       z     vdW  Elec       q    Type
REMARK                         _______ _______ _______ _____ _____    ______ ____
ROOT
ATOM      1  C   UNL     1      47.708   6.174  13.867  0.00  0.00    +0.000 A 
ATOM      2  C   UNL     1      48.759   6.783  13.165  0.00  0.00    +0.000 A 
ATOM      3  C   UNL     1      48.527   7.382  11.930  0.00  0.00    +0.000 A 
ATOM      4  C   UNL     1      47.260   7.324  11.355  0.00  0.00    +0.000 A 
ATOM      5  C   UNL     1      46.221   6.619  11.982  0.00  0.00    +0.000 A 
ATOM      6  C   UNL     1      46.439   6.092  13.267  0.00  0.00    +0.000 A 
ENDROOT
BRANCH   1   7
ATOM      7  C   UNL     1      47.962   5.605  15.239  0.00  0.00    +0.000 C 
BRANCH   7   8
ATOM      8  O   UNL     1      47.566   4.231  15.303  0.00  0.00    +0.000 OA
BRANCH   8  10
ATOM      9  O   UNL     1      46.527   3.451  17.183  0.00  0.00    +0.000 OA
ATOM     10  C   UNL     1      47.544   3.676  16.539  0.00  0.00    +0.000 C 
BRANCH  10  11
ATOM     11  C   UNL     1      48.874   3.307  17.012  0.00  0.00    +0.000 A 
ATOM     12  C   UNL     1      49.460   2.108  16.637  0.00  0.00    +0.000 A 
ATOM     13  S   UNL     1      51.040   1.911  17.251  0.00  0.00    +0.000 S 
ATOM     14  C   UNL     1      50.973   3.409  18.060  0.00  0.00    +0.000 A 
ATOM     15  N   UNL     1      52.031   3.859  18.787  0.00  0.00    +0.000 NA
ATOM     16  C   UNL     1      51.840   5.007  19.346  0.00  0.00    +0.000 A 
ATOM     17  N   UNL     1      50.685   5.740  19.255  0.00  0.00    +0.000 N 
ATOM     18  C   UNL     1      49.558   5.288  18.603  0.00  0.00    +0.000 A 
ATOM     19  O   UNL     1      48.494   5.889  18.701  0.00  0.00    +0.000 OA
ATOM     20  C   UNL     1      49.755   4.041  17.883  0.00  0.00    +0.000 A 
ATOM     21  H   UNL     1      50.580   6.605  19.762  0.00  0.00    +0.000 HD
ENDBRANCH  10  11
ENDBRANCH   8  10
ENDBRANCH   7   8
ENDBRANCH   1   7
BRANCH   5  22
ATOM     22  C   UNL     1      45.018   6.212  11.157  0.00  0.00    +0.000 C 
BRANCH  22  23
ATOM     23  N   UNL     1      44.690   4.796  11.009  0.00  0.00    +0.000 N 
ATOM     24  C   UNL     1      45.081   4.231   9.766  0.00  0.00    +0.000 A 
ATOM     25  C   UNL     1      45.875   4.905   8.815  0.00  0.00    +0.000 A 
ATOM     26  N   UNL     1      46.301   4.385   7.633  0.00  0.00    +0.000 NA
ATOM     27  C   UNL     1      45.918   3.118   7.406  0.00  0.00    +0.000 A 
ATOM     28  C   UNL     1      45.134   2.426   8.306  0.00  0.00    +0.000 A 
ATOM     29  N   UNL     1      44.706   2.963   9.478  0.00  0.00    +0.000 NA
BRANCH  23  30
ATOM     30  C   UNL     1      43.374   4.306  11.462  0.00  0.00    +0.000 C 
BRANCH  30  31
ATOM     31  C   UNL     1      43.259   4.282  12.994  0.00  0.00    +0.000 C 
BRANCH  31  32
ATOM     32  O   UNL     1      42.536   5.425  13.458  0.00  0.00    +0.000 OA
ATOM     33  H   UNL     1      43.204   6.077  13.734  0.00  0.00    +0.000 HD
ENDBRANCH  31  32
ENDBRANCH  30  31
ENDBRANCH  23  30
ENDBRANCH  22  23
ENDBRANCH   5  22
TORSDOF 9
ENDMDL
MODEL 3
REMARK VINA RESULT:    -7.518      2.213      2.883
REMARK INTER + INTRA:         -12.373
REMARK INTER:                 -10.993
REMARK INTRA:                  -1.380
REMARK UNBOUND:                -1.119
REMARK  Name = 
REMARK  9 active torsions:
REMARK  status: ('A' for Active; 'I' for Inactive)
REMARK    1  A    between atoms: C_2  and  O_3
REMARK    2  A    between atoms: C_2  and  C_22
REMARK    3  A    between atoms: O_3  and  C_4
REMARK    4  A    between atoms: C_4  and  C_5
REMARK    5  A    between atoms: C_9  and  C_10
REMARK    6  A    between atoms: C_10  and  N_11
REMARK    7  A    between atoms: N_11  and  C_12
REMARK    8  A    between atoms: C_12  and  C_13
REMARK    9  A    between atoms: C_13  and  O_14
REMARK                            x       y       z     vdW  Elec       q    Type
REMARK                         _______ _______ _______ _____ _____    ______ ____
ROOT
ATOM      1  C   UNL     1      47.338   7.447  12.199  0.00  0.00    +0.000 A 
ATOM      2  C   UNL     1      46.882   8.773  12.213  0.00  0.00    +0.000 A 
ATOM      3  C   UNL     1      45.552   9.064  11.924  0.00  0.00    +0.000 A 
ATOM      4  C   UNL     1      44.679   8.041  11.559  0.00  0.00    +0.000 A 
ATOM      5  C   UNL     1      45.139   6.722  11.423  0.00  0.00    +0.000 A 
ATOM      6  C   UNL     1      46.460   6.423  11.798  0.00  0.00    +0.000 A 
ENDROOT
BRANCH   1   7
ATOM      7  C   UNL     1      48.761   7.145  12.595  0.00  0.00    +0.000 C 
BRANCH   7   8
ATOM      8  O   UNL     1      48.801   6.320  13.763  0.00  0.00    +0.000 OA
BRANCH   8  10
ATOM      9  O   UNL     1      48.451   8.141  15.101  0.00  0.00    +0.000 OA
ATOM     10  C   UNL     1      48.787   6.973  14.951  0.00  0.00    +0.000 C 
BRANCH  10  11
ATOM     11  C   UNL     1      49.162   6.110  16.068  0.00  0.00    +0.000 A 
ATOM     12  C   UNL     1      50.318   6.344  16.796  0.00  0.00    +0.000 A 
ATOM     13  S   UNL     1      50.527   5.255  18.094  0.00  0.00    +0.000 S 
ATOM     14  C   UNL     1      49.093   4.423  17.699  0.00  0.00    +0.000 A 
ATOM     15  N   UNL     1      48.675   3.361  18.439  0.00  0.00    +0.000 NA
ATOM     16  C   UNL     1      47.575   2.826  18.025  0.00  0.00    +0.000 A 
ATOM     17  N   UNL     1      46.861   3.248  16.932  0.00  0.00    +0.000 N 
ATOM     18  C   UNL     1      47.289   4.263  16.104  0.00  0.00    +0.000 A 
ATOM     19  O   UNL     1      46.719   4.485  15.041  0.00  0.00    +0.000 OA
ATOM     20  C   UNL     1      48.475   4.953  16.581  0.00  0.00    +0.000 A 
ATOM     21  H   UNL     1      46.038   2.751  16.630  0.00  0.00    +0.000 HD
ENDBRANCH  10  11
ENDBRANCH   8  10
ENDBRANCH   7   8
ENDBRANCH   1   7
BRANCH   5  22
ATOM     22  C   UNL     1      44.305   5.741  10.626  0.00  0.00    +0.000 C 
BRANCH  22  23
ATOM     23  N   UNL     1      44.566   4.309  10.745  0.00  0.00    +0.000 N 
ATOM     24  C   UNL     1      45.124   3.716   9.581  0.00  0.00    +0.000 A 
ATOM     25  C   UNL     1      45.563   4.453   8.462  0.00  0.00    +0.000 A 
ATOM     26  N   UNL     1      46.138   3.926   7.347  0.00  0.00    +0.000 NA
ATOM     27  C   UNL     1      46.287   2.592   7.369  0.00  0.00    +0.000 A 
ATOM     28  C   UNL     1      45.862   1.833   8.440  0.00  0.00    +0.000 A 
ATOM     29  N   UNL     1      45.280   2.372   9.542  0.00  0.00    +0.000 NA
BRANCH  23  30
ATOM     30  C   UNL     1      43.564   3.441  11.394  0.00  0.00    +0.000 C 
BRANCH  30  31
ATOM     31  C   UNL     1      43.206   3.923  12.808  0.00  0.00    +0.000 C 
BRANCH  31  32
ATOM     32  O   UNL     1      44.359   3.889  13.654  0.00  0.00    +0.000 OA
ATOM     33  H   UNL     1      44.055   3.555  14.516  0.00  0.00    +0.000 HD
ENDBRANCH  31  32
ENDBRANCH  30  31
ENDBRANCH  23  30
ENDBRANCH  22  23
ENDBRANCH   5  22
TORSDOF 9
ENDMDL
MODEL 4
REMARK VINA RESULT:    -6.978      2.154      2.785
REMARK INTER + INTRA:         -11.565
REMARK INTER:                 -10.509
REMARK INTRA:                  -1.056
REMARK UNBOUND:                -1.119
REMARK  Name = 
REMARK  9 active torsions:
REMARK  status: ('A' for Active; 'I' for Inactive)
REMARK    1  A    between atoms: C_2  and  O_3
REMARK    2  A    between atoms: C_2  and  C_22
REMARK    3  A    between atoms: O_3  and  C_4
REMARK    4  A    between atoms: C_4  and  C_5
REMARK    5  A    between atoms: C_9  and  C_10
REMARK    6  A    between atoms: C_10  and  N_11
REMARK    7  A    between atoms: N_11  and  C_12
REMARK    8  A    between atoms: C_12  and  C_13
REMARK    9  A    between atoms: C_13  and  O_14
REMARK                            x       y       z     vdW  Elec       q    Type
REMARK                         _______ _______ _______ _____ _____    ______ ____
ROOT
ATOM      1  C   UNL     1      47.540   7.288  13.313  0.00  0.00    +0.000 A 
ATOM      2  C   UNL     1      47.166   8.629  13.483  0.00  0.00    +0.000 A 
ATOM      3  C   UNL     1      45.959   9.095  12.970  0.00  0.00    +0.000 A 
ATOM      4  C   UNL     1      45.141   8.243  12.231  0.00  0.00    +0.000 A 
ATOM      5  C   UNL     1      45.548   6.930  11.946  0.00  0.00    +0.000 A 
ATOM      6  C   UNL     1      46.726   6.442  12.538  0.00  0.00    +0.000 A 
ENDROOT
BRANCH   1   7
ATOM      7  C   UNL     1      48.812   6.785  13.946  0.00  0.00    +0.000 C 
BRANCH   7   8
ATOM      8  O   UNL     1      48.724   6.832  15.373  0.00  0.00    +0.000 OA
BRANCH   8  10
ATOM      9  O   UNL     1      47.803   4.751  15.593  0.00  0.00    +0.000 OA
ATOM     10  C   UNL     1      48.540   5.642  15.996  0.00  0.00    +0.000 C 
BRANCH  10  11
ATOM     11  C   UNL     1      49.371   5.499  17.187  0.00  0.00    +0.000 A 
ATOM     12  C   UNL     1      50.751   5.422  17.092  0.00  0.00    +0.000 A 
ATOM     13  S   UNL     1      51.526   5.323  18.610  0.00  0.00    +0.000 S 
ATOM     14  C   UNL     1      50.035   5.351  19.435  0.00  0.00    +0.000 A 
ATOM     15  N   UNL     1      49.986   5.302  20.793  0.00  0.00    +0.000 NA
ATOM     16  C   UNL     1      48.793   5.329  21.283  0.00  0.00    +0.000 A 
ATOM     17  N   UNL     1      47.642   5.387  20.539  0.00  0.00    +0.000 N 
ATOM     18  C   UNL     1      47.637   5.351  19.161  0.00  0.00    +0.000 A 
ATOM     19  O   UNL     1      46.587   5.220  18.542  0.00  0.00    +0.000 OA
ATOM     20  C   UNL     1      48.961   5.411  18.565  0.00  0.00    +0.000 A 
ATOM     21  H   UNL     1      46.737   5.349  20.982  0.00  0.00    +0.000 HD
ENDBRANCH  10  11
ENDBRANCH   8  10
ENDBRANCH   7   8
ENDBRANCH   1   7
BRANCH   5  22
ATOM     22  C   UNL     1      44.872   6.191  10.811  0.00  0.00    +0.000 C 
BRANCH  22  23
ATOM     23  N   UNL     1      44.695   4.743  10.896  0.00  0.00    +0.000 N 
ATOM     24  C   UNL     1      45.136   4.030   9.749  0.00  0.00    +0.000 A 
ATOM     25  C   UNL     1      45.847   4.622   8.686  0.00  0.00    +0.000 A 
ATOM     26  N   UNL     1      46.320   3.967   7.592  0.00  0.00    +0.000 NA
ATOM     27  C   UNL     1      46.072   2.648   7.576  0.00  0.00    +0.000 A 
ATOM     28  C   UNL     1      45.370   2.031   8.592  0.00  0.00    +0.000 A 
ATOM     29  N   UNL     1      44.895   2.700   9.674  0.00  0.00    +0.000 NA
BRANCH  23  30
ATOM     30  C   UNL     1      43.441   4.197  11.451  0.00  0.00    +0.000 C 
BRANCH  30  31
ATOM     31  C   UNL     1      42.472   5.304  11.895  0.00  0.00    +0.000 C 
BRANCH  31  32
ATOM     32  O   UNL     1      42.469   5.423  13.320  0.00  0.00    +0.000 OA
ATOM     33  H   UNL     1      42.164   6.326  13.517  0.00  0.00    +0.000 HD
ENDBRANCH  31  32
ENDBRANCH  30  31
ENDBRANCH  23  30
ENDBRANCH  22  23
ENDBRANCH   5  22
TORSDOF 9
ENDMDL
MODEL 5
REMARK VINA RESULT:    -6.811      2.907      4.934
REMARK INTER + INTRA:         -11.315
REMARK INTER:                  -9.938
REMARK INTRA:                  -1.377
REMARK UNBOUND:                -1.119
REMARK  Name = 
REMARK  9 active torsions:
REMARK  status: ('A' for Active; 'I' for Inactive)
REMARK    1  A    between atoms: C_2  and  O_3
REMARK    2  A    between atoms: C_2  and  C_22
REMARK    3  A    between atoms: O_3  and  C_4
REMARK    4  A    between atoms: C_4  and  C_5
REMARK    5  A    between atoms: C_9  and  C_10
REMARK    6  A    between atoms: C_10  and  N_11
REMARK    7  A    between atoms: N_11  and  C_12
REMARK    8  A    between atoms: C_12  and  C_13
REMARK    9  A    between atoms: C_13  and  O_14
REMARK                            x       y       z     vdW  Elec       q    Type
REMARK                         _______ _______ _______ _____ _____    ______ ____
ROOT
ATOM      1  C   UNL     1      46.636   4.764  13.431  0.00  0.00    +0.000 A 
ATOM      2  C   UNL     1      45.406   4.664  12.764  0.00  0.00    +0.000 A 
ATOM      3  C   UNL     1      45.161   5.419  11.621  0.00  0.00    +0.000 A 
ATOM      4  C   UNL     1      46.115   6.326  11.167  0.00  0.00    +0.000 A 
ATOM      5  C   UNL     1      47.305   6.531  11.883  0.00  0.00    +0.000 A 
ATOM      6  C   UNL     1      47.582   5.705  12.986  0.00  0.00    +0.000 A 
ENDROOT
BRANCH   1   7
ATOM      7  C   UNL     1      46.913   3.878  14.618  0.00  0.00    +0.000 C 
BRANCH   7   8
ATOM      8  O   UNL     1      47.280   4.657  15.761  0.00  0.00    +0.000 OA
BRANCH   8  10
ATOM      9  O   UNL     1      46.615   3.221  17.411  0.00  0.00    +0.000 OA
ATOM     10  C   UNL     1      47.448   3.971  16.918  0.00  0.00    +0.000 C 
BRANCH  10  11
ATOM     11  C   UNL     1      48.772   4.170  17.499  0.00  0.00    +0.000 A 
ATOM     12  C   UNL     1      49.079   5.324  18.202  0.00  0.00    +0.000 A 
ATOM     13  S   UNL     1      50.658   5.319  18.848  0.00  0.00    +0.000 S 
ATOM     14  C   UNL     1      50.986   3.786  18.180  0.00  0.00    +0.000 A 
ATOM     15  N   UNL     1      52.191   3.183  18.370  0.00  0.00    +0.000 NA
ATOM     16  C   UNL     1      52.301   2.027  17.806  0.00  0.00    +0.000 A 
ATOM     17  N   UNL     1      51.321   1.423  17.059  0.00  0.00    +0.000 N 
ATOM     18  C   UNL     1      50.118   2.031  16.768  0.00  0.00    +0.000 A 
ATOM     19  O   UNL     1      49.349   1.537  15.951  0.00  0.00    +0.000 OA
ATOM     20  C   UNL     1      49.915   3.295  17.456  0.00  0.00    +0.000 A 
ATOM     21  H   UNL     1      51.490   0.543  16.599  0.00  0.00    +0.000 HD
ENDBRANCH  10  11
ENDBRANCH   8  10
ENDBRANCH   7   8
ENDBRANCH   1   7
BRANCH   5  22
ATOM     22  C   UNL     1      48.100   7.794  11.624  0.00  0.00    +0.000 C 
BRANCH  22  23
ATOM     23  N   UNL     1      47.952   8.937  12.522  0.00  0.00    +0.000 N 
ATOM     24  C   UNL     1      49.020   9.101  13.443  0.00  0.00    +0.000 A 
ATOM     25  C   UNL     1      50.213   8.350  13.400  0.00  0.00    +0.000 A 
ATOM     26  N   UNL     1      51.273   8.504  14.238  0.00  0.00    +0.000 NA
ATOM     27  C   UNL     1      51.126   9.471  15.158  0.00  0.00    +0.000 A 
ATOM     28  C   UNL     1      49.971  10.222  15.241  0.00  0.00    +0.000 A 
ATOM     29  N   UNL     1      48.916  10.049  14.403  0.00  0.00    +0.000 NA
BRANCH  23  30
ATOM     30  C   UNL     1      46.636   9.217  13.129  0.00  0.00    +0.000 C 
BRANCH  30  31
ATOM     31  C   UNL     1      45.702   9.969  12.169  0.00  0.00    +0.000 C 
BRANCH  31  32
ATOM     32  O   UNL     1      44.358   9.941  12.656  0.00  0.00    +0.000 OA
ATOM     33  H   UNL     1      44.345  10.498  13.454  0.00  0.00    +0.000 HD
ENDBRANCH  31  32
ENDBRANCH  30  31
ENDBRANCH  23  30
ENDBRANCH  22  23
ENDBRANCH   5  22
TORSDOF 9
ENDMDL
MODEL 6
REMARK VINA RESULT:    -6.670      3.910      8.080
REMARK INTER + INTRA:         -11.103
REMARK INTER:                  -8.549
REMARK INTRA:                  -2.554
REMARK UNBOUND:                -1.119
REMARK  Name = 
REMARK  9 active torsions:
REMARK  status: ('A' for Active; 'I' for Inactive)
REMARK    1  A    between atoms: C_2  and  O_3
REMARK    2  A    between atoms: C_2  and  C_22
REMARK    3  A    between atoms: O_3  and  C_4
REMARK    4  A    between atoms: C_4  and  C_5
REMARK    5  A    between atoms: C_9  and  C_10
REMARK    6  A    between atoms: C_10  and  N_11
REMARK    7  A    between atoms: N_11  and  C_12
REMARK    8  A    between atoms: C_12  and  C_13
REMARK    9  A    between atoms: C_13  and  O_14
REMARK                            x       y       z     vdW  Elec       q    Type
REMARK                         _______ _______ _______ _____ _____    ______ ____
ROOT
ATOM      1  C   UNL     1      48.895   3.671  17.081  0.00  0.00    +0.000 A 
ATOM      2  C   UNL     1      49.857   2.653  17.153  0.00  0.00    +0.000 A 
ATOM      3  C   UNL     1      51.156   2.938  17.562  0.00  0.00    +0.000 A 
ATOM      4  C   UNL     1      51.525   4.251  17.844  0.00  0.00    +0.000 A 
ATOM      5  C   UNL     1      50.614   5.304  17.666  0.00  0.00    +0.000 A 
ATOM      6  C   UNL     1      49.282   4.999  17.336  0.00  0.00    +0.000 A 
ENDROOT
BRANCH   1   7
ATOM      7  C   UNL     1      47.473   3.328  16.715  0.00  0.00    +0.000 C 
BRANCH   7   8
ATOM      8  O   UNL     1      46.919   4.317  15.843  0.00  0.00    +0.000 OA
BRANCH   8  10
ATOM      9  O   UNL     1      47.323   2.955  14.052  0.00  0.00    +0.000 OA
ATOM     10  C   UNL     1      46.896   4.001  14.525  0.00  0.00    +0.000 C 
BRANCH  10  11
ATOM     11  C   UNL     1      46.242   5.023  13.715  0.00  0.00    +0.000 A 
ATOM     12  C   UNL     1      44.972   4.822  13.197  0.00  0.00    +0.000 A 
ATOM     13  S   UNL     1      44.375   6.170  12.337  0.00  0.00    +0.000 S 
ATOM     14  C   UNL     1      45.810   7.049  12.608  0.00  0.00    +0.000 A 
ATOM     15  N   UNL     1      45.956   8.315  12.133  0.00  0.00    +0.000 NA
ATOM     16  C   UNL     1      47.093   8.859  12.411  0.00  0.00    +0.000 A 
ATOM     17  N   UNL     1      48.103   8.249  13.110  0.00  0.00    +0.000 N 
ATOM     18  C   UNL     1      48.036   6.940  13.537  0.00  0.00    +0.000 A 
ATOM     19  O   UNL     1      49.025   6.379  13.994  0.00  0.00    +0.000 OA
ATOM     20  C   UNL     1      46.740   6.317  13.325  0.00  0.00    +0.000 A 
ATOM     21  H   UNL     1      48.989   8.710  13.246  0.00  0.00    +0.000 HD
ENDBRANCH  10  11
ENDBRANCH   8  10
ENDBRANCH   7   8
ENDBRANCH   1   7
BRANCH   5  22
ATOM     22  C   UNL     1      51.149   6.717  17.559  0.00  0.00    +0.000 C 
BRANCH  22  23
ATOM     23  N   UNL     1      50.433   7.700  16.750  0.00  0.00    +0.000 N 
ATOM     24  C   UNL     1      51.175   8.206  15.650  0.00  0.00    +0.000 A 
ATOM     25  C   UNL     1      52.425   7.692  15.246  0.00  0.00    +0.000 A 
ATOM     26  N   UNL     1      53.147   8.122  14.177  0.00  0.00    +0.000 NA
ATOM     27  C   UNL     1      52.574   9.112  13.474  0.00  0.00    +0.000 A 
ATOM     28  C   UNL     1      51.357   9.649  13.840  0.00  0.00    +0.000 A 
ATOM     29  N   UNL     1      50.652   9.217  14.917  0.00  0.00    +0.000 NA
BRANCH  23  30
ATOM     30  C   UNL     1      49.633   8.745  17.418  0.00  0.00    +0.000 C 
BRANCH  30  31
ATOM     31  C   UNL     1      48.124   8.539  17.217  0.00  0.00    +0.000 C 
BRANCH  31  32
ATOM     32  O   UNL     1      47.668   9.269  16.075  0.00  0.00    +0.000 OA
ATOM     33  H   UNL     1      46.711   9.395  16.196  0.00  0.00    +0.000 HD
ENDBRANCH  31  32
ENDBRANCH  30  31
ENDBRANCH  23  30
ENDBRANCH  22  23
ENDBRANCH   5  22
TORSDOF 9
ENDMDL
MODEL 7
REMARK VINA RESULT:    -6.557      3.631      8.293
REMARK INTER + INTRA:         -10.935
REMARK INTER:                  -9.430
REMARK INTRA:                  -1.504
REMARK UNBOUND:                -1.119
REMARK  Name = 
REMARK  9 active torsions:
REMARK  status: ('A' for Active; 'I' for Inactive)
REMARK    1  A    between atoms: C_2  and  O_3
REMARK    2  A    between atoms: C_2  and  C_22
REMARK    3  A    between atoms: O_3  and  C_4
REMARK    4  A    between atoms: C_4  and  C_5
REMARK    5  A    between atoms: C_9  and  C_10
REMARK    6  A    between atoms: C_10  and  N_11
REMARK    7  A    between atoms: N_11  and  C_12
REMARK    8  A    between atoms: C_12  and  C_13
REMARK    9  A    between atoms: C_13  and  O_14
REMARK                            x       y       z     vdW  Elec       q    Type
REMARK                         _______ _______ _______ _____ _____    ______ ____
ROOT
ATOM      1  C   UNL     1      48.778   3.704  17.052  0.00  0.00    +0.000 A 
ATOM      2  C   UNL     1      49.806   2.776  17.273  0.00  0.00    +0.000 A 
ATOM      3  C   UNL     1      51.073   3.206  17.655  0.00  0.00    +0.000 A 
ATOM      4  C   UNL     1      51.344   4.568  17.760  0.00  0.00    +0.000 A 
ATOM      5  C   UNL     1      50.367   5.520  17.430  0.00  0.00    +0.000 A 
ATOM      6  C   UNL     1      49.067   5.079  17.129  0.00  0.00    +0.000 A 
ENDROOT
BRANCH   1   7
ATOM      7  C   UNL     1      47.392   3.214  16.720  0.00  0.00    +0.000 C 
BRANCH   7   8
ATOM      8  O   UNL     1      46.715   4.139  15.865  0.00  0.00    +0.000 OA
BRANCH   8  10
ATOM      9  O   UNL     1      47.336   2.951  14.013  0.00  0.00    +0.000 OA
ATOM     10  C   UNL     1      46.922   3.979  14.535  0.00  0.00    +0.000 C 
BRANCH  10  11
ATOM     11  C   UNL     1      46.535   5.155  13.762  0.00  0.00    +0.000 A 
ATOM     12  C   UNL     1      47.365   6.262  13.680  0.00  0.00    +0.000 A 
ATOM     13  S   UNL     1      46.746   7.494  12.674  0.00  0.00    +0.000 S 
ATOM     14  C   UNL     1      45.338   6.594  12.344  0.00  0.00    +0.000 A 
ATOM     15  N   UNL     1      44.371   7.083  11.522  0.00  0.00    +0.000 NA
ATOM     16  C   UNL     1      43.360   6.296  11.363  0.00  0.00    +0.000 A 
ATOM     17  N   UNL     1      43.221   5.070  11.961  0.00  0.00    +0.000 N 
ATOM     18  C   UNL     1      44.131   4.569  12.867  0.00  0.00    +0.000 A 
ATOM     19  O   UNL     1      43.879   3.559  13.514  0.00  0.00    +0.000 OA
ATOM     20  C   UNL     1      45.328   5.381  13.009  0.00  0.00    +0.000 A 
ATOM     21  H   UNL     1      42.380   4.527  11.838  0.00  0.00    +0.000 HD
ENDBRANCH  10  11
ENDBRANCH   8  10
ENDBRANCH   7   8
ENDBRANCH   1   7
BRANCH   5  22
ATOM     22  C   UNL     1      50.805   6.939  17.137  0.00  0.00    +0.000 C 
BRANCH  22  23
ATOM     23  N   UNL     1      50.746   7.445  15.768  0.00  0.00    +0.000 N 
ATOM     24  C   UNL     1      52.015   7.696  15.181  0.00  0.00    +0.000 A 
ATOM     25  C   UNL     1      53.239   7.330  15.778  0.00  0.00    +0.000 A 
ATOM     26  N   UNL     1      54.471   7.517  15.232  0.00  0.00    +0.000 NA
ATOM     27  C   UNL     1      54.465   8.091  14.018  0.00  0.00    +0.000 A 
ATOM     28  C   UNL     1      53.290   8.473  13.403  0.00  0.00    +0.000 A 
ATOM     29  N   UNL     1      52.068   8.290  13.966  0.00  0.00    +0.000 NA
BRANCH  23  30
ATOM     30  C   UNL     1      49.750   8.476  15.418  0.00  0.00    +0.000 C 
BRANCH  30  31
ATOM     31  C   UNL     1      48.651   8.608  16.483  0.00  0.00    +0.000 C 
BRANCH  31  32
ATOM     32  O   UNL     1      47.524   9.310  15.953  0.00  0.00    +0.000 OA
ATOM     33  H   UNL     1      46.869   9.356  16.672  0.00  0.00    +0.000 HD
ENDBRANCH  31  32
ENDBRANCH  30  31
ENDBRANCH  23  30
ENDBRANCH  22  23
ENDBRANCH   5  22
TORSDOF 9
ENDMDL
MODEL 8
REMARK VINA RESULT:    -6.519      3.190      9.354
REMARK INTER + INTRA:         -10.877
REMARK INTER:                  -9.749
REMARK INTRA:                  -1.128
REMARK UNBOUND:                -1.119
REMARK  Name = 
REMARK  9 active torsions:
REMARK  status: ('A' for Active; 'I' for Inactive)
REMARK    1  A    between atoms: C_2  and  O_3
REMARK    2  A    between atoms: C_2  and  C_22
REMARK    3  A    between atoms: O_3  and  C_4
REMARK    4  A    between atoms: C_4  and  C_5
REMARK    5  A    between atoms: C_9  and  C_10
REMARK    6  A    between atoms: C_10  and  N_11
REMARK    7  A    between atoms: N_11  and  C_12
REMARK    8  A    between atoms: C_12  and  C_13
REMARK    9  A    between atoms: C_13  and  O_14
REMARK                            x       y       z     vdW  Elec       q    Type
REMARK                         _______ _______ _______ _____ _____    ______ ____
ROOT
ATOM      1  C   UNL     1      48.302   6.782  13.622  0.00  0.00    +0.000 A 
ATOM      2  C   UNL     1      49.461   7.561  13.494  0.00  0.00    +0.000 A 
ATOM      3  C   UNL     1      50.392   7.616  14.528  0.00  0.00    +0.000 A 
ATOM      4  C   UNL     1      50.146   6.942  15.722  0.00  0.00    +0.000 A 
ATOM      5  C   UNL     1      48.940   6.252  15.919  0.00  0.00    +0.000 A 
ATOM      6  C   UNL     1      48.045   6.130  14.842  0.00  0.00    +0.000 A 
ENDROOT
BRANCH   1   7
ATOM      7  C   UNL     1      47.348   6.671  12.460  0.00  0.00    +0.000 C 
BRANCH   7   8
ATOM      8  O   UNL     1      45.991   6.721  12.909  0.00  0.00    +0.000 OA
BRANCH   8  10
ATOM      9  O   UNL     1      44.608   7.572  11.300  0.00  0.00    +0.000 OA
ATOM     10  C   UNL     1      45.043   6.626  11.945  0.00  0.00    +0.000 C 
BRANCH  10  11
ATOM     11  C   UNL     1      44.626   5.249  11.703  0.00  0.00    +0.000 A 
ATOM     12  C   UNL     1      43.996   4.508  12.691  0.00  0.00    +0.000 A 
ATOM     13  S   UNL     1      43.539   2.947  12.172  0.00  0.00    +0.000 S 
ATOM     14  C   UNL     1      44.199   3.208  10.623  0.00  0.00    +0.000 A 
ATOM     15  N   UNL     1      44.136   2.245   9.664  0.00  0.00    +0.000 NA
ATOM     16  C   UNL     1      44.677   2.578   8.540  0.00  0.00    +0.000 A 
ATOM     17  N   UNL     1      45.286   3.782   8.291  0.00  0.00    +0.000 N 
ATOM     18  C   UNL     1      45.451   4.753   9.254  0.00  0.00    +0.000 A 
ATOM     19  O   UNL     1      46.159   5.731   9.042  0.00  0.00    +0.000 OA
ATOM     20  C   UNL     1      44.780   4.459  10.509  0.00  0.00    +0.000 A 
ATOM     21  H   UNL     1      45.739   3.958   7.408  0.00  0.00    +0.000 HD
ENDBRANCH  10  11
ENDBRANCH   8  10
ENDBRANCH   7   8
ENDBRANCH   1   7
BRANCH   5  22
ATOM     22  C   UNL     1      48.521   5.911  17.334  0.00  0.00    +0.000 C 
BRANCH  22  23
ATOM     23  N   UNL     1      49.306   4.952  18.108  0.00  0.00    +0.000 N 
ATOM     24  C   UNL     1      50.127   5.538  19.108  0.00  0.00    +0.000 A 
ATOM     25  C   UNL     1      50.075   6.902  19.463  0.00  0.00    +0.000 A 
ATOM     26  N   UNL     1      50.816   7.491  20.439  0.00  0.00    +0.000 NA
ATOM     27  C   UNL     1      51.640   6.661  21.097  0.00  0.00    +0.000 A 
ATOM     28  C   UNL     1      51.728   5.323  20.775  0.00  0.00    +0.000 A 
ATOM     29  N   UNL     1      50.990   4.750  19.790  0.00  0.00    +0.000 NA
BRANCH  23  30
ATOM     30  C   UNL     1      49.974   3.834  17.414  0.00  0.00    +0.000 C 
BRANCH  30  31
ATOM     31  C   UNL     1      49.023   2.653  17.166  0.00  0.00    +0.000 C 
BRANCH  31  32
ATOM     32  O   UNL     1      49.432   1.917  16.010  0.00  0.00    +0.000 OA
ATOM     33  H   UNL     1      49.123   2.425  15.240  0.00  0.00    +0.000 HD
ENDBRANCH  31  32
ENDBRANCH  30  31
ENDBRANCH  23  30
ENDBRANCH  22  23
ENDBRANCH   5  22
TORSDOF 9
ENDMDL
MODEL 9
REMARK VINA RESULT:    -6.436      3.208      5.658
REMARK INTER + INTRA:         -10.754
REMARK INTER:                  -9.239
REMARK INTRA:                  -1.515
REMARK UNBOUND:                -1.119
REMARK  Name = 
REMARK  9 active torsions:
REMARK  status: ('A' for Active; 'I' for Inactive)
REMARK    1  A    between atoms: C_2  and  O_3
REMARK    2  A    between atoms: C_2  and  C_22
REMARK    3  A    between atoms: O_3  and  C_4
REMARK    4  A    between atoms: C_4  and  C_5
REMARK    5  A    between atoms: C_9  and  C_10
REMARK    6  A    between atoms: C_10  and  N_11
REMARK    7  A    between atoms: N_11  and  C_12
REMARK    8  A    between atoms: C_12  and  C_13
REMARK    9  A    between atoms: C_13  and  O_14
REMARK                            x       y       z     vdW  Elec       q    Type
REMARK                         _______ _______ _______ _____ _____    ______ ____
ROOT
ATOM      1  C   UNL     1      46.697   5.147  13.573  0.00  0.00    +0.000 A 
ATOM      2  C   UNL     1      45.558   4.955  12.778  0.00  0.00    +0.000 A 
ATOM      3  C   UNL     1      45.337   5.753  11.658  0.00  0.00    +0.000 A 
ATOM      4  C   UNL     1      46.219   6.789  11.357  0.00  0.00    +0.000 A 
ATOM      5  C   UNL     1      47.301   7.077  12.203  0.00  0.00    +0.000 A 
ATOM      6  C   UNL     1      47.565   6.215  13.282  0.00  0.00    +0.000 A 
ENDROOT
BRANCH   1   7
ATOM      7  C   UNL     1      46.959   4.220  14.732  0.00  0.00    +0.000 C 
BRANCH   7   8
ATOM      8  O   UNL     1      47.946   4.770  15.611  0.00  0.00    +0.000 OA
BRANCH   8  10
ATOM      9  O   UNL     1      46.940   3.875  17.459  0.00  0.00    +0.000 OA
ATOM     10  C   UNL     1      47.933   4.303  16.884  0.00  0.00    +0.000 C 
BRANCH  10  11
ATOM     11  C   UNL     1      49.259   4.303  17.493  0.00  0.00    +0.000 A 
ATOM     12  C   UNL     1      49.725   5.405  18.194  0.00  0.00    +0.000 A 
ATOM     13  S   UNL     1      51.271   5.164  18.876  0.00  0.00    +0.000 S 
ATOM     14  C   UNL     1      51.373   3.592  18.227  0.00  0.00    +0.000 A 
ATOM     15  N   UNL     1      52.467   2.814  18.448  0.00  0.00    +0.000 NA
ATOM     16  C   UNL     1      52.410   1.648  17.896  0.00  0.00    +0.000 A 
ATOM     17  N   UNL     1      51.365   1.194  17.133  0.00  0.00    +0.000 N 
ATOM     18  C   UNL     1      50.276   1.975  16.810  0.00  0.00    +0.000 A 
ATOM     19  O   UNL     1      49.458   1.595  15.980  0.00  0.00    +0.000 OA
ATOM     20  C   UNL     1      50.255   3.263  17.482  0.00  0.00    +0.000 A 
ATOM     21  H   UNL     1      51.407   0.292  16.684  0.00  0.00    +0.000 HD
ENDBRANCH  10  11
ENDBRANCH   8  10
ENDBRANCH   7   8
ENDBRANCH   1   7
BRANCH   5  22
ATOM     22  C   UNL     1      47.964   8.434  12.098  0.00  0.00    +0.000 C 
BRANCH  22  23
ATOM     23  N   UNL     1      49.381   8.573  12.425  0.00  0.00    +0.000 N 
ATOM     24  C   UNL     1      49.636   9.242  13.652  0.00  0.00    +0.000 A 
ATOM     25  C   UNL     1      48.630   9.592  14.576  0.00  0.00    +0.000 A 
ATOM     26  N   UNL     1      48.838  10.198  15.776  0.00  0.00    +0.000 NA
ATOM     27  C   UNL     1      50.125  10.451  16.062  0.00  0.00    +0.000 A 
ATOM     28  C   UNL     1      51.139  10.133  15.182  0.00  0.00    +0.000 A 
ATOM     29  N   UNL     1      50.915   9.538  13.981  0.00  0.00    +0.000 NA
BRANCH  23  30
ATOM     30  C   UNL     1      50.336   8.953  11.366  0.00  0.00    +0.000 C 
BRANCH  30  31
ATOM     31  C   UNL     1      51.254   7.788  10.966  0.00  0.00    +0.000 C 
BRANCH  31  32
ATOM     32  O   UNL     1      52.269   7.590  11.954  0.00  0.00    +0.000 OA
ATOM     33  H   UNL     1      52.771   6.804  11.675  0.00  0.00    +0.000 HD
ENDBRANCH  31  32
ENDBRANCH  30  31
ENDBRANCH  23  30
ENDBRANCH  22  23
ENDBRANCH   5  22
TORSDOF 9
ENDMDL
