MODEL 1
REMARK VINA RESULT:    -8.470      0.000      0.000
REMARK INTER + INTRA:         -11.503
REMARK INTER:                 -10.946
REMARK INTRA:                  -0.557
REMARK UNBOUND:                -0.557
REMARK  Name = 
REMARK  6 active torsions:
REMARK  status: ('A' for Active; 'I' for Inactive)
REMARK    1  A    between atoms: C_1  and  C_2
REMARK    2  A    between atoms: C_6  and  C_7
REMARK    3  A    between atoms: C_7  and  C_8
REMARK    4  A    between atoms: C_11  and  C_12
REMARK    5  A    between atoms: C_12  and  N_13
REMARK    6  A    between atoms: C_14  and  C_16
REMARK                            x       y       z     vdW  Elec       q    Type
REMARK                         _______ _______ _______ _____ _____    ______ ____
ROOT
ATOM      1  C   UNL     1      46.571   7.542  12.957  0.00  0.00    +0.000 C 
ENDROOT
BRANCH   1   5
ATOM      2  C   UNL     1      44.905   4.525  10.436  0.00  0.00    +0.000 A 
ATOM      3  C   UNL     1      45.731   5.504   9.879  0.00  0.00    +0.000 A 
ATOM      4  C   UNL     1      46.279   6.493  10.691  0.00  0.00    +0.000 A 
ATOM      5  C   UNL     1      45.973   6.497  12.048  0.00  0.00    +0.000 A 
ATOM      6  N   UNL     1      45.168   5.562  12.615  0.00  0.00    +0.000 NA
ATOM      7  C   UNL     1      44.665   4.601  11.804  0.00  0.00    +0.000 A 
BRANCH   2   8
ATOM      8  C   UNL     1      44.337   3.412   9.601  0.00  0.00    +0.000 C 
BRANCH   8  14
ATOM      9  C   UNL     1      46.935  -0.434   7.635  0.00  0.00    +0.000 C 
ATOM     10  C   UNL     1      46.562   1.019   7.612  0.00  0.00    +0.000 A 
ATOM     11  C   UNL     1      47.100   1.885   6.656  0.00  0.00    +0.000 A 
ATOM     12  C   UNL     1      46.758   3.237   6.659  0.00  0.00    +0.000 A 
ATOM     13  C   UNL     1      45.869   3.733   7.614  0.00  0.00    +0.000 A 
ATOM     14  C   UNL     1      45.302   2.879   8.568  0.00  0.00    +0.000 A 
ATOM     15  C   UNL     1      45.665   1.524   8.564  0.00  0.00    +0.000 A 
ENDBRANCH   8  14
ENDBRANCH   2   8
ENDBRANCH   1   5
BRANCH   1  16
ATOM     16  N   UNL     1      47.108   6.972  14.172  0.00  0.00    +0.000 N 
ATOM     17  C   UNL     1      48.425   6.635  14.319  0.00  0.00    +0.000 C 
ATOM     18  O   UNL     1      49.245   6.794  13.419  0.00  0.00    +0.000 OA
ATOM     19  H   UNL     1      46.417   6.600  14.817  0.00  0.00    +0.000 HD
BRANCH  17  20
ATOM     20  C   UNL     1      48.829   6.148  15.647  0.00  0.00    +0.000 A 
ATOM     21  C   UNL     1      49.815   6.820  16.355  0.00  0.00    +0.000 A 
ATOM     22  S   UNL     1      50.108   6.173  17.906  0.00  0.00    +0.000 S 
ATOM     23  C   UNL     1      48.965   4.935  17.665  0.00  0.00    +0.000 A 
ATOM     24  N   UNL     1      48.730   3.999  18.627  0.00  0.00    +0.000 NA
ATOM     25  C   UNL     1      47.865   3.102  18.296  0.00  0.00    +0.000 A 
ATOM     26  N   UNL     1      47.210   3.053  17.095  0.00  0.00    +0.000 N 
ATOM     27  C   UNL     1      47.370   4.007  16.118  0.00  0.00    +0.000 A 
ATOM     28  O   UNL     1      46.697   3.985  15.095  0.00  0.00    +0.000 OA
ATOM     29  C   UNL     1      48.355   5.028  16.427  0.00  0.00    +0.000 A 
ATOM     30  H   UNL     1      46.530   2.333  16.902  0.00  0.00    +0.000 HD
ENDBRANCH  17  20
ENDBRANCH   1  16
TORSDOF 5
ENDMDL
MODEL 2
REMARK VINA RESULT:    -8.268      2.079      3.601
REMARK INTER + INTRA:         -11.242
REMARK INTER:                 -10.158
REMARK INTRA:                  -1.083
REMARK UNBOUND:                -0.557
REMARK  Name = 
REMARK  6 active torsions:
REMARK  status: ('A' for Active; 'I' for Inactive)
REMARK    1  A    between atoms: C_1  and  C_2
REMARK    2  A    between atoms: C_6  and  C_7
REMARK    3  A    between atoms: C_7  and  C_8
REMARK    4  A    between atoms: C_11  and  C_12
REMARK    5  A    between atoms: C_12  and  N_13
REMARK    6  A    between atoms: C_14  and  C_16
REMARK                            x       y       z     vdW  Elec       q    Type
REMARK                         _______ _______ _______ _____ _____    ______ ____
ROOT
ATOM      1  C   UNL     1      46.625   4.655  14.668  0.00  0.00    +0.000 C 
ENDROOT
BRANCH   1   5
ATOM      2  C   UNL     1      44.997   4.167  10.751  0.00  0.00    +0.000 A 
ATOM      3  C   UNL     1      45.542   5.400  11.117  0.00  0.00    +0.000 A 
ATOM      4  C   UNL     1      46.075   5.570  12.391  0.00  0.00    +0.000 A 
ATOM      5  C   UNL     1      46.034   4.506  13.287  0.00  0.00    +0.000 A 
ATOM      6  N   UNL     1      45.505   3.300  12.960  0.00  0.00    +0.000 NA
ATOM      7  C   UNL     1      45.011   3.158  11.707  0.00  0.00    +0.000 A 
BRANCH   2   8
ATOM      8  C   UNL     1      44.459   3.928   9.367  0.00  0.00    +0.000 C 
BRANCH   8  14
ATOM      9  C   UNL     1      46.782  -0.216   7.684  0.00  0.00    +0.000 C 
ATOM     10  C   UNL     1      46.581   1.270   7.618  0.00  0.00    +0.000 A 
ATOM     11  C   UNL     1      47.305   2.055   6.717  0.00  0.00    +0.000 A 
ATOM     12  C   UNL     1      47.122   3.437   6.680  0.00  0.00    +0.000 A 
ATOM     13  C   UNL     1      46.206   4.045   7.541  0.00  0.00    +0.000 A 
ATOM     14  C   UNL     1      45.454   3.275   8.437  0.00  0.00    +0.000 A 
ATOM     15  C   UNL     1      45.658   1.887   8.474  0.00  0.00    +0.000 A 
ENDBRANCH   8  14
ENDBRANCH   2   8
ENDBRANCH   1   5
BRANCH   1  16
ATOM     16  N   UNL     1      47.405   5.864  14.804  0.00  0.00    +0.000 N 
ATOM     17  C   UNL     1      48.485   5.965  15.636  0.00  0.00    +0.000 C 
ATOM     18  O   UNL     1      48.865   5.026  16.332  0.00  0.00    +0.000 OA
ATOM     19  H   UNL     1      46.964   6.706  14.447  0.00  0.00    +0.000 HD
BRANCH  17  20
ATOM     20  C   UNL     1      49.225   7.236  15.593  0.00  0.00    +0.000 A 
ATOM     21  C   UNL     1      49.446   7.943  16.766  0.00  0.00    +0.000 A 
ATOM     22  S   UNL     1      50.383   9.351  16.552  0.00  0.00    +0.000 S 
ATOM     23  C   UNL     1      50.482   9.097  14.871  0.00  0.00    +0.000 A 
ATOM     24  N   UNL     1      51.148   9.970  14.067  0.00  0.00    +0.000 NA
ATOM     25  C   UNL     1      51.113   9.672  12.813  0.00  0.00    +0.000 A 
ATOM     26  N   UNL     1      50.473   8.581  12.287  0.00  0.00    +0.000 N 
ATOM     27  C   UNL     1      49.838   7.642  13.064  0.00  0.00    +0.000 A 
ATOM     28  O   UNL     1      49.359   6.629  12.570  0.00  0.00    +0.000 OA
ATOM     29  C   UNL     1      49.824   7.943  14.485  0.00  0.00    +0.000 A 
ATOM     30  H   UNL     1      50.495   8.394  11.296  0.00  0.00    +0.000 HD
ENDBRANCH  17  20
ENDBRANCH   1  16
TORSDOF 5
ENDMDL
MODEL 3
REMARK VINA RESULT:    -8.250      1.611      2.622
REMARK INTER + INTRA:         -11.220
REMARK INTER:                 -11.214
REMARK INTRA:                  -0.005
REMARK UNBOUND:                -0.557
REMARK  Name = 
REMARK  6 active torsions:
REMARK  status: ('A' for Active; 'I' for Inactive)
REMARK    1  A    between atoms: C_1  and  C_2
REMARK    2  A    between atoms: C_6  and  C_7
REMARK    3  A    between atoms: C_7  and  C_8
REMARK    4  A    between atoms: C_11  and  C_12
REMARK    5  A    between atoms: C_12  and  N_13
REMARK    6  A    between atoms: C_14  and  C_16
REMARK                            x       y       z     vdW  Elec       q    Type
REMARK                         _______ _______ _______ _____ _____    ______ ____
ROOT
ATOM      1  C   UNL     1      44.418   4.260  12.776  0.00  0.00    +0.000 C 
ENDROOT
BRANCH   1   5
ATOM      2  C   UNL     1      45.679   4.318   8.697  0.00  0.00    +0.000 A 
ATOM      3  C   UNL     1      45.959   5.415   9.515  0.00  0.00    +0.000 A 
ATOM      4  C   UNL     1      45.552   5.407  10.847  0.00  0.00    +0.000 A 
ATOM      5  C   UNL     1      44.852   4.307  11.331  0.00  0.00    +0.000 A 
ATOM      6  N   UNL     1      44.561   3.231  10.556  0.00  0.00    +0.000 NA
ATOM      7  C   UNL     1      44.985   3.258   9.271  0.00  0.00    +0.000 A 
BRANCH   2   8
ATOM      8  C   UNL     1      46.146   4.267   7.269  0.00  0.00    +0.000 C 
BRANCH   8  14
ATOM      9  C   UNL     1      46.902   0.967   3.535  0.00  0.00    +0.000 C 
ATOM     10  C   UNL     1      46.896   1.278   5.002  0.00  0.00    +0.000 A 
ATOM     11  C   UNL     1      47.230   0.303   5.946  0.00  0.00    +0.000 A 
ATOM     12  C   UNL     1      47.202   0.602   7.308  0.00  0.00    +0.000 A 
ATOM     13  C   UNL     1      46.846   1.881   7.737  0.00  0.00    +0.000 A 
ATOM     14  C   UNL     1      46.528   2.880   6.808  0.00  0.00    +0.000 A 
ATOM     15  C   UNL     1      46.546   2.563   5.441  0.00  0.00    +0.000 A 
ENDBRANCH   8  14
ENDBRANCH   2   8
ENDBRANCH   1   5
BRANCH   1  16
ATOM     16  N   UNL     1      45.374   4.893  13.657  0.00  0.00    +0.000 N 
ATOM     17  C   UNL     1      46.500   4.265  14.111  0.00  0.00    +0.000 C 
ATOM     18  O   UNL     1      46.774   3.108  13.801  0.00  0.00    +0.000 OA
ATOM     19  H   UNL     1      45.043   5.733  14.122  0.00  0.00    +0.000 HD
BRANCH  17  20
ATOM     20  C   UNL     1      47.415   5.077  14.929  0.00  0.00    +0.000 A 
ATOM     21  C   UNL     1      48.098   6.136  14.349  0.00  0.00    +0.000 A 
ATOM     22  S   UNL     1      49.055   7.019  15.450  0.00  0.00    +0.000 S 
ATOM     23  C   UNL     1      48.634   5.984  16.733  0.00  0.00    +0.000 A 
ATOM     24  N   UNL     1      49.137   6.175  17.984  0.00  0.00    +0.000 NA
ATOM     25  C   UNL     1      48.760   5.296  18.849  0.00  0.00    +0.000 A 
ATOM     26  N   UNL     1      47.926   4.243  18.581  0.00  0.00    +0.000 N 
ATOM     27  C   UNL     1      47.348   4.044  17.350  0.00  0.00    +0.000 A 
ATOM     28  O   UNL     1      46.532   3.148  17.171  0.00  0.00    +0.000 OA
ATOM     29  C   UNL     1      47.760   4.990  16.329  0.00  0.00    +0.000 A 
ATOM     30  H   UNL     1      47.655   3.597  19.307  0.00  0.00    +0.000 HD
ENDBRANCH  17  20
ENDBRANCH   1  16
TORSDOF 5
ENDMDL
MODEL 4
REMARK VINA RESULT:    -8.011      1.256      1.952
REMARK INTER + INTRA:         -10.910
REMARK INTER:                  -9.827
REMARK INTRA:                  -1.083
REMARK UNBOUND:                -0.557
REMARK  Name = 
REMARK  6 active torsions:
REMARK  status: ('A' for Active; 'I' for Inactive)
REMARK    1  A    between atoms: C_1  and  C_2
REMARK    2  A    between atoms: C_6  and  C_7
REMARK    3  A    between atoms: C_7  and  C_8
REMARK    4  A    between atoms: C_11  and  C_12
REMARK    5  A    between atoms: C_12  and  N_13
REMARK    6  A    between atoms: C_14  and  C_16
REMARK                            x       y       z     vdW  Elec       q    Type
REMARK                         _______ _______ _______ _____ _____    ______ ____
ROOT
ATOM      1  C   UNL     1      47.345   8.312  13.679  0.00  0.00    +0.000 C 
ENDROOT
BRANCH   1   5
ATOM      2  C   UNL     1      44.798   5.883  11.261  0.00  0.00    +0.000 A 
ATOM      3  C   UNL     1      45.820   5.281  11.998  0.00  0.00    +0.000 A 
ATOM      4  C   UNL     1      46.657   6.063  12.790  0.00  0.00    +0.000 A 
ATOM      5  C   UNL     1      46.468   7.441  12.813  0.00  0.00    +0.000 A 
ATOM      6  N   UNL     1      45.487   8.053  12.101  0.00  0.00    +0.000 NA
ATOM      7  C   UNL     1      44.677   7.265  11.355  0.00  0.00    +0.000 A 
BRANCH   2   8
ATOM      8  C   UNL     1      43.842   5.067  10.436  0.00  0.00    +0.000 C 
BRANCH   8  14
ATOM      9  C   UNL     1      46.872   3.754   6.627  0.00  0.00    +0.000 C 
ATOM     10  C   UNL     1      45.987   3.354   7.771  0.00  0.00    +0.000 A 
ATOM     11  C   UNL     1      45.775   2.008   8.080  0.00  0.00    +0.000 A 
ATOM     12  C   UNL     1      44.935   1.651   9.135  0.00  0.00    +0.000 A 
ATOM     13  C   UNL     1      44.305   2.639   9.893  0.00  0.00    +0.000 A 
ATOM     14  C   UNL     1      44.519   3.995   9.614  0.00  0.00    +0.000 A 
ATOM     15  C   UNL     1      45.356   4.341   8.542  0.00  0.00    +0.000 A 
ENDBRANCH   8  14
ENDBRANCH   2   8
ENDBRANCH   1   5
BRANCH   1  16
ATOM     16  N   UNL     1      47.747   7.647  14.897  0.00  0.00    +0.000 N 
ATOM     17  C   UNL     1      49.042   7.301  15.166  0.00  0.00    +0.000 C 
ATOM     18  O   UNL     1      49.958   7.533  14.381  0.00  0.00    +0.000 OA
ATOM     19  H   UNL     1      46.992   7.223  15.428  0.00  0.00    +0.000 HD
BRANCH  17  20
ATOM     20  C   UNL     1      49.298   6.710  16.489  0.00  0.00    +0.000 A 
ATOM     21  C   UNL     1      50.051   7.410  17.421  0.00  0.00    +0.000 A 
ATOM     22  S   UNL     1      50.188   6.619  18.925  0.00  0.00    +0.000 S 
ATOM     23  C   UNL     1      49.290   5.285  18.368  0.00  0.00    +0.000 A 
ATOM     24  N   UNL     1      49.046   4.216  19.176  0.00  0.00    +0.000 NA
ATOM     25  C   UNL     1      48.383   3.263  18.612  0.00  0.00    +0.000 A 
ATOM     26  N   UNL     1      47.940   3.280  17.317  0.00  0.00    +0.000 N 
ATOM     27  C   UNL     1      48.111   4.359  16.483  0.00  0.00    +0.000 A 
ATOM     28  O   UNL     1      47.619   4.378  15.362  0.00  0.00    +0.000 OA
ATOM     29  C   UNL     1      48.876   5.451  17.058  0.00  0.00    +0.000 A 
ATOM     30  H   UNL     1      47.412   2.508  16.938  0.00  0.00    +0.000 HD
ENDBRANCH  17  20
ENDBRANCH   1  16
TORSDOF 5
ENDMDL
MODEL 5
REMARK VINA RESULT:    -7.796      2.381      4.117
REMARK INTER + INTRA:         -10.632
REMARK INTER:                  -9.683
REMARK INTRA:                  -0.949
REMARK UNBOUND:                -0.557
REMARK  Name = 
REMARK  6 active torsions:
REMARK  status: ('A' for Active; 'I' for Inactive)
REMARK    1  A    between atoms: C_1  and  C_2
REMARK    2  A    between atoms: C_6  and  C_7
REMARK    3  A    between atoms: C_7  and  C_8
REMARK    4  A    between atoms: C_11  and  C_12
REMARK    5  A    between atoms: C_12  and  N_13
REMARK    6  A    between atoms: C_14  and  C_16
REMARK                            x       y       z     vdW  Elec       q    Type
REMARK                         _______ _______ _______ _____ _____    ______ ____
ROOT
ATOM      1  C   UNL     1      46.835   5.074  14.406  0.00  0.00    +0.000 C 
ENDROOT
BRANCH   1   5
ATOM      2  C   UNL     1      45.026   4.275  10.622  0.00  0.00    +0.000 A 
ATOM      3  C   UNL     1      45.665   5.500  10.830  0.00  0.00    +0.000 A 
ATOM      4  C   UNL     1      46.257   5.771  12.060  0.00  0.00    +0.000 A 
ATOM      5  C   UNL     1      46.182   4.817  13.070  0.00  0.00    +0.000 A 
ATOM      6  N   UNL     1      45.561   3.622  12.897  0.00  0.00    +0.000 NA
ATOM      7  C   UNL     1      45.010   3.379  11.684  0.00  0.00    +0.000 A 
BRANCH   2   8
ATOM      8  C   UNL     1      44.419   3.926   9.291  0.00  0.00    +0.000 C 
BRANCH   8  14
ATOM      9  C   UNL     1      47.355   3.212   5.257  0.00  0.00    +0.000 C 
ATOM     10  C   UNL     1      46.713   2.670   6.499  0.00  0.00    +0.000 A 
ATOM     11  C   UNL     1      46.901   1.340   6.885  0.00  0.00    +0.000 A 
ATOM     12  C   UNL     1      46.283   0.844   8.032  0.00  0.00    +0.000 A 
ATOM     13  C   UNL     1      45.475   1.678   8.808  0.00  0.00    +0.000 A 
ATOM     14  C   UNL     1      45.289   3.019   8.452  0.00  0.00    +0.000 A 
ATOM     15  C   UNL     1      45.906   3.502   7.287  0.00  0.00    +0.000 A 
ENDBRANCH   8  14
ENDBRANCH   2   8
ENDBRANCH   1   5
BRANCH   1  16
ATOM     16  N   UNL     1      47.505   6.354  14.453  0.00  0.00    +0.000 N 
ATOM     17  C   UNL     1      48.607   6.591  15.226  0.00  0.00    +0.000 C 
ATOM     18  O   UNL     1      49.103   5.724  15.941  0.00  0.00    +0.000 OA
ATOM     19  H   UNL     1      46.972   7.135  14.082  0.00  0.00    +0.000 HD
BRANCH  17  20
ATOM     20  C   UNL     1      49.223   7.920  15.093  0.00  0.00    +0.000 A 
ATOM     21  C   UNL     1      49.367   8.727  16.212  0.00  0.00    +0.000 A 
ATOM     22  S   UNL     1      50.167  10.200  15.899  0.00  0.00    +0.000 S 
ATOM     23  C   UNL     1      50.304   9.837  14.242  0.00  0.00    +0.000 A 
ATOM     24  N   UNL     1      50.891  10.710  13.378  0.00  0.00    +0.000 NA
ATOM     25  C   UNL     1      50.895  10.321  12.148  0.00  0.00    +0.000 A 
ATOM     26  N   UNL     1      50.366   9.139  11.701  0.00  0.00    +0.000 N 
ATOM     27  C   UNL     1      49.817   8.202  12.543  0.00  0.00    +0.000 A 
ATOM     28  O   UNL     1      49.440   7.115  12.121  0.00  0.00    +0.000 OA
ATOM     29  C   UNL     1      49.762   8.600  13.937  0.00  0.00    +0.000 A 
ATOM     30  H   UNL     1      50.414   8.884  10.726  0.00  0.00    +0.000 HD
ENDBRANCH  17  20
ENDBRANCH   1  16
TORSDOF 5
ENDMDL
MODEL 6
REMARK VINA RESULT:    -7.671      3.939      9.836
REMARK INTER + INTRA:         -10.471
REMARK INTER:                  -9.321
REMARK INTRA:                  -1.150
REMARK UNBOUND:                -0.557
REMARK  Name = 
REMARK  6 active torsions:
REMARK  status: ('A' for Active; 'I' for Inactive)
REMARK    1  A    between atoms: C_1  and  C_2
REMARK    2  A    between atoms: C_6  and  C_7
REMARK    3  A    between atoms: C_7  and  C_8
REMARK    4  A    between atoms: C_11  and  C_12
REMARK    5  A    between atoms: C_12  and  N_13
REMARK    6  A    between atoms: C_14  and  C_16
REMARK                            x       y       z     vdW  Elec       q    Type
REMARK                         _______ _______ _______ _____ _____    ______ ____
ROOT
ATOM      1  C   UNL     1      47.860   4.203  16.214  0.00  0.00    +0.000 C 
ENDROOT
BRANCH   1   5
ATOM      2  C   UNL     1      48.340   6.930  19.465  0.00  0.00    +0.000 A 
ATOM      3  C   UNL     1      47.190   6.139  19.399  0.00  0.00    +0.000 A 
ATOM      4  C   UNL     1      47.023   5.247  18.343  0.00  0.00    +0.000 A 
ATOM      5  C   UNL     1      48.003   5.177  17.358  0.00  0.00    +0.000 A 
ATOM      6  N   UNL     1      49.126   5.939  17.394  0.00  0.00    +0.000 NA
ATOM      7  C   UNL     1      49.270   6.784  18.443  0.00  0.00    +0.000 A 
BRANCH   2   8
ATOM      8  C   UNL     1      48.580   7.867  20.616  0.00  0.00    +0.000 C 
BRANCH   8  14
ATOM      9  C   UNL     1      47.047  12.170  18.486  0.00  0.00    +0.000 C 
ATOM     10  C   UNL     1      46.921  11.156  19.584  0.00  0.00    +0.000 A 
ATOM     11  C   UNL     1      45.980  11.314  20.605  0.00  0.00    +0.000 A 
ATOM     12  C   UNL     1      45.887  10.372  21.630  0.00  0.00    +0.000 A 
ATOM     13  C   UNL     1      46.731   9.260  21.638  0.00  0.00    +0.000 A 
ATOM     14  C   UNL     1      47.667   9.072  20.613  0.00  0.00    +0.000 A 
ATOM     15  C   UNL     1      47.761  10.033  19.596  0.00  0.00    +0.000 A 
ENDBRANCH   8  14
ENDBRANCH   2   8
ENDBRANCH   1   5
BRANCH   1  16
ATOM     16  N   UNL     1      46.942   4.676  15.203  0.00  0.00    +0.000 N 
ATOM     17  C   UNL     1      47.326   5.473  14.161  0.00  0.00    +0.000 C 
ATOM     18  O   UNL     1      48.487   5.848  14.017  0.00  0.00    +0.000 OA
ATOM     19  H   UNL     1      45.958   4.597  15.441  0.00  0.00    +0.000 HD
BRANCH  17  20
ATOM     20  C   UNL     1      46.288   5.794  13.169  0.00  0.00    +0.000 A 
ATOM     21  C   UNL     1      46.020   7.119  12.857  0.00  0.00    +0.000 A 
ATOM     22  S   UNL     1      44.847   7.313  11.635  0.00  0.00    +0.000 S 
ATOM     23  C   UNL     1      44.613   5.631  11.516  0.00  0.00    +0.000 A 
ATOM     24  N   UNL     1      43.707   5.109  10.644  0.00  0.00    +0.000 NA
ATOM     25  C   UNL     1      43.610   3.823  10.684  0.00  0.00    +0.000 A 
ATOM     26  N   UNL     1      44.335   3.011  11.514  0.00  0.00    +0.000 N 
ATOM     27  C   UNL     1      45.301   3.487  12.368  0.00  0.00    +0.000 A 
ATOM     28  O   UNL     1      45.997   2.725  13.027  0.00  0.00    +0.000 OA
ATOM     29  C   UNL     1      45.433   4.933  12.384  0.00  0.00    +0.000 A 
ATOM     30  H   UNL     1      44.224   2.008  11.488  0.00  0.00    +0.000 HD
ENDBRANCH  17  20
ENDBRANCH   1  16
TORSDOF 5
ENDMDL
MODEL 7
REMARK VINA RESULT:    -7.408      2.695      3.895
REMARK INTER + INTRA:         -10.130
REMARK INTER:                  -9.412
REMARK INTRA:                  -0.719
REMARK UNBOUND:                -0.557
REMARK  Name = 
REMARK  6 active torsions:
REMARK  status: ('A' for Active; 'I' for Inactive)
REMARK    1  A    between atoms: C_1  and  C_2
REMARK    2  A    between atoms: C_6  and  C_7
REMARK    3  A    between atoms: C_7  and  C_8
REMARK    4  A    between atoms: C_11  and  C_12
REMARK    5  A    between atoms: C_12  and  N_13
REMARK    6  A    between atoms: C_14  and  C_16
REMARK                            x       y       z     vdW  Elec       q    Type
REMARK                         _______ _______ _______ _____ _____    ______ ____
ROOT
ATOM      1  C   UNL     1      46.861   5.059  14.431  0.00  0.00    +0.000 C 
ENDROOT
BRANCH   1   5
ATOM      2  C   UNL     1      44.987   4.195  10.693  0.00  0.00    +0.000 A 
ATOM      3  C   UNL     1      45.626   5.424  10.870  0.00  0.00    +0.000 A 
ATOM      4  C   UNL     1      46.240   5.717  12.085  0.00  0.00    +0.000 A 
ATOM      5  C   UNL     1      46.185   4.779  13.111  0.00  0.00    +0.000 A 
ATOM      6  N   UNL     1      45.565   3.579  12.968  0.00  0.00    +0.000 NA
ATOM      7  C   UNL     1      44.993   3.315  11.770  0.00  0.00    +0.000 A 
BRANCH   2   8
ATOM      8  C   UNL     1      44.358   3.822   9.379  0.00  0.00    +0.000 C 
BRANCH   8  14
ATOM      9  C   UNL     1      47.261   3.351   5.286  0.00  0.00    +0.000 C 
ATOM     10  C   UNL     1      46.660   2.745   6.520  0.00  0.00    +0.000 A 
ATOM     11  C   UNL     1      46.908   1.413   6.862  0.00  0.00    +0.000 A 
ATOM     12  C   UNL     1      46.326   0.858   8.002  0.00  0.00    +0.000 A 
ATOM     13  C   UNL     1      45.497   1.634   8.814  0.00  0.00    +0.000 A 
ATOM     14  C   UNL     1      45.252   2.977   8.501  0.00  0.00    +0.000 A 
ATOM     15  C   UNL     1      45.831   3.520   7.344  0.00  0.00    +0.000 A 
ENDBRANCH   8  14
ENDBRANCH   2   8
ENDBRANCH   1   5
BRANCH   1  16
ATOM     16  N   UNL     1      47.420   6.390  14.490  0.00  0.00    +0.000 N 
ATOM     17  C   UNL     1      48.567   6.689  15.172  0.00  0.00    +0.000 C 
ATOM     18  O   UNL     1      49.202   5.837  15.788  0.00  0.00    +0.000 OA
ATOM     19  H   UNL     1      46.788   7.137  14.215  0.00  0.00    +0.000 HD
BRANCH  17  20
ATOM     20  C   UNL     1      49.050   8.074  15.060  0.00  0.00    +0.000 A 
ATOM     21  C   UNL     1      49.655   8.498  13.886  0.00  0.00    +0.000 A 
ATOM     22  S   UNL     1      50.087  10.148  13.894  0.00  0.00    +0.000 S 
ATOM     23  C   UNL     1      49.529  10.343  15.490  0.00  0.00    +0.000 A 
ATOM     24  N   UNL     1      49.620  11.545  16.124  0.00  0.00    +0.000 NA
ATOM     25  C   UNL     1      49.191  11.539  17.340  0.00  0.00    +0.000 A 
ATOM     26  N   UNL     1      48.677  10.445  17.982  0.00  0.00    +0.000 N 
ATOM     27  C   UNL     1      48.511   9.227  17.365  0.00  0.00    +0.000 A 
ATOM     28  O   UNL     1      47.960   8.296  17.939  0.00  0.00    +0.000 OA
ATOM     29  C   UNL     1      49.004   9.169  16.001  0.00  0.00    +0.000 A 
ATOM     30  H   UNL     1      48.343  10.508  18.932  0.00  0.00    +0.000 HD
ENDBRANCH  17  20
ENDBRANCH   1  16
TORSDOF 5
ENDMDL
MODEL 8
REMARK VINA RESULT:    -7.284      3.951      9.247
REMARK INTER + INTRA:          -9.971
REMARK INTER:                  -9.078
REMARK INTRA:                  -0.893
REMARK UNBOUND:                -0.557
REMARK  Name = 
REMARK  6 active torsions:
REMARK  status: ('A' for Active; 'I' for Inactive)
REMARK    1  A    between atoms: C_1  and  C_2
REMARK    2  A    between atoms: C_6  and  C_7
REMARK    3  A    between atoms: C_7  and  C_8
REMARK    4  A    between atoms: C_11  and  C_12
REMARK    5  A    between atoms: C_12  and  N_13
REMARK    6  A    between atoms: C_14  and  C_16
REMARK                            x       y       z     vdW  Elec       q    Type
REMARK                         _______ _______ _______ _____ _____    ______ ____
ROOT
ATOM      1  C   UNL     1      47.283   3.271  16.860  0.00  0.00    +0.000 C 
ENDROOT
BRANCH   1   5
ATOM      2  C   UNL     1      51.453   2.931  17.713  0.00  0.00    +0.000 A 
ATOM      3  C   UNL     1      50.749   4.047  18.171  0.00  0.00    +0.000 A 
ATOM      4  C   UNL     1      49.389   4.169  17.899  0.00  0.00    +0.000 A 
ATOM      5  C   UNL     1      48.761   3.178  17.152  0.00  0.00    +0.000 A 
ATOM      6  N   UNL     1      49.422   2.086  16.688  0.00  0.00    +0.000 NA
ATOM      7  C   UNL     1      50.739   1.986  16.985  0.00  0.00    +0.000 A 
BRANCH   2   8
ATOM      8  C   UNL     1      52.910   2.739  18.031  0.00  0.00    +0.000 C 
BRANCH   8  14
ATOM      9  C   UNL     1      55.172   6.875  16.248  0.00  0.00    +0.000 C 
ATOM     10  C   UNL     1      54.745   6.039  17.418  0.00  0.00    +0.000 A 
ATOM     11  C   UNL     1      55.026   6.437  18.728  0.00  0.00    +0.000 A 
ATOM     12  C   UNL     1      54.639   5.640  19.805  0.00  0.00    +0.000 A 
ATOM     13  C   UNL     1      53.960   4.441  19.581  0.00  0.00    +0.000 A 
ATOM     14  C   UNL     1      53.649   4.034  18.277  0.00  0.00    +0.000 A 
ATOM     15  C   UNL     1      54.056   4.837  17.201  0.00  0.00    +0.000 A 
ENDBRANCH   8  14
ENDBRANCH   2   8
ENDBRANCH   1   5
BRANCH   1  16
ATOM     16  N   UNL     1      46.978   4.300  15.892  0.00  0.00    +0.000 N 
ATOM     17  C   UNL     1      46.993   4.084  14.542  0.00  0.00    +0.000 C 
ATOM     18  O   UNL     1      47.272   2.989  14.059  0.00  0.00    +0.000 OA
ATOM     19  H   UNL     1      47.001   5.251  16.250  0.00  0.00    +0.000 HD
BRANCH  17  20
ATOM     20  C   UNL     1      46.573   5.212  13.696  0.00  0.00    +0.000 A 
ATOM     21  C   UNL     1      47.434   6.281  13.499  0.00  0.00    +0.000 A 
ATOM     22  S   UNL     1      46.826   7.465  12.433  0.00  0.00    +0.000 S 
ATOM     23  C   UNL     1      45.364   6.616  12.237  0.00  0.00    +0.000 A 
ATOM     24  N   UNL     1      44.370   7.103  11.443  0.00  0.00    +0.000 NA
ATOM     25  C   UNL     1      43.307   6.374  11.415  0.00  0.00    +0.000 A 
ATOM     26  N   UNL     1      43.143   5.203  12.105  0.00  0.00    +0.000 N 
ATOM     27  C   UNL     1      44.138   4.643  12.872  0.00  0.00    +0.000 A 
ATOM     28  O   UNL     1      43.991   3.548  13.398  0.00  0.00    +0.000 OA
ATOM     29  C   UNL     1      45.350   5.437  12.961  0.00  0.00    +0.000 A 
ATOM     30  H   UNL     1      42.290   4.669  12.029  0.00  0.00    +0.000 HD
ENDBRANCH  17  20
ENDBRANCH   1  16
TORSDOF 5
ENDMDL
MODEL 9
REMARK VINA RESULT:    -7.247      3.896      9.763
REMARK INTER + INTRA:          -9.923
REMARK INTER:                  -9.011
REMARK INTRA:                  -0.912
REMARK UNBOUND:                -0.557
REMARK  Name = 
REMARK  6 active torsions:
REMARK  status: ('A' for Active; 'I' for Inactive)
REMARK    1  A    between atoms: C_1  and  C_2
REMARK    2  A    between atoms: C_6  and  C_7
REMARK    3  A    between atoms: C_7  and  C_8
REMARK    4  A    between atoms: C_11  and  C_12
REMARK    5  A    between atoms: C_12  and  N_13
REMARK    6  A    between atoms: C_14  and  C_16
REMARK                            x       y       z     vdW  Elec       q    Type
REMARK                         _______ _______ _______ _____ _____    ______ ____
ROOT
ATOM      1  C   UNL     1      47.411   3.588  16.687  0.00  0.00    +0.000 C 
ENDROOT
BRANCH   1   5
ATOM      2  C   UNL     1      50.690   5.228  18.875  0.00  0.00    +0.000 A 
ATOM      3  C   UNL     1      49.662   4.581  19.565  0.00  0.00    +0.000 A 
ATOM      4  C   UNL     1      48.588   4.043  18.862  0.00  0.00    +0.000 A 
ATOM      5  C   UNL     1      48.551   4.181  17.478  0.00  0.00    +0.000 A 
ATOM      6  N   UNL     1      49.533   4.810  16.783  0.00  0.00    +0.000 NA
ATOM      7  C   UNL     1      50.575   5.307  17.492  0.00  0.00    +0.000 A 
BRANCH   2   8
ATOM      8  C   UNL     1      51.891   5.776  19.595  0.00  0.00    +0.000 C 
BRANCH   8  14
ATOM      9  C   UNL     1      54.801   1.694  19.072  0.00  0.00    +0.000 C 
ATOM     10  C   UNL     1      54.178   2.731  19.959  0.00  0.00    +0.000 A 
ATOM     11  C   UNL     1      54.389   2.717  21.340  0.00  0.00    +0.000 A 
ATOM     12  C   UNL     1      53.787   3.677  22.154  0.00  0.00    +0.000 A 
ATOM     13  C   UNL     1      52.975   4.663  21.592  0.00  0.00    +0.000 A 
ATOM     14  C   UNL     1      52.767   4.708  20.208  0.00  0.00    +0.000 A 
ATOM     15  C   UNL     1      53.366   3.728  19.401  0.00  0.00    +0.000 A 
ENDBRANCH   8  14
ENDBRANCH   2   8
ENDBRANCH   1   5
BRANCH   1  16
ATOM     16  N   UNL     1      46.891   4.507  15.700  0.00  0.00    +0.000 N 
ATOM     17  C   UNL     1      46.840   4.217  14.365  0.00  0.00    +0.000 C 
ATOM     18  O   UNL     1      47.239   3.147  13.912  0.00  0.00    +0.000 OA
ATOM     19  H   UNL     1      46.802   5.470  16.010  0.00  0.00    +0.000 HD
BRANCH  17  20
ATOM     20  C   UNL     1      46.202   5.225  13.503  0.00  0.00    +0.000 A 
ATOM     21  C   UNL     1      46.864   6.412  13.226  0.00  0.00    +0.000 A 
ATOM     22  S   UNL     1      46.020   7.434  12.152  0.00  0.00    +0.000 S 
ATOM     23  C   UNL     1      44.712   6.349  12.061  0.00  0.00    +0.000 A 
ATOM     24  N   UNL     1      43.617   6.632  11.302  0.00  0.00    +0.000 NA
ATOM     25  C   UNL     1      42.689   5.738  11.353  0.00  0.00    +0.000 A 
ATOM     26  N   UNL     1      42.753   4.586  12.091  0.00  0.00    +0.000 N 
ATOM     27  C   UNL     1      43.860   4.230  12.824  0.00  0.00    +0.000 A 
ATOM     28  O   UNL     1      43.920   3.149  13.395  0.00  0.00    +0.000 OA
ATOM     29  C   UNL     1      44.926   5.215  12.824  0.00  0.00    +0.000 A 
ATOM     30  H   UNL     1      41.998   3.917  12.077  0.00  0.00    +0.000 HD
ENDBRANCH  17  20
ENDBRANCH   1  16
TORSDOF 5
ENDMDL
