MODEL 1
REMARK VINA RESULT:    -7.863      0.000      0.000
REMARK INTER + INTRA:         -11.520
REMARK INTER:                 -10.621
REMARK INTRA:                  -0.899
REMARK UNBOUND:                -0.899
REMARK  Name = 
REMARK  7 active torsions:
REMARK  status: ('A' for Active; 'I' for Inactive)
REMARK    1  A    between atoms: C_1  and  O_2
REMARK    2  A    between atoms: O_2  and  C_3
REMARK    3  A    between atoms: C_5  and  O_6
REMARK    4  A    between atoms: O_6  and  C_7
REMARK    5  A    between atoms: C_7  and  C_8
REMARK    6  A    between atoms: C_13  and  N_14
REMARK    7  A    between atoms: C_22  and  C_23
REMARK                            x       y       z     vdW  Elec       q    Type
REMARK                         _______ _______ _______ _____ _____    ______ ____
ROOT
ATOM      1  O   UNL     1      47.168   3.150  14.290  0.00  0.00    +0.000 OA
ENDROOT
BRANCH   1   4
ATOM      2  C   UNL     1      47.565   4.372  17.686  0.00  0.00    +0.000 A 
ATOM      3  C   UNL     1      47.035   4.171  16.414  0.00  0.00    +0.000 A 
ATOM      4  C   UNL     1      47.705   3.316  15.551  0.00  0.00    +0.000 A 
ATOM      5  N   UNL     1      48.836   2.660  15.874  0.00  0.00    +0.000 NA
ATOM      6  C   UNL     1      49.333   2.885  17.117  0.00  0.00    +0.000 A 
ATOM      7  C   UNL     1      48.748   3.730  18.044  0.00  0.00    +0.000 A 
BRANCH   6   8
ATOM      8  C   UNL     1      50.590   2.149  17.457  0.00  0.00    +0.000 C 
ATOM      9  N   UNL     1      51.499   2.861  18.196  0.00  0.00    +0.000 N 
ATOM     10  O   UNL     1      50.803   0.996  17.105  0.00  0.00    +0.000 OA
ATOM     11  H   UNL     1      51.287   3.813  18.469  0.00  0.00    +0.000 HD
ATOM     12  H   UNL     1      52.371   2.430  18.464  0.00  0.00    +0.000 HD
ENDBRANCH   6   8
BRANCH   2  14
ATOM     13  C   UNL     1      47.929   6.208  19.137  0.00  0.00    +0.000 C 
ATOM     14  O   UNL     1      47.051   5.204  18.640  0.00  0.00    +0.000 OA
ENDBRANCH   2  14
ENDBRANCH   1   4
BRANCH   1  15
ATOM     15  C   UNL     1      46.986   4.398  13.618  0.00  0.00    +0.000 C 
BRANCH  15  16
ATOM     16  C   UNL     1      45.727   4.355  12.793  0.00  0.00    +0.000 A 
ATOM     17  C   UNL     1      44.527   4.860  13.290  0.00  0.00    +0.000 A 
ATOM     18  C   UNL     1      43.402   4.859  12.480  0.00  0.00    +0.000 A 
ATOM     19  F   UNL     1      42.252   5.359  12.953  0.00  0.00    +0.000 F 
ATOM     20  C   UNL     1      43.444   4.356  11.180  0.00  0.00    +0.000 A 
ATOM     21  C   UNL     1      44.624   3.817  10.651  0.00  0.00    +0.000 A 
ATOM     22  C   UNL     1      45.753   3.826  11.488  0.00  0.00    +0.000 A 
BRANCH  21  23
ATOM     23  N   UNL     1      44.697   3.322   9.362  0.00  0.00    +0.000 N 
ATOM     24  C   UNL     1      44.715   1.887   9.072  0.00  0.00    +0.000 C 
ATOM     25  C   UNL     1      46.048   1.497   8.438  0.00  0.00    +0.000 C 
ATOM     26  C   UNL     1      46.355   2.367   7.220  0.00  0.00    +0.000 C 
ATOM     27  C   UNL     1      46.282   3.851   7.576  0.00  0.00    +0.000 C 
ATOM     28  C   UNL     1      44.943   4.210   8.222  0.00  0.00    +0.000 C 
ENDBRANCH  21  23
ENDBRANCH  15  16
ENDBRANCH   1  15
TORSDOF 6
ENDMDL
MODEL 2
REMARK VINA RESULT:    -7.467      1.381      2.500
REMARK INTER + INTRA:         -10.984
REMARK INTER:                 -10.153
REMARK INTRA:                  -0.831
REMARK UNBOUND:                -0.899
REMARK  Name = 
REMARK  7 active torsions:
REMARK  status: ('A' for Active; 'I' for Inactive)
REMARK    1  A    between atoms: C_1  and  O_2
REMARK    2  A    between atoms: O_2  and  C_3
REMARK    3  A    between atoms: C_5  and  O_6
REMARK    4  A    between atoms: O_6  and  C_7
REMARK    5  A    between atoms: C_7  and  C_8
REMARK    6  A    between atoms: C_13  and  N_14
REMARK    7  A    between atoms: C_22  and  C_23
REMARK                            x       y       z     vdW  Elec       q    Type
REMARK                         _______ _______ _______ _____ _____    ______ ____
ROOT
ATOM      1  O   UNL     1      46.272   4.097  15.164  0.00  0.00    +0.000 OA
ENDROOT
BRANCH   1   4
ATOM      2  C   UNL     1      49.191   2.548  16.668  0.00  0.00    +0.000 A 
ATOM      3  C   UNL     1      48.162   2.819  15.770  0.00  0.00    +0.000 A 
ATOM      4  C   UNL     1      47.295   3.862  16.061  0.00  0.00    +0.000 A 
ATOM      5  N   UNL     1      47.395   4.636  17.159  0.00  0.00    +0.000 NA
ATOM      6  C   UNL     1      48.402   4.339  18.020  0.00  0.00    +0.000 A 
ATOM      7  C   UNL     1      49.308   3.311  17.826  0.00  0.00    +0.000 A 
BRANCH   6   8
ATOM      8  C   UNL     1      48.497   5.207  19.234  0.00  0.00    +0.000 C 
ATOM      9  N   UNL     1      47.311   5.428  19.885  0.00  0.00    +0.000 N 
ATOM     10  O   UNL     1      49.551   5.693  19.625  0.00  0.00    +0.000 OA
ATOM     11  H   UNL     1      46.460   5.008  19.531  0.00  0.00    +0.000 HD
ATOM     12  H   UNL     1      47.296   6.004  20.714  0.00  0.00    +0.000 HD
ENDBRANCH   6   8
BRANCH   2  14
ATOM     13  C   UNL     1      51.283   1.662  17.339  0.00  0.00    +0.000 C 
ATOM     14  O   UNL     1      50.105   1.539  16.548  0.00  0.00    +0.000 OA
ENDBRANCH   2  14
ENDBRANCH   1   4
BRANCH   1  15
ATOM     15  C   UNL     1      46.707   3.959  13.810  0.00  0.00    +0.000 C 
BRANCH  15  16
ATOM     16  C   UNL     1      45.529   4.087  12.879  0.00  0.00    +0.000 A 
ATOM     17  C   UNL     1      44.353   4.710  13.295  0.00  0.00    +0.000 A 
ATOM     18  C   UNL     1      43.311   4.863  12.392  0.00  0.00    +0.000 A 
ATOM     19  F   UNL     1      42.187   5.476  12.787  0.00  0.00    +0.000 F 
ATOM     20  C   UNL     1      43.413   4.401  11.082  0.00  0.00    +0.000 A 
ATOM     21  C   UNL     1      44.567   3.747  10.631  0.00  0.00    +0.000 A 
ATOM     22  C   UNL     1      45.612   3.600  11.561  0.00  0.00    +0.000 A 
BRANCH  21  23
ATOM     23  N   UNL     1      44.699   3.289   9.333  0.00  0.00    +0.000 N 
ATOM     24  C   UNL     1      44.727   1.863   9.004  0.00  0.00    +0.000 C 
ATOM     25  C   UNL     1      46.088   1.486   8.422  0.00  0.00    +0.000 C 
ATOM     26  C   UNL     1      46.452   2.390   7.244  0.00  0.00    +0.000 C 
ATOM     27  C   UNL     1      46.365   3.863   7.638  0.00  0.00    +0.000 C 
ATOM     28  C   UNL     1      44.999   4.208   8.232  0.00  0.00    +0.000 C 
ENDBRANCH  21  23
ENDBRANCH  15  16
ENDBRANCH   1  15
TORSDOF 6
ENDMDL
MODEL 3
REMARK VINA RESULT:    -7.063      3.610      8.281
REMARK INTER + INTRA:         -10.438
REMARK INTER:                  -9.400
REMARK INTRA:                  -1.039
REMARK UNBOUND:                -0.899
REMARK  Name = 
REMARK  7 active torsions:
REMARK  status: ('A' for Active; 'I' for Inactive)
REMARK    1  A    between atoms: C_1  and  O_2
REMARK    2  A    between atoms: O_2  and  C_3
REMARK    3  A    between atoms: C_5  and  O_6
REMARK    4  A    between atoms: O_6  and  C_7
REMARK    5  A    between atoms: C_7  and  C_8
REMARK    6  A    between atoms: C_13  and  N_14
REMARK    7  A    between atoms: C_22  and  C_23
REMARK                            x       y       z     vdW  Elec       q    Type
REMARK                         _______ _______ _______ _____ _____    ______ ____
ROOT
ATOM      1  O   UNL     1      46.269   7.073  12.048  0.00  0.00    +0.000 OA
ENDROOT
BRANCH   1   4
ATOM      2  C   UNL     1      45.495   4.827   9.302  0.00  0.00    +0.000 A 
ATOM      3  C   UNL     1      46.038   5.891  10.018  0.00  0.00    +0.000 A 
ATOM      4  C   UNL     1      45.733   5.998  11.367  0.00  0.00    +0.000 A 
ATOM      5  N   UNL     1      44.947   5.128  12.029  0.00  0.00    +0.000 NA
ATOM      6  C   UNL     1      44.424   4.108  11.301  0.00  0.00    +0.000 A 
ATOM      7  C   UNL     1      44.657   3.923   9.949  0.00  0.00    +0.000 A 
BRANCH   6   8
ATOM      8  C   UNL     1      43.553   3.153  12.053  0.00  0.00    +0.000 C 
ATOM      9  N   UNL     1      43.502   3.355  13.407  0.00  0.00    +0.000 N 
ATOM     10  O   UNL     1      42.928   2.251  11.508  0.00  0.00    +0.000 OA
ATOM     11  H   UNL     1      44.032   4.112  13.821  0.00  0.00    +0.000 HD
ATOM     12  H   UNL     1      42.934   2.749  13.981  0.00  0.00    +0.000 HD
ENDBRANCH   6   8
BRANCH   2  14
ATOM     13  C   UNL     1      45.777   3.233   7.573  0.00  0.00    +0.000 C 
ATOM     14  O   UNL     1      45.668   4.597   7.966  0.00  0.00    +0.000 OA
ENDBRANCH   2  14
ENDBRANCH   1   4
BRANCH   1  15
ATOM     15  C   UNL     1      47.666   7.226  11.790  0.00  0.00    +0.000 C 
BRANCH  15  16
ATOM     16  C   UNL     1      48.439   7.110  13.078  0.00  0.00    +0.000 A 
ATOM     17  C   UNL     1      49.628   7.813  13.266  0.00  0.00    +0.000 A 
ATOM     18  C   UNL     1      50.280   7.729  14.486  0.00  0.00    +0.000 A 
ATOM     19  F   UNL     1      51.415   8.418  14.672  0.00  0.00    +0.000 F 
ATOM     20  C   UNL     1      49.776   6.950  15.526  0.00  0.00    +0.000 A 
ATOM     21  C   UNL     1      48.599   6.208  15.371  0.00  0.00    +0.000 A 
ATOM     22  C   UNL     1      47.952   6.305  14.125  0.00  0.00    +0.000 A 
BRANCH  21  23
ATOM     23  N   UNL     1      48.070   5.436  16.389  0.00  0.00    +0.000 N 
ATOM     24  C   UNL     1      48.365   5.689  17.800  0.00  0.00    +0.000 C 
ATOM     25  C   UNL     1      49.135   4.512  18.394  0.00  0.00    +0.000 C 
ATOM     26  C   UNL     1      48.398   3.195  18.154  0.00  0.00    +0.000 C 
ATOM     27  C   UNL     1      48.084   3.007  16.671  0.00  0.00    +0.000 C 
ATOM     28  C   UNL     1      47.327   4.206  16.099  0.00  0.00    +0.000 C 
ENDBRANCH  21  23
ENDBRANCH  15  16
ENDBRANCH   1  15
TORSDOF 6
ENDMDL
MODEL 4
REMARK VINA RESULT:    -6.996      2.777      3.793
REMARK INTER + INTRA:         -10.348
REMARK INTER:                  -9.265
REMARK INTRA:                  -1.083
REMARK UNBOUND:                -0.899
REMARK  Name = 
REMARK  7 active torsions:
REMARK  status: ('A' for Active; 'I' for Inactive)
REMARK    1  A    between atoms: C_1  and  O_2
REMARK    2  A    between atoms: O_2  and  C_3
REMARK    3  A    between atoms: C_5  and  O_6
REMARK    4  A    between atoms: O_6  and  C_7
REMARK    5  A    between atoms: C_7  and  C_8
REMARK    6  A    between atoms: C_13  and  N_14
REMARK    7  A    between atoms: C_22  and  C_23
REMARK                            x       y       z     vdW  Elec       q    Type
REMARK                         _______ _______ _______ _____ _____    ______ ____
ROOT
ATOM      1  O   UNL     1      49.363   6.569  14.566  0.00  0.00    +0.000 OA
ENDROOT
BRANCH   1   4
ATOM      2  C   UNL     1      48.605   7.273  18.047  0.00  0.00    +0.000 A 
ATOM      3  C   UNL     1      49.013   7.452  16.728  0.00  0.00    +0.000 A 
ATOM      4  C   UNL     1      48.934   6.370  15.863  0.00  0.00    +0.000 A 
ATOM      5  N   UNL     1      48.477   5.154  16.223  0.00  0.00    +0.000 NA
ATOM      6  C   UNL     1      48.097   5.010  17.519  0.00  0.00    +0.000 A 
ATOM      7  C   UNL     1      48.152   6.023  18.460  0.00  0.00    +0.000 A 
BRANCH   6   8
ATOM      8  C   UNL     1      47.593   3.654  17.900  0.00  0.00    +0.000 C 
ATOM      9  N   UNL     1      48.264   3.054  18.933  0.00  0.00    +0.000 N 
ATOM     10  O   UNL     1      46.652   3.109  17.336  0.00  0.00    +0.000 OA
ATOM     11  H   UNL     1      49.037   3.536  19.376  0.00  0.00    +0.000 HD
ATOM     12  H   UNL     1      47.981   2.137  19.248  0.00  0.00    +0.000 HD
ENDBRANCH   6   8
BRANCH   2  14
ATOM     13  C   UNL     1      47.401   8.769  19.432  0.00  0.00    +0.000 C 
ATOM     14  O   UNL     1      48.651   8.221  19.029  0.00  0.00    +0.000 OA
ENDBRANCH   2  14
ENDBRANCH   1   4
BRANCH   1  15
ATOM     15  C   UNL     1      48.942   7.835  14.053  0.00  0.00    +0.000 C 
BRANCH  15  16
ATOM     16  C   UNL     1      47.579   7.704  13.425  0.00  0.00    +0.000 A 
ATOM     17  C   UNL     1      46.723   8.801  13.337  0.00  0.00    +0.000 A 
ATOM     18  C   UNL     1      45.501   8.658  12.698  0.00  0.00    +0.000 A 
ATOM     19  F   UNL     1      44.685   9.717  12.600  0.00  0.00    +0.000 F 
ATOM     20  C   UNL     1      45.108   7.439  12.148  0.00  0.00    +0.000 A 
ATOM     21  C   UNL     1      45.928   6.307  12.236  0.00  0.00    +0.000 A 
ATOM     22  C   UNL     1      47.162   6.471  12.889  0.00  0.00    +0.000 A 
BRANCH  21  23
ATOM     23  N   UNL     1      45.568   5.089  11.689  0.00  0.00    +0.000 N 
ATOM     24  C   UNL     1      45.130   4.950  10.300  0.00  0.00    +0.000 C 
ATOM     25  C   UNL     1      43.674   4.492  10.252  0.00  0.00    +0.000 C 
ATOM     26  C   UNL     1      43.467   3.227  11.083  0.00  0.00    +0.000 C 
ATOM     27  C   UNL     1      43.979   3.421  12.510  0.00  0.00    +0.000 C 
ATOM     28  C   UNL     1      45.433   3.894  12.527  0.00  0.00    +0.000 C 
ENDBRANCH  21  23
ENDBRANCH  15  16
ENDBRANCH   1  15
TORSDOF 6
ENDMDL
MODEL 5
REMARK VINA RESULT:    -6.833      3.287      8.883
REMARK INTER + INTRA:         -10.128
REMARK INTER:                  -9.224
REMARK INTRA:                  -0.904
REMARK UNBOUND:                -0.899
REMARK  Name = 
REMARK  7 active torsions:
REMARK  status: ('A' for Active; 'I' for Inactive)
REMARK    1  A    between atoms: C_1  and  O_2
REMARK    2  A    between atoms: O_2  and  C_3
REMARK    3  A    between atoms: C_5  and  O_6
REMARK    4  A    between atoms: O_6  and  C_7
REMARK    5  A    between atoms: C_7  and  C_8
REMARK    6  A    between atoms: C_13  and  N_14
REMARK    7  A    between atoms: C_22  and  C_23
REMARK                            x       y       z     vdW  Elec       q    Type
REMARK                         _______ _______ _______ _____ _____    ______ ____
ROOT
ATOM      1  O   UNL     1      47.458   3.262  14.526  0.00  0.00    +0.000 OA
ENDROOT
BRANCH   1   4
ATOM      2  C   UNL     1      45.702   5.938  12.811  0.00  0.00    +0.000 A 
ATOM      3  C   UNL     1      46.579   5.278  13.668  0.00  0.00    +0.000 A 
ATOM      4  C   UNL     1      46.593   3.891  13.653  0.00  0.00    +0.000 A 
ATOM      5  N   UNL     1      45.812   3.142  12.851  0.00  0.00    +0.000 NA
ATOM      6  C   UNL     1      44.960   3.815  12.035  0.00  0.00    +0.000 A 
ATOM      7  C   UNL     1      44.862   5.194  11.987  0.00  0.00    +0.000 A 
BRANCH   6   8
ATOM      8  C   UNL     1      44.101   2.967  11.152  0.00  0.00    +0.000 C 
ATOM      9  N   UNL     1      44.742   2.408  10.078  0.00  0.00    +0.000 N 
ATOM     10  O   UNL     1      42.909   2.780  11.363  0.00  0.00    +0.000 OA
ATOM     11  H   UNL     1      45.729   2.585   9.937  0.00  0.00    +0.000 HD
ATOM     12  H   UNL     1      44.227   1.822   9.438  0.00  0.00    +0.000 HD
ENDBRANCH   6   8
BRANCH   2  14
ATOM     13  C   UNL     1      44.862   7.773  11.571  0.00  0.00    +0.000 C 
ATOM     14  O   UNL     1      45.540   7.292  12.727  0.00  0.00    +0.000 OA
ENDBRANCH   2  14
ENDBRANCH   1   4
BRANCH   1  15
ATOM     15  C   UNL     1      47.205   3.628  15.884  0.00  0.00    +0.000 C 
BRANCH  15  16
ATOM     16  C   UNL     1      48.484   3.563  16.677  0.00  0.00    +0.000 A 
ATOM     17  C   UNL     1      49.247   2.397  16.713  0.00  0.00    +0.000 A 
ATOM     18  C   UNL     1      50.449   2.393  17.404  0.00  0.00    +0.000 A 
ATOM     19  F   UNL     1      51.189   1.276  17.425  0.00  0.00    +0.000 F 
ATOM     20  C   UNL     1      50.907   3.529  18.069  0.00  0.00    +0.000 A 
ATOM     21  C   UNL     1      50.160   4.714  18.079  0.00  0.00    +0.000 A 
ATOM     22  C   UNL     1      48.943   4.697  17.374  0.00  0.00    +0.000 A 
BRANCH  21  23
ATOM     23  N   UNL     1      50.596   5.858  18.721  0.00  0.00    +0.000 N 
ATOM     24  C   UNL     1      50.444   6.054  20.163  0.00  0.00    +0.000 C 
ATOM     25  C   UNL     1      49.505   7.226  20.437  0.00  0.00    +0.000 C 
ATOM     26  C   UNL     1      49.961   8.483  19.697  0.00  0.00    +0.000 C 
ATOM     27  C   UNL     1      50.139   8.205  18.206  0.00  0.00    +0.000 C 
ATOM     28  C   UNL     1      51.072   7.017  17.962  0.00  0.00    +0.000 C 
ENDBRANCH  21  23
ENDBRANCH  15  16
ENDBRANCH   1  15
TORSDOF 6
ENDMDL
MODEL 6
REMARK VINA RESULT:    -6.650      2.016      2.555
REMARK INTER + INTRA:          -9.881
REMARK INTER:                  -8.932
REMARK INTRA:                  -0.949
REMARK UNBOUND:                -0.899
REMARK  Name = 
REMARK  7 active torsions:
REMARK  status: ('A' for Active; 'I' for Inactive)
REMARK    1  A    between atoms: C_1  and  O_2
REMARK    2  A    between atoms: O_2  and  C_3
REMARK    3  A    between atoms: C_5  and  O_6
REMARK    4  A    between atoms: O_6  and  C_7
REMARK    5  A    between atoms: C_7  and  C_8
REMARK    6  A    between atoms: C_13  and  N_14
REMARK    7  A    between atoms: C_22  and  C_23
REMARK                            x       y       z     vdW  Elec       q    Type
REMARK                         _______ _______ _______ _____ _____    ______ ____
ROOT
ATOM      1  O   UNL     1      47.710   3.217  15.406  0.00  0.00    +0.000 OA
ENDROOT
BRANCH   1   4
ATOM      2  C   UNL     1      49.245   4.687  18.350  0.00  0.00    +0.000 A 
ATOM      3  C   UNL     1      48.344   4.454  17.314  0.00  0.00    +0.000 A 
ATOM      4  C   UNL     1      48.609   3.414  16.435  0.00  0.00    +0.000 A 
ATOM      5  N   UNL     1      49.685   2.609  16.528  0.00  0.00    +0.000 NA
ATOM      6  C   UNL     1      50.550   2.869  17.543  0.00  0.00    +0.000 A 
ATOM      7  C   UNL     1      50.381   3.891  18.461  0.00  0.00    +0.000 A 
BRANCH   6   8
ATOM      8  C   UNL     1      51.739   1.966  17.630  0.00  0.00    +0.000 C 
ATOM      9  N   UNL     1      51.450   0.629  17.698  0.00  0.00    +0.000 N 
ATOM     10  O   UNL     1      52.891   2.382  17.643  0.00  0.00    +0.000 OA
ATOM     11  H   UNL     1      50.484   0.324  17.683  0.00  0.00    +0.000 HD
ATOM     12  H   UNL     1      52.202  -0.042  17.758  0.00  0.00    +0.000 HD
ENDBRANCH   6   8
BRANCH   2  14
ATOM     13  C   UNL     1      48.402   5.387  20.450  0.00  0.00    +0.000 C 
ATOM     14  O   UNL     1      49.150   5.687  19.276  0.00  0.00    +0.000 OA
ENDBRANCH   2  14
ENDBRANCH   1   4
BRANCH   1  15
ATOM     15  C   UNL     1      46.677   4.204  15.403  0.00  0.00    +0.000 C 
BRANCH  15  16
ATOM     16  C   UNL     1      46.712   4.976  14.109  0.00  0.00    +0.000 A 
ATOM     17  C   UNL     1      47.590   6.045  13.937  0.00  0.00    +0.000 A 
ATOM     18  C   UNL     1      47.637   6.693  12.712  0.00  0.00    +0.000 A 
ATOM     19  F   UNL     1      48.493   7.711  12.542  0.00  0.00    +0.000 F 
ATOM     20  C   UNL     1      46.820   6.304  11.653  0.00  0.00    +0.000 A 
ATOM     21  C   UNL     1      45.907   5.251  11.792  0.00  0.00    +0.000 A 
ATOM     22  C   UNL     1      45.873   4.606  13.041  0.00  0.00    +0.000 A 
BRANCH  21  23
ATOM     23  N   UNL     1      45.093   4.836  10.754  0.00  0.00    +0.000 N 
ATOM     24  C   UNL     1      44.096   3.776  10.914  0.00  0.00    +0.000 C 
ATOM     25  C   UNL     1      44.459   2.578  10.040  0.00  0.00    +0.000 C 
ATOM     26  C   UNL     1      44.670   3.000   8.587  0.00  0.00    +0.000 C 
ATOM     27  C   UNL     1      45.689   4.134   8.489  0.00  0.00    +0.000 C 
ATOM     28  C   UNL     1      45.308   5.313   9.385  0.00  0.00    +0.000 C 
ENDBRANCH  21  23
ENDBRANCH  15  16
ENDBRANCH   1  15
TORSDOF 6
ENDMDL
MODEL 7
REMARK VINA RESULT:    -6.650      3.778      8.427
REMARK INTER + INTRA:          -9.881
REMARK INTER:                  -8.828
REMARK INTRA:                  -1.053
REMARK UNBOUND:                -0.899
REMARK  Name = 
REMARK  7 active torsions:
REMARK  status: ('A' for Active; 'I' for Inactive)
REMARK    1  A    between atoms: C_1  and  O_2
REMARK    2  A    between atoms: O_2  and  C_3
REMARK    3  A    between atoms: C_5  and  O_6
REMARK    4  A    between atoms: O_6  and  C_7
REMARK    5  A    between atoms: C_7  and  C_8
REMARK    6  A    between atoms: C_13  and  N_14
REMARK    7  A    between atoms: C_22  and  C_23
REMARK                            x       y       z     vdW  Elec       q    Type
REMARK                         _______ _______ _______ _____ _____    ______ ____
ROOT
ATOM      1  O   UNL     1      45.872   6.750  10.788  0.00  0.00    +0.000 OA
ENDROOT
BRANCH   1   4
ATOM      2  C   UNL     1      45.249   3.808   8.753  0.00  0.00    +0.000 A 
ATOM      3  C   UNL     1      45.715   5.060   9.147  0.00  0.00    +0.000 A 
ATOM      4  C   UNL     1      45.415   5.498  10.429  0.00  0.00    +0.000 A 
ATOM      5  N   UNL     1      44.705   4.779  11.321  0.00  0.00    +0.000 NA
ATOM      6  C   UNL     1      44.257   3.567  10.901  0.00  0.00    +0.000 A 
ATOM      7  C   UNL     1      44.491   3.050   9.639  0.00  0.00    +0.000 A 
BRANCH   6   8
ATOM      8  C   UNL     1      43.470   2.784  11.904  0.00  0.00    +0.000 C 
ATOM      9  N   UNL     1      43.545   3.246  13.191  0.00  0.00    +0.000 N 
ATOM     10  O   UNL     1      42.806   1.799  11.606  0.00  0.00    +0.000 OA
ATOM     11  H   UNL     1      44.104   4.065  13.398  0.00  0.00    +0.000 HD
ATOM     12  H   UNL     1      43.039   2.769  13.923  0.00  0.00    +0.000 HD
ENDBRANCH   6   8
BRANCH   2  14
ATOM     13  C   UNL     1      46.574   3.674   6.794  0.00  0.00    +0.000 C 
ATOM     14  O   UNL     1      45.426   3.247   7.520  0.00  0.00    +0.000 OA
ENDBRANCH   2  14
ENDBRANCH   1   4
BRANCH   1  15
ATOM     15  C   UNL     1      45.761   6.977  12.195  0.00  0.00    +0.000 C 
BRANCH  15  16
ATOM     16  C   UNL     1      47.134   7.064  12.808  0.00  0.00    +0.000 A 
ATOM     17  C   UNL     1      48.184   7.679  12.128  0.00  0.00    +0.000 A 
ATOM     18  C   UNL     1      49.418   7.795  12.749  0.00  0.00    +0.000 A 
ATOM     19  F   UNL     1      50.423   8.400  12.102  0.00  0.00    +0.000 F 
ATOM     20  C   UNL     1      49.633   7.302  14.035  0.00  0.00    +0.000 A 
ATOM     21  C   UNL     1      48.612   6.655  14.743  0.00  0.00    +0.000 A 
ATOM     22  C   UNL     1      47.368   6.546  14.096  0.00  0.00    +0.000 A 
BRANCH  21  23
ATOM     23  N   UNL     1      48.794   6.166  16.023  0.00  0.00    +0.000 N 
ATOM     24  C   UNL     1      48.419   4.804  16.405  0.00  0.00    +0.000 C 
ATOM     25  C   UNL     1      47.299   4.840  17.442  0.00  0.00    +0.000 C 
ATOM     26  C   UNL     1      47.679   5.721  18.632  0.00  0.00    +0.000 C 
ATOM     27  C   UNL     1      48.099   7.115  18.168  0.00  0.00    +0.000 C 
ATOM     28  C   UNL     1      49.209   7.048  17.118  0.00  0.00    +0.000 C 
ENDBRANCH  21  23
ENDBRANCH  15  16
ENDBRANCH   1  15
TORSDOF 6
ENDMDL
MODEL 8
REMARK VINA RESULT:    -6.401      3.766      7.918
REMARK INTER + INTRA:          -9.545
REMARK INTER:                  -8.362
REMARK INTRA:                  -1.183
REMARK UNBOUND:                -0.899
REMARK  Name = 
REMARK  7 active torsions:
REMARK  status: ('A' for Active; 'I' for Inactive)
REMARK    1  A    between atoms: C_1  and  O_2
REMARK    2  A    between atoms: O_2  and  C_3
REMARK    3  A    between atoms: C_5  and  O_6
REMARK    4  A    between atoms: O_6  and  C_7
REMARK    5  A    between atoms: C_7  and  C_8
REMARK    6  A    between atoms: C_13  and  N_14
REMARK    7  A    between atoms: C_22  and  C_23
REMARK                            x       y       z     vdW  Elec       q    Type
REMARK                         _______ _______ _______ _____ _____    ______ ____
ROOT
ATOM      1  O   UNL     1      48.619   6.597  13.307  0.00  0.00    +0.000 OA
ENDROOT
BRANCH   1   4
ATOM      2  C   UNL     1      45.361   7.448  11.949  0.00  0.00    +0.000 A 
ATOM      3  C   UNL     1      46.689   7.563  12.349  0.00  0.00    +0.000 A 
ATOM      4  C   UNL     1      47.307   6.450  12.901  0.00  0.00    +0.000 A 
ATOM      5  N   UNL     1      46.700   5.259  13.065  0.00  0.00    +0.000 NA
ATOM      6  C   UNL     1      45.402   5.183  12.674  0.00  0.00    +0.000 A 
ATOM      7  C   UNL     1      44.694   6.239  12.128  0.00  0.00    +0.000 A 
BRANCH   6   8
ATOM      8  C   UNL     1      44.743   3.853  12.865  0.00  0.00    +0.000 C 
ATOM      9  N   UNL     1      45.516   2.770  12.542  0.00  0.00    +0.000 N 
ATOM     10  O   UNL     1      43.596   3.731  13.278  0.00  0.00    +0.000 OA
ATOM     11  H   UNL     1      46.460   2.911  12.204  0.00  0.00    +0.000 HD
ATOM     12  H   UNL     1      45.140   1.838  12.645  0.00  0.00    +0.000 HD
ENDBRANCH   6   8
BRANCH   2  14
ATOM     13  C   UNL     1      44.960   9.777  11.798  0.00  0.00    +0.000 C 
ATOM     14  O   UNL     1      44.599   8.452  11.422  0.00  0.00    +0.000 OA
ENDBRANCH   2  14
ENDBRANCH   1   4
BRANCH   1  15
ATOM     15  C   UNL     1      48.832   7.836  13.985  0.00  0.00    +0.000 C 
BRANCH  15  16
ATOM     16  C   UNL     1      48.770   7.621  15.475  0.00  0.00    +0.000 A 
ATOM     17  C   UNL     1      48.434   8.664  16.336  0.00  0.00    +0.000 A 
ATOM     18  C   UNL     1      48.328   8.414  17.696  0.00  0.00    +0.000 A 
ATOM     19  F   UNL     1      47.989   9.414  18.522  0.00  0.00    +0.000 F 
ATOM     20  C   UNL     1      48.558   7.143  18.220  0.00  0.00    +0.000 A 
ATOM     21  C   UNL     1      48.922   6.073  17.393  0.00  0.00    +0.000 A 
ATOM     22  C   UNL     1      49.026   6.347  16.017  0.00  0.00    +0.000 A 
BRANCH  21  23
ATOM     23  N   UNL     1      49.145   4.800  17.884  0.00  0.00    +0.000 N 
ATOM     24  C   UNL     1      50.424   4.397  18.469  0.00  0.00    +0.000 C 
ATOM     25  C   UNL     1      51.072   3.311  17.614  0.00  0.00    +0.000 C 
ATOM     26  C   UNL     1      50.113   2.143  17.388  0.00  0.00    +0.000 C 
ATOM     27  C   UNL     1      48.783   2.631  16.815  0.00  0.00    +0.000 C 
ATOM     28  C   UNL     1      48.165   3.729  17.682  0.00  0.00    +0.000 C 
ENDBRANCH  21  23
ENDBRANCH  15  16
ENDBRANCH   1  15
TORSDOF 6
ENDMDL
MODEL 9
REMARK VINA RESULT:    -6.335      2.846      4.180
REMARK INTER + INTRA:          -9.456
REMARK INTER:                  -8.430
REMARK INTRA:                  -1.026
REMARK UNBOUND:                -0.899
REMARK  Name = 
REMARK  7 active torsions:
REMARK  status: ('A' for Active; 'I' for Inactive)
REMARK    1  A    between atoms: C_1  and  O_2
REMARK    2  A    between atoms: O_2  and  C_3
REMARK    3  A    between atoms: C_5  and  O_6
REMARK    4  A    between atoms: O_6  and  C_7
REMARK    5  A    between atoms: C_7  and  C_8
REMARK    6  A    between atoms: C_13  and  N_14
REMARK    7  A    between atoms: C_22  and  C_23
REMARK                            x       y       z     vdW  Elec       q    Type
REMARK                         _______ _______ _______ _____ _____    ______ ____
ROOT
ATOM      1  O   UNL     1      46.605   4.145  15.749  0.00  0.00    +0.000 OA
ENDROOT
BRANCH   1   4
ATOM      2  C   UNL     1      48.519   5.030  18.705  0.00  0.00    +0.000 A 
ATOM      3  C   UNL     1      47.513   5.026  17.742  0.00  0.00    +0.000 A 
ATOM      4  C   UNL     1      47.605   4.114  16.701  0.00  0.00    +0.000 A 
ATOM      5  N   UNL     1      48.607   3.224  16.570  0.00  0.00    +0.000 NA
ATOM      6  C   UNL     1      49.578   3.260  17.519  0.00  0.00    +0.000 A 
ATOM      7  C   UNL     1      49.584   4.141  18.586  0.00  0.00    +0.000 A 
BRANCH   6   8
ATOM      8  C   UNL     1      50.683   2.266  17.357  0.00  0.00    +0.000 C 
ATOM      9  N   UNL     1      51.798   2.506  18.116  0.00  0.00    +0.000 N 
ATOM     10  O   UNL     1      50.608   1.304  16.602  0.00  0.00    +0.000 OA
ATOM     11  H   UNL     1      51.821   3.312  18.730  0.00  0.00    +0.000 HD
ATOM     12  H   UNL     1      52.585   1.877  18.060  0.00  0.00    +0.000 HD
ENDBRANCH   6   8
BRANCH   2  14
ATOM     13  C   UNL     1      47.504   5.851  20.681  0.00  0.00    +0.000 C 
ATOM     14  O   UNL     1      48.597   5.883  19.770  0.00  0.00    +0.000 OA
ENDBRANCH   2  14
ENDBRANCH   1   4
BRANCH   1  15
ATOM     15  C   UNL     1      47.036   3.593  14.503  0.00  0.00    +0.000 C 
BRANCH  15  16
ATOM     16  C   UNL     1      46.620   4.497  13.373  0.00  0.00    +0.000 A 
ATOM     17  C   UNL     1      45.499   4.205  12.597  0.00  0.00    +0.000 A 
ATOM     18  C   UNL     1      45.112   5.092  11.604  0.00  0.00    +0.000 A 
ATOM     19  F   UNL     1      44.025   4.819  10.869  0.00  0.00    +0.000 F 
ATOM     20  C   UNL     1      45.824   6.265  11.360  0.00  0.00    +0.000 A 
ATOM     21  C   UNL     1      46.969   6.584  12.101  0.00  0.00    +0.000 A 
ATOM     22  C   UNL     1      47.347   5.672  13.102  0.00  0.00    +0.000 A 
BRANCH  21  23
ATOM     23  N   UNL     1      47.688   7.746  11.888  0.00  0.00    +0.000 N 
ATOM     24  C   UNL     1      49.088   7.736  11.462  0.00  0.00    +0.000 C 
ATOM     25  C   UNL     1      49.971   8.343  12.550  0.00  0.00    +0.000 C 
ATOM     26  C   UNL     1      49.470   9.727  12.958  0.00  0.00    +0.000 C 
ATOM     27  C   UNL     1      47.995   9.680  13.353  0.00  0.00    +0.000 C 
ATOM     28  C   UNL     1      47.137   9.054  12.252  0.00  0.00    +0.000 C 
ENDBRANCH  21  23
ENDBRANCH  15  16
ENDBRANCH   1  15
TORSDOF 6
ENDMDL
