MODEL 1
REMARK VINA RESULT:    -7.242      0.000      0.000
REMARK INTER + INTRA:         -12.046
REMARK INTER:                 -11.052
REMARK INTRA:                  -0.994
REMARK UNBOUND:                -0.994
REMARK  Name = 
REMARK  9 active torsions:
REMARK  status: ('A' for Active; 'I' for Inactive)
REMARK    1  A    between atoms: C_2  and  C_3
REMARK    2  A    between atoms: C_4  and  C_5
REMARK    3  A    between atoms: C_8  and  N_9
REMARK    4  A    between atoms: N_9  and  C_10
REMARK    5  A    between atoms: C_10  and  C_11
REMARK    6  A    between atoms: C_11  and  C_12
REMARK    7  A    between atoms: C_16  and  O_17
REMARK    8  A    between atoms: O_17  and  C_18
REMARK    9  A    between atoms: C_25  and  C_26
REMARK                            x       y       z     vdW  Elec       q    Type
REMARK                         _______ _______ _______ _____ _____    ______ ____
ROOT
ATOM      1  N   UNL     1      46.678   5.816  12.473  0.00  0.00    +0.000 N 
ATOM      2  H   UNL     1      46.838   5.017  11.875  0.00  0.00    +0.000 HD
ENDROOT
BRANCH   1   6
ATOM      3  C   UNL     1      48.480   5.712  16.217  0.00  0.00    +0.000 A 
ATOM      4  C   UNL     1      48.554   6.778  15.328  0.00  0.00    +0.000 A 
ATOM      5  N   UNL     1      47.952   6.821  14.114  0.00  0.00    +0.000 NA
ATOM      6  C   UNL     1      47.252   5.746  13.718  0.00  0.00    +0.000 A 
ATOM      7  C   UNL     1      47.124   4.632  14.546  0.00  0.00    +0.000 A 
ATOM      8  C   UNL     1      47.715   4.619  15.808  0.00  0.00    +0.000 A 
BRANCH   8   9
ATOM      9  C   UNL     1      47.527   3.409  16.657  0.00  0.00    +0.000 C 
ATOM     10  N   UNL     1      48.521   2.463  16.637  0.00  0.00    +0.000 N 
ATOM     11  O   UNL     1      46.533   3.236  17.347  0.00  0.00    +0.000 OA
ATOM     12  H   UNL     1      49.294   2.457  15.986  0.00  0.00    +0.000 HD
ATOM     13  H   UNL     1      48.356   1.617  17.172  0.00  0.00    +0.000 HD
ENDBRANCH   8   9
BRANCH   3  15
ATOM     14  C   UNL     1      48.781   6.592  18.479  0.00  0.00    +0.000 C 
ATOM     15  C   UNL     1      49.206   5.796  17.488  0.00  0.00    +0.000 C 
BRANCH  14  17
ATOM     16  N   UNL     1      50.225   6.860  20.841  0.00  0.00    +0.000 NA
ATOM     17  C   UNL     1      49.571   6.739  19.769  0.00  0.00    +0.000 C 
ENDBRANCH  14  17
ENDBRANCH   3  15
ENDBRANCH   1   6
BRANCH   1  18
ATOM     18  C   UNL     1      45.898   6.958  12.051  0.00  0.00    +0.000 C 
BRANCH  18  19
ATOM     19  C   UNL     1      44.426   6.641  11.803  0.00  0.00    +0.000 C 
BRANCH  19  20
ATOM     20  C   UNL     1      44.326   5.174  11.444  0.00  0.00    +0.000 A 
ATOM     21  C   UNL     1      43.799   4.262  12.364  0.00  0.00    +0.000 A 
ATOM     22  C   UNL     1      43.554   2.944  11.980  0.00  0.00    +0.000 A 
ATOM     23  C   UNL     1      43.833   2.522  10.677  0.00  0.00    +0.000 A 
ATOM     24  C   UNL     1      44.372   3.413   9.751  0.00  0.00    +0.000 A 
ATOM     25  C   UNL     1      44.613   4.735  10.138  0.00  0.00    +0.000 A 
BRANCH  24  26
ATOM     26  O   UNL     1      44.651   3.128   8.440  0.00  0.00    +0.000 OA
BRANCH  26  27
ATOM     27  C   UNL     1      46.014   2.898   8.077  0.00  0.00    +0.000 C 
ATOM     28  C   UNL     1      46.295   3.314   6.635  0.00  0.00    +0.000 C 
ATOM     29  C   UNL     1      47.331   2.338   6.093  0.00  0.00    +0.000 C 
ATOM     30  C   UNL     1      47.421   1.188   7.089  0.00  0.00    +0.000 C 
ATOM     31  C   UNL     1      46.288   1.394   8.083  0.00  0.00    +0.000 C 
ENDBRANCH  26  27
ENDBRANCH  24  26
ENDBRANCH  19  20
ENDBRANCH  18  19
ENDBRANCH   1  18
TORSDOF 9
ENDMDL
MODEL 2
REMARK VINA RESULT:    -7.163      3.043      4.066
REMARK INTER + INTRA:         -11.926
REMARK INTER:                 -10.975
REMARK INTRA:                  -0.950
REMARK UNBOUND:                -0.994
REMARK  Name = 
REMARK  9 active torsions:
REMARK  status: ('A' for Active; 'I' for Inactive)
REMARK    1  A    between atoms: C_2  and  C_3
REMARK    2  A    between atoms: C_4  and  C_5
REMARK    3  A    between atoms: C_8  and  N_9
REMARK    4  A    between atoms: N_9  and  C_10
REMARK    5  A    between atoms: C_10  and  C_11
REMARK    6  A    between atoms: C_11  and  C_12
REMARK    7  A    between atoms: C_16  and  O_17
REMARK    8  A    between atoms: O_17  and  C_18
REMARK    9  A    between atoms: C_25  and  C_26
REMARK                            x       y       z     vdW  Elec       q    Type
REMARK                         _______ _______ _______ _____ _____    ______ ____
ROOT
ATOM      1  N   UNL     1      47.137   3.548  15.725  0.00  0.00    +0.000 N 
ATOM      2  H   UNL     1      46.361   3.686  16.358  0.00  0.00    +0.000 HD
ENDROOT
BRANCH   1   6
ATOM      3  C   UNL     1      50.769   2.525  17.468  0.00  0.00    +0.000 A 
ATOM      4  C   UNL     1      50.104   1.768  16.511  0.00  0.00    +0.000 A 
ATOM      5  N   UNL     1      48.929   2.108  15.927  0.00  0.00    +0.000 NA
ATOM      6  C   UNL     1      48.338   3.249  16.319  0.00  0.00    +0.000 A 
ATOM      7  C   UNL     1      48.933   4.071  17.273  0.00  0.00    +0.000 A 
ATOM      8  C   UNL     1      50.162   3.727  17.835  0.00  0.00    +0.000 A 
BRANCH   8   9
ATOM      9  C   UNL     1      50.760   4.655  18.835  0.00  0.00    +0.000 C 
ATOM     10  N   UNL     1      50.383   4.498  20.145  0.00  0.00    +0.000 N 
ATOM     11  O   UNL     1      51.549   5.536  18.528  0.00  0.00    +0.000 OA
ATOM     12  H   UNL     1      49.630   3.902  20.458  0.00  0.00    +0.000 HD
ATOM     13  H   UNL     1      50.750   5.172  20.809  0.00  0.00    +0.000 HD
ENDBRANCH   8   9
BRANCH   3  15
ATOM     14  C   UNL     1      52.625   0.934  17.518  0.00  0.00    +0.000 C 
ATOM     15  C   UNL     1      52.023   2.016  18.031  0.00  0.00    +0.000 C 
BRANCH  14  17
ATOM     16  N   UNL     1      54.931  -0.118  18.662  0.00  0.00    +0.000 NA
ATOM     17  C   UNL     1      53.885   0.359  18.143  0.00  0.00    +0.000 C 
ENDBRANCH  14  17
ENDBRANCH   3  15
ENDBRANCH   1   6
BRANCH   1  18
ATOM     18  C   UNL     1      46.997   3.659  14.290  0.00  0.00    +0.000 C 
BRANCH  18  19
ATOM     19  C   UNL     1      46.411   4.990  13.829  0.00  0.00    +0.000 C 
BRANCH  19  20
ATOM     20  C   UNL     1      45.178   4.689  13.004  0.00  0.00    +0.000 A 
ATOM     21  C   UNL     1      43.996   5.404  13.222  0.00  0.00    +0.000 A 
ATOM     22  C   UNL     1      42.913   5.245  12.360  0.00  0.00    +0.000 A 
ATOM     23  C   UNL     1      42.995   4.370  11.273  0.00  0.00    +0.000 A 
ATOM     24  C   UNL     1      44.159   3.638  11.048  0.00  0.00    +0.000 A 
ATOM     25  C   UNL     1      45.246   3.803  11.913  0.00  0.00    +0.000 A 
BRANCH  24  26
ATOM     26  O   UNL     1      44.371   2.782   9.999  0.00  0.00    +0.000 OA
BRANCH  26  27
ATOM     27  C   UNL     1      45.588   2.914   9.260  0.00  0.00    +0.000 C 
ATOM     28  C   UNL     1      45.471   3.962   8.156  0.00  0.00    +0.000 C 
ATOM     29  C   UNL     1      46.326   3.471   6.996  0.00  0.00    +0.000 C 
ATOM     30  C   UNL     1      46.682   2.019   7.290  0.00  0.00    +0.000 C 
ATOM     31  C   UNL     1      45.857   1.614   8.502  0.00  0.00    +0.000 C 
ENDBRANCH  26  27
ENDBRANCH  24  26
ENDBRANCH  19  20
ENDBRANCH  18  19
ENDBRANCH   1  18
TORSDOF 9
ENDMDL
MODEL 3
REMARK VINA RESULT:    -6.801      2.052      3.042
REMARK INTER + INTRA:         -11.373
REMARK INTER:                 -10.377
REMARK INTRA:                  -0.997
REMARK UNBOUND:                -0.994
REMARK  Name = 
REMARK  9 active torsions:
REMARK  status: ('A' for Active; 'I' for Inactive)
REMARK    1  A    between atoms: C_2  and  C_3
REMARK    2  A    between atoms: C_4  and  C_5
REMARK    3  A    between atoms: C_8  and  N_9
REMARK    4  A    between atoms: N_9  and  C_10
REMARK    5  A    between atoms: C_10  and  C_11
REMARK    6  A    between atoms: C_11  and  C_12
REMARK    7  A    between atoms: C_16  and  O_17
REMARK    8  A    between atoms: O_17  and  C_18
REMARK    9  A    between atoms: C_25  and  C_26
REMARK                            x       y       z     vdW  Elec       q    Type
REMARK                         _______ _______ _______ _____ _____    ______ ____
ROOT
ATOM      1  N   UNL     1      46.927   3.528  15.493  0.00  0.00    +0.000 N 
ATOM      2  H   UNL     1      46.117   2.973  15.733  0.00  0.00    +0.000 HD
ENDROOT
BRANCH   1   6
ATOM      3  C   UNL     1      49.421   4.568  18.651  0.00  0.00    +0.000 A 
ATOM      4  C   UNL     1      49.770   3.718  17.608  0.00  0.00    +0.000 A 
ATOM      5  N   UNL     1      48.964   3.392  16.567  0.00  0.00    +0.000 NA
ATOM      6  C   UNL     1      47.723   3.901  16.548  0.00  0.00    +0.000 A 
ATOM      7  C   UNL     1      47.287   4.763  17.553  0.00  0.00    +0.000 A 
ATOM      8  C   UNL     1      48.141   5.121  18.595  0.00  0.00    +0.000 A 
BRANCH   8   9
ATOM      9  C   UNL     1      47.628   6.062  19.629  0.00  0.00    +0.000 C 
ATOM     10  N   UNL     1      47.147   5.519  20.794  0.00  0.00    +0.000 N 
ATOM     11  O   UNL     1      47.615   7.274  19.469  0.00  0.00    +0.000 OA
ATOM     12  H   UNL     1      46.983   4.534  20.942  0.00  0.00    +0.000 HD
ATOM     13  H   UNL     1      46.745   6.165  21.466  0.00  0.00    +0.000 HD
ENDBRANCH   8   9
BRANCH   3  15
ATOM     14  C   UNL     1      51.709   4.719  19.503  0.00  0.00    +0.000 C 
ATOM     15  C   UNL     1      50.389   4.809  19.725  0.00  0.00    +0.000 C 
BRANCH  14  17
ATOM     16  N   UNL     1      53.548   5.042  21.564  0.00  0.00    +0.000 NA
ATOM     17  C   UNL     1      52.713   4.895  20.629  0.00  0.00    +0.000 C 
ENDBRANCH  14  17
ENDBRANCH   3  15
ENDBRANCH   1   6
BRANCH   1  18
ATOM     18  C   UNL     1      47.231   3.908  14.131  0.00  0.00    +0.000 C 
BRANCH  18  19
ATOM     19  C   UNL     1      46.497   5.162  13.662  0.00  0.00    +0.000 C 
BRANCH  19  20
ATOM     20  C   UNL     1      45.266   4.716  12.904  0.00  0.00    +0.000 A 
ATOM     21  C   UNL     1      44.034   5.334  13.144  0.00  0.00    +0.000 A 
ATOM     22  C   UNL     1      42.936   5.042  12.335  0.00  0.00    +0.000 A 
ATOM     23  C   UNL     1      43.054   4.130  11.283  0.00  0.00    +0.000 A 
ATOM     24  C   UNL     1      44.269   3.493  11.038  0.00  0.00    +0.000 A 
ATOM     25  C   UNL     1      45.370   3.792  11.849  0.00  0.00    +0.000 A 
BRANCH  24  26
ATOM     26  O   UNL     1      44.516   2.614  10.018  0.00  0.00    +0.000 OA
BRANCH  26  27
ATOM     27  C   UNL     1      45.684   2.821   9.219  0.00  0.00    +0.000 C 
ATOM     28  C   UNL     1      45.463   3.899   8.160  0.00  0.00    +0.000 C 
ATOM     29  C   UNL     1      46.272   3.483   6.939  0.00  0.00    +0.000 C 
ATOM     30  C   UNL     1      46.703   2.039   7.163  0.00  0.00    +0.000 C 
ATOM     31  C   UNL     1      45.964   1.560   8.403  0.00  0.00    +0.000 C 
ENDBRANCH  26  27
ENDBRANCH  24  26
ENDBRANCH  19  20
ENDBRANCH  18  19
ENDBRANCH   1  18
TORSDOF 9
ENDMDL
MODEL 4
REMARK VINA RESULT:    -6.744      1.863      2.406
REMARK INTER + INTRA:         -11.287
REMARK INTER:                 -10.535
REMARK INTRA:                  -0.751
REMARK UNBOUND:                -0.994
REMARK  Name = 
REMARK  9 active torsions:
REMARK  status: ('A' for Active; 'I' for Inactive)
REMARK    1  A    between atoms: C_2  and  C_3
REMARK    2  A    between atoms: C_4  and  C_5
REMARK    3  A    between atoms: C_8  and  N_9
REMARK    4  A    between atoms: N_9  and  C_10
REMARK    5  A    between atoms: C_10  and  C_11
REMARK    6  A    between atoms: C_11  and  C_12
REMARK    7  A    between atoms: C_16  and  O_17
REMARK    8  A    between atoms: O_17  and  C_18
REMARK    9  A    between atoms: C_25  and  C_26
REMARK                            x       y       z     vdW  Elec       q    Type
REMARK                         _______ _______ _______ _____ _____    ______ ____
ROOT
ATOM      1  N   UNL     1      46.780   5.458  13.042  0.00  0.00    +0.000 N 
ATOM      2  H   UNL     1      46.420   4.616  12.614  0.00  0.00    +0.000 HD
ENDROOT
BRANCH   1   6
ATOM      3  C   UNL     1      48.178   4.922  16.919  0.00  0.00    +0.000 A 
ATOM      4  C   UNL     1      47.215   4.131  16.305  0.00  0.00    +0.000 A 
ATOM      5  N   UNL     1      46.770   4.293  15.034  0.00  0.00    +0.000 NA
ATOM      6  C   UNL     1      47.272   5.309  14.315  0.00  0.00    +0.000 A 
ATOM      7  C   UNL     1      48.243   6.153  14.851  0.00  0.00    +0.000 A 
ATOM      8  C   UNL     1      48.719   5.950  16.146  0.00  0.00    +0.000 A 
BRANCH   8   9
ATOM      9  C   UNL     1      49.772   6.870  16.658  0.00  0.00    +0.000 C 
ATOM     10  N   UNL     1      51.078   6.546  16.390  0.00  0.00    +0.000 N 
ATOM     11  O   UNL     1      49.512   7.876  17.303  0.00  0.00    +0.000 OA
ATOM     12  H   UNL     1      51.382   5.665  16.001  0.00  0.00    +0.000 HD
ATOM     13  H   UNL     1      51.789   7.147  16.794  0.00  0.00    +0.000 HD
ENDBRANCH   8   9
BRANCH   3  15
ATOM     14  C   UNL     1      47.936   5.278  19.327  0.00  0.00    +0.000 C 
ATOM     15  C   UNL     1      48.542   4.644  18.312  0.00  0.00    +0.000 C 
BRANCH  14  17
ATOM     16  N   UNL     1      48.712   4.857  21.964  0.00  0.00    +0.000 NA
ATOM     17  C   UNL     1      48.360   5.048  20.768  0.00  0.00    +0.000 C 
ENDBRANCH  14  17
ENDBRANCH   3  15
ENDBRANCH   1   6
BRANCH   1  18
ATOM     18  C   UNL     1      46.780   6.735  12.363  0.00  0.00    +0.000 C 
BRANCH  18  19
ATOM     19  C   UNL     1      45.500   7.016  11.581  0.00  0.00    +0.000 C 
BRANCH  19  20
ATOM     20  C   UNL     1      45.180   5.784  10.764  0.00  0.00    +0.000 A 
ATOM     21  C   UNL     1      44.073   4.994  11.092  0.00  0.00    +0.000 A 
ATOM     22  C   UNL     1      43.681   3.956  10.248  0.00  0.00    +0.000 A 
ATOM     23  C   UNL     1      44.388   3.692   9.072  0.00  0.00    +0.000 A 
ATOM     24  C   UNL     1      45.502   4.459   8.736  0.00  0.00    +0.000 A 
ATOM     25  C   UNL     1      45.891   5.502   9.583  0.00  0.00    +0.000 A 
BRANCH  24  26
ATOM     26  O   UNL     1      46.249   4.322   7.597  0.00  0.00    +0.000 OA
BRANCH  26  27
ATOM     27  C   UNL     1      46.137   3.102   6.861  0.00  0.00    +0.000 C 
ATOM     28  C   UNL     1      46.860   1.950   7.557  0.00  0.00    +0.000 C 
ATOM     29  C   UNL     1      47.421   1.059   6.457  0.00  0.00    +0.000 C 
ATOM     30  C   UNL     1      47.302   1.837   5.152  0.00  0.00    +0.000 C 
ATOM     31  C   UNL     1      46.877   3.247   5.532  0.00  0.00    +0.000 C 
ENDBRANCH  26  27
ENDBRANCH  24  26
ENDBRANCH  19  20
ENDBRANCH  18  19
ENDBRANCH   1  18
TORSDOF 9
ENDMDL
MODEL 5
REMARK VINA RESULT:    -6.651      2.357      3.961
REMARK INTER + INTRA:         -11.144
REMARK INTER:                  -9.850
REMARK INTRA:                  -1.294
REMARK UNBOUND:                -0.994
REMARK  Name = 
REMARK  9 active torsions:
REMARK  status: ('A' for Active; 'I' for Inactive)
REMARK    1  A    between atoms: C_2  and  C_3
REMARK    2  A    between atoms: C_4  and  C_5
REMARK    3  A    between atoms: C_8  and  N_9
REMARK    4  A    between atoms: N_9  and  C_10
REMARK    5  A    between atoms: C_10  and  C_11
REMARK    6  A    between atoms: C_11  and  C_12
REMARK    7  A    between atoms: C_16  and  O_17
REMARK    8  A    between atoms: O_17  and  C_18
REMARK    9  A    between atoms: C_25  and  C_26
REMARK                            x       y       z     vdW  Elec       q    Type
REMARK                         _______ _______ _______ _____ _____    ______ ____
ROOT
ATOM      1  N   UNL     1      48.250   7.826  15.791  0.00  0.00    +0.000 N 
ATOM      2  H   UNL     1      47.448   8.195  16.285  0.00  0.00    +0.000 HD
ENDROOT
BRANCH   1   6
ATOM      3  C   UNL     1      50.076   4.498  17.485  0.00  0.00    +0.000 A 
ATOM      4  C   UNL     1      50.582   5.792  17.529  0.00  0.00    +0.000 A 
ATOM      5  N   UNL     1      49.979   6.882  16.993  0.00  0.00    +0.000 NA
ATOM      6  C   UNL     1      48.818   6.704  16.342  0.00  0.00    +0.000 A 
ATOM      7  C   UNL     1      48.237   5.441  16.249  0.00  0.00    +0.000 A 
ATOM      8  C   UNL     1      48.849   4.337  16.839  0.00  0.00    +0.000 A 
BRANCH   8   9
ATOM      9  C   UNL     1      48.172   3.015  16.724  0.00  0.00    +0.000 C 
ATOM     10  N   UNL     1      47.124   2.767  17.575  0.00  0.00    +0.000 N 
ATOM     11  O   UNL     1      48.520   2.163  15.921  0.00  0.00    +0.000 OA
ATOM     12  H   UNL     1      46.873   3.351  18.361  0.00  0.00    +0.000 HD
ATOM     13  H   UNL     1      46.707   1.843  17.529  0.00  0.00    +0.000 HD
ENDBRANCH   8   9
BRANCH   3  15
ATOM     14  C   UNL     1      51.846   2.812  17.413  0.00  0.00    +0.000 C 
ATOM     15  C   UNL     1      50.854   3.411  18.087  0.00  0.00    +0.000 C 
BRANCH  14  17
ATOM     16  N   UNL     1      53.238   0.661  18.494  0.00  0.00    +0.000 NA
ATOM     17  C   UNL     1      52.606   1.637  18.004  0.00  0.00    +0.000 C 
ENDBRANCH  14  17
ENDBRANCH   3  15
ENDBRANCH   1   6
BRANCH   1  18
ATOM     18  C   UNL     1      48.767   8.435  14.586  0.00  0.00    +0.000 C 
BRANCH  18  19
ATOM     19  C   UNL     1      48.764   7.506  13.376  0.00  0.00    +0.000 C 
BRANCH  19  20
ATOM     20  C   UNL     1      47.327   7.320  12.943  0.00  0.00    +0.000 A 
ATOM     21  C   UNL     1      46.509   8.434  12.729  0.00  0.00    +0.000 A 
ATOM     22  C   UNL     1      45.240   8.274  12.174  0.00  0.00    +0.000 A 
ATOM     23  C   UNL     1      44.772   7.003  11.830  0.00  0.00    +0.000 A 
ATOM     24  C   UNL     1      45.566   5.879  12.050  0.00  0.00    +0.000 A 
ATOM     25  C   UNL     1      46.840   6.044  12.603  0.00  0.00    +0.000 A 
BRANCH  24  26
ATOM     26  O   UNL     1      45.233   4.592  11.720  0.00  0.00    +0.000 OA
BRANCH  26  27
ATOM     27  C   UNL     1      44.597   4.364  10.461  0.00  0.00    +0.000 C 
ATOM     28  C   UNL     1      44.375   2.875  10.200  0.00  0.00    +0.000 C 
ATOM     29  C   UNL     1      44.536   2.667   8.700  0.00  0.00    +0.000 C 
ATOM     30  C   UNL     1      45.149   3.944   8.138  0.00  0.00    +0.000 C 
ATOM     31  C   UNL     1      45.538   4.795   9.337  0.00  0.00    +0.000 C 
ENDBRANCH  26  27
ENDBRANCH  24  26
ENDBRANCH  19  20
ENDBRANCH  18  19
ENDBRANCH   1  18
TORSDOF 9
ENDMDL
MODEL 6
REMARK VINA RESULT:    -6.629      4.279      7.859
REMARK INTER + INTRA:         -11.111
REMARK INTER:                 -10.238
REMARK INTRA:                  -0.873
REMARK UNBOUND:                -0.994
REMARK  Name = 
REMARK  9 active torsions:
REMARK  status: ('A' for Active; 'I' for Inactive)
REMARK    1  A    between atoms: C_2  and  C_3
REMARK    2  A    between atoms: C_4  and  C_5
REMARK    3  A    between atoms: C_8  and  N_9
REMARK    4  A    between atoms: N_9  and  C_10
REMARK    5  A    between atoms: C_10  and  C_11
REMARK    6  A    between atoms: C_11  and  C_12
REMARK    7  A    between atoms: C_16  and  O_17
REMARK    8  A    between atoms: O_17  and  C_18
REMARK    9  A    between atoms: C_25  and  C_26
REMARK                            x       y       z     vdW  Elec       q    Type
REMARK                         _______ _______ _______ _____ _____    ______ ____
ROOT
ATOM      1  N   UNL     1      46.219   1.612   7.170  0.00  0.00    +0.000 N 
ATOM      2  H   UNL     1      45.535   0.882   7.028  0.00  0.00    +0.000 HD
ENDROOT
BRANCH   1   6
ATOM      3  C   UNL     1      45.223   4.636   9.843  0.00  0.00    +0.000 A 
ATOM      4  C   UNL     1      45.881   4.828   8.634  0.00  0.00    +0.000 A 
ATOM      5  N   UNL     1      46.191   3.845   7.752  0.00  0.00    +0.000 NA
ATOM      6  C   UNL     1      45.867   2.583   8.076  0.00  0.00    +0.000 A 
ATOM      7  C   UNL     1      45.205   2.298   9.268  0.00  0.00    +0.000 A 
ATOM      8  C   UNL     1      44.858   3.323  10.146  0.00  0.00    +0.000 A 
BRANCH   8   9
ATOM      9  C   UNL     1      44.133   2.960  11.396  0.00  0.00    +0.000 C 
ATOM     10  N   UNL     1      44.886   2.757  12.525  0.00  0.00    +0.000 N 
ATOM     11  O   UNL     1      42.918   2.832  11.440  0.00  0.00    +0.000 OA
ATOM     12  H   UNL     1      45.894   2.695  12.539  0.00  0.00    +0.000 HD
ATOM     13  H   UNL     1      44.388   2.453  13.356  0.00  0.00    +0.000 HD
ENDBRANCH   8   9
BRANCH   3  15
ATOM     14  C   UNL     1      45.993   6.490  11.240  0.00  0.00    +0.000 C 
ATOM     15  C   UNL     1      44.978   5.793  10.710  0.00  0.00    +0.000 C 
BRANCH  14  17
ATOM     16  N   UNL     1      45.540   8.602  12.991  0.00  0.00    +0.000 NA
ATOM     17  C   UNL     1      45.745   7.644  12.196  0.00  0.00    +0.000 C 
ENDBRANCH  14  17
ENDBRANCH   3  15
ENDBRANCH   1   6
BRANCH   1  18
ATOM     18  C   UNL     1      47.484   1.638   6.471  0.00  0.00    +0.000 C 
BRANCH  18  19
ATOM     19  C   UNL     1      47.394   2.197   5.054  0.00  0.00    +0.000 C 
BRANCH  19  20
ATOM     20  C   UNL     1      46.750   1.140   4.183  0.00  0.00    +0.000 A 
ATOM     21  C   UNL     1      45.827   1.510   3.198  0.00  0.00    +0.000 A 
ATOM     22  C   UNL     1      45.358   0.563   2.289  0.00  0.00    +0.000 A 
ATOM     23  C   UNL     1      45.801  -0.761   2.353  0.00  0.00    +0.000 A 
ATOM     24  C   UNL     1      46.708  -1.151   3.336  0.00  0.00    +0.000 A 
ATOM     25  C   UNL     1      47.180  -0.198   4.244  0.00  0.00    +0.000 A 
BRANCH  24  26
ATOM     26  O   UNL     1      47.242  -2.405   3.475  0.00  0.00    +0.000 OA
BRANCH  26  27
ATOM     27  C   UNL     1      46.383  -3.456   3.923  0.00  0.00    +0.000 C 
ATOM     28  C   UNL     1      47.005  -4.246   5.073  0.00  0.00    +0.000 C 
ATOM     29  C   UNL     1      46.550  -5.690   4.907  0.00  0.00    +0.000 C 
ATOM     30  C   UNL     1      45.936  -5.805   3.517  0.00  0.00    +0.000 C 
ATOM     31  C   UNL     1      46.233  -4.492   2.809  0.00  0.00    +0.000 C 
ENDBRANCH  26  27
ENDBRANCH  24  26
ENDBRANCH  19  20
ENDBRANCH  18  19
ENDBRANCH   1  18
TORSDOF 9
ENDMDL
MODEL 7
REMARK VINA RESULT:    -6.418      3.080      3.898
REMARK INTER + INTRA:         -10.788
REMARK INTER:                 -10.244
REMARK INTRA:                  -0.544
REMARK UNBOUND:                -0.994
REMARK  Name = 
REMARK  9 active torsions:
REMARK  status: ('A' for Active; 'I' for Inactive)
REMARK    1  A    between atoms: C_2  and  C_3
REMARK    2  A    between atoms: C_4  and  C_5
REMARK    3  A    between atoms: C_8  and  N_9
REMARK    4  A    between atoms: N_9  and  C_10
REMARK    5  A    between atoms: C_10  and  C_11
REMARK    6  A    between atoms: C_11  and  C_12
REMARK    7  A    between atoms: C_16  and  O_17
REMARK    8  A    between atoms: O_17  and  C_18
REMARK    9  A    between atoms: C_25  and  C_26
REMARK                            x       y       z     vdW  Elec       q    Type
REMARK                         _______ _______ _______ _____ _____    ______ ____
ROOT
ATOM      1  N   UNL     1      46.893   5.318  13.166  0.00  0.00    +0.000 N 
ATOM      2  H   UNL     1      47.107   4.347  12.985  0.00  0.00    +0.000 HD
ENDROOT
BRANCH   1   6
ATOM      3  C   UNL     1      50.135   7.748  14.094  0.00  0.00    +0.000 A 
ATOM      4  C   UNL     1      49.357   7.070  15.025  0.00  0.00    +0.000 A 
ATOM      5  N   UNL     1      48.310   6.262  14.723  0.00  0.00    +0.000 NA
ATOM      6  C   UNL     1      47.973   6.123  13.431  0.00  0.00    +0.000 A 
ATOM      7  C   UNL     1      48.699   6.766  12.430  0.00  0.00    +0.000 A 
ATOM      8  C   UNL     1      49.797   7.561  12.753  0.00  0.00    +0.000 A 
BRANCH   8   9
ATOM      9  C   UNL     1      50.547   8.206  11.639  0.00  0.00    +0.000 C 
ATOM     10  N   UNL     1      51.432   7.425  10.939  0.00  0.00    +0.000 N 
ATOM     11  O   UNL     1      50.407   9.384  11.345  0.00  0.00    +0.000 OA
ATOM     12  H   UNL     1      51.716   6.495  11.212  0.00  0.00    +0.000 HD
ATOM     13  H   UNL     1      51.981   7.888  10.222  0.00  0.00    +0.000 HD
ENDBRANCH   8   9
BRANCH   3  15
ATOM     14  C   UNL     1      50.979   9.848  15.020  0.00  0.00    +0.000 C 
ATOM     15  C   UNL     1      51.222   8.609  14.570  0.00  0.00    +0.000 C 
BRANCH  14  17
ATOM     16  N   UNL     1      53.047  11.537  15.799  0.00  0.00    +0.000 NA
ATOM     17  C   UNL     1      52.109  10.770  15.446  0.00  0.00    +0.000 C 
ENDBRANCH  14  17
ENDBRANCH   3  15
ENDBRANCH   1   6
BRANCH   1  18
ATOM     18  C   UNL     1      45.540   5.831  13.148  0.00  0.00    +0.000 C 
BRANCH  18  19
ATOM     19  C   UNL     1      45.065   6.265  11.764  0.00  0.00    +0.000 C 
BRANCH  19  20
ATOM     20  C   UNL     1      44.945   5.023  10.909  0.00  0.00    +0.000 A 
ATOM     21  C   UNL     1      44.211   3.924  11.367  0.00  0.00    +0.000 A 
ATOM     22  C   UNL     1      43.961   2.847  10.519  0.00  0.00    +0.000 A 
ATOM     23  C   UNL     1      44.443   2.851   9.207  0.00  0.00    +0.000 A 
ATOM     24  C   UNL     1      45.189   3.930   8.736  0.00  0.00    +0.000 A 
ATOM     25  C   UNL     1      45.433   5.012   9.589  0.00  0.00    +0.000 A 
BRANCH  24  26
ATOM     26  O   UNL     1      45.678   4.066   7.465  0.00  0.00    +0.000 OA
BRANCH  26  27
ATOM     27  C   UNL     1      46.822   3.292   7.098  0.00  0.00    +0.000 C 
ATOM     28  C   UNL     1      46.879   3.042   5.592  0.00  0.00    +0.000 C 
ATOM     29  C   UNL     1      47.484   1.657   5.403  0.00  0.00    +0.000 C 
ATOM     30  C   UNL     1      47.488   0.983   6.770  0.00  0.00    +0.000 C 
ATOM     31  C   UNL     1      46.693   1.891   7.695  0.00  0.00    +0.000 C 
ENDBRANCH  26  27
ENDBRANCH  24  26
ENDBRANCH  19  20
ENDBRANCH  18  19
ENDBRANCH   1  18
TORSDOF 9
ENDMDL
MODEL 8
REMARK VINA RESULT:    -6.376      3.691      8.974
REMARK INTER + INTRA:         -10.724
REMARK INTER:                  -9.522
REMARK INTRA:                  -1.203
REMARK UNBOUND:                -0.994
REMARK  Name = 
REMARK  9 active torsions:
REMARK  status: ('A' for Active; 'I' for Inactive)
REMARK    1  A    between atoms: C_2  and  C_3
REMARK    2  A    between atoms: C_4  and  C_5
REMARK    3  A    between atoms: C_8  and  N_9
REMARK    4  A    between atoms: N_9  and  C_10
REMARK    5  A    between atoms: C_10  and  C_11
REMARK    6  A    between atoms: C_11  and  C_12
REMARK    7  A    between atoms: C_16  and  O_17
REMARK    8  A    between atoms: O_17  and  C_18
REMARK    9  A    between atoms: C_25  and  C_26
REMARK                            x       y       z     vdW  Elec       q    Type
REMARK                         _______ _______ _______ _____ _____    ______ ____
ROOT
ATOM      1  N   UNL     1      47.375   3.213  14.801  0.00  0.00    +0.000 N 
ATOM      2  H   UNL     1      47.463   2.356  14.271  0.00  0.00    +0.000 HD
ENDROOT
BRANCH   1   6
ATOM      3  C   UNL     1      46.094   6.567  12.706  0.00  0.00    +0.000 A 
ATOM      4  C   UNL     1      47.338   6.434  13.311  0.00  0.00    +0.000 A 
ATOM      5  N   UNL     1      47.765   5.334  13.979  0.00  0.00    +0.000 NA
ATOM      6  C   UNL     1      46.918   4.299  14.096  0.00  0.00    +0.000 A 
ATOM      7  C   UNL     1      45.650   4.345  13.521  0.00  0.00    +0.000 A 
ATOM      8  C   UNL     1      45.240   5.467  12.803  0.00  0.00    +0.000 A 
BRANCH   8   9
ATOM      9  C   UNL     1      43.881   5.451  12.192  0.00  0.00    +0.000 C 
ATOM     10  N   UNL     1      42.818   5.738  13.011  0.00  0.00    +0.000 N 
ATOM     11  O   UNL     1      43.691   5.186  11.014  0.00  0.00    +0.000 OA
ATOM     12  H   UNL     1      42.874   5.817  14.017  0.00  0.00    +0.000 HD
ATOM     13  H   UNL     1      41.893   5.667  12.600  0.00  0.00    +0.000 HD
ENDBRANCH   8   9
BRANCH   3  15
ATOM     14  C   UNL     1      45.402   8.912  12.743  0.00  0.00    +0.000 C 
ATOM     15  C   UNL     1      45.760   7.829  12.039  0.00  0.00    +0.000 C 
BRANCH  14  17
ATOM     16  N   UNL     1      44.637  11.270  11.483  0.00  0.00    +0.000 NA
ATOM     17  C   UNL     1      44.984  10.200  12.055  0.00  0.00    +0.000 C 
ENDBRANCH  14  17
ENDBRANCH   3  15
ENDBRANCH   1   6
BRANCH   1  18
ATOM     18  C   UNL     1      47.708   3.294  16.206  0.00  0.00    +0.000 C 
BRANCH  18  19
ATOM     19  C   UNL     1      48.786   2.306  16.642  0.00  0.00    +0.000 C 
BRANCH  19  20
ATOM     20  C   UNL     1      49.800   3.066  17.468  0.00  0.00    +0.000 A 
ATOM     21  C   UNL     1      51.151   2.705  17.426  0.00  0.00    +0.000 A 
ATOM     22  C   UNL     1      52.107   3.501  18.053  0.00  0.00    +0.000 A 
ATOM     23  C   UNL     1      51.728   4.664  18.731  0.00  0.00    +0.000 A 
ATOM     24  C   UNL     1      50.386   5.032  18.796  0.00  0.00    +0.000 A 
ATOM     25  C   UNL     1      49.429   4.233  18.162  0.00  0.00    +0.000 A 
BRANCH  24  26
ATOM     26  O   UNL     1      49.898   6.163  19.395  0.00  0.00    +0.000 OA
BRANCH  26  27
ATOM     27  C   UNL     1      48.820   6.850  18.757  0.00  0.00    +0.000 C 
ATOM     28  C   UNL     1      49.307   8.062  17.967  0.00  0.00    +0.000 C 
ATOM     29  C   UNL     1      48.218   9.121  18.075  0.00  0.00    +0.000 C 
ATOM     30  C   UNL     1      47.257   8.659  19.164  0.00  0.00    +0.000 C 
ATOM     31  C   UNL     1      47.908   7.455  19.825  0.00  0.00    +0.000 C 
ENDBRANCH  26  27
ENDBRANCH  24  26
ENDBRANCH  19  20
ENDBRANCH  18  19
ENDBRANCH   1  18
TORSDOF 9
ENDMDL
MODEL 9
REMARK VINA RESULT:    -6.281      3.263      8.047
REMARK INTER + INTRA:         -10.579
REMARK INTER:                  -9.121
REMARK INTRA:                  -1.458
REMARK UNBOUND:                -0.994
REMARK  Name = 
REMARK  9 active torsions:
REMARK  status: ('A' for Active; 'I' for Inactive)
REMARK    1  A    between atoms: C_2  and  C_3
REMARK    2  A    between atoms: C_4  and  C_5
REMARK    3  A    between atoms: C_8  and  N_9
REMARK    4  A    between atoms: N_9  and  C_10
REMARK    5  A    between atoms: C_10  and  C_11
REMARK    6  A    between atoms: C_11  and  C_12
REMARK    7  A    between atoms: C_16  and  O_17
REMARK    8  A    between atoms: O_17  and  C_18
REMARK    9  A    between atoms: C_25  and  C_26
REMARK                            x       y       z     vdW  Elec       q    Type
REMARK                         _______ _______ _______ _____ _____    ______ ____
ROOT
ATOM      1  N   UNL     1      48.379   8.890  13.957  0.00  0.00    +0.000 N 
ATOM      2  H   UNL     1      48.921   9.370  13.252  0.00  0.00    +0.000 HD
ENDROOT
BRANCH   1   6
ATOM      3  C   UNL     1      46.345   5.539  12.574  0.00  0.00    +0.000 A 
ATOM      4  C   UNL     1      46.431   6.751  11.901  0.00  0.00    +0.000 A 
ATOM      5  N   UNL     1      47.110   7.840  12.341  0.00  0.00    +0.000 NA
ATOM      6  C   UNL     1      47.724   7.760  13.532  0.00  0.00    +0.000 A 
ATOM      7  C   UNL     1      47.690   6.583  14.277  0.00  0.00    +0.000 A 
ATOM      8  C   UNL     1      47.022   5.459  13.792  0.00  0.00    +0.000 A 
BRANCH   8   9
ATOM      9  C   UNL     1      47.038   4.223  14.622  0.00  0.00    +0.000 C 
ATOM     10  N   UNL     1      46.549   4.315  15.901  0.00  0.00    +0.000 N 
ATOM     11  O   UNL     1      47.471   3.156  14.209  0.00  0.00    +0.000 OA
ATOM     12  H   UNL     1      46.317   5.182  16.364  0.00  0.00    +0.000 HD
ATOM     13  H   UNL     1      46.619   3.482  16.477  0.00  0.00    +0.000 HD
ENDBRANCH   8   9
BRANCH   3  15
ATOM     14  C   UNL     1      44.327   4.163  12.448  0.00  0.00    +0.000 C 
ATOM     15  C   UNL     1      45.552   4.455  11.987  0.00  0.00    +0.000 C 
BRANCH  14  17
ATOM     16  N   UNL     1      42.870   2.024  11.430  0.00  0.00    +0.000 NA
ATOM     17  C   UNL     1      43.531   2.994  11.892  0.00  0.00    +0.000 C 
ENDBRANCH  14  17
ENDBRANCH   3  15
ENDBRANCH   1   6
BRANCH   1  18
ATOM     18  C   UNL     1      48.297   9.356  15.324  0.00  0.00    +0.000 C 
BRANCH  18  19
ATOM     19  C   UNL     1      49.445   8.878  16.208  0.00  0.00    +0.000 C 
BRANCH  19  20
ATOM     20  C   UNL     1      48.844   8.126  17.375  0.00  0.00    +0.000 A 
ATOM     21  C   UNL     1      47.978   8.780  18.259  0.00  0.00    +0.000 A 
ATOM     22  C   UNL     1      47.297   8.054  19.235  0.00  0.00    +0.000 A 
ATOM     23  C   UNL     1      47.472   6.672  19.342  0.00  0.00    +0.000 A 
ATOM     24  C   UNL     1      48.342   6.006  18.481  0.00  0.00    +0.000 A 
ATOM     25  C   UNL     1      49.021   6.736  17.500  0.00  0.00    +0.000 A 
BRANCH  24  26
ATOM     26  O   UNL     1      48.566   4.655  18.463  0.00  0.00    +0.000 OA
BRANCH  26  27
ATOM     27  C   UNL     1      49.628   4.160  17.645  0.00  0.00    +0.000 C 
ATOM     28  C   UNL     1      49.374   2.724  17.191  0.00  0.00    +0.000 C 
ATOM     29  C   UNL     1      50.732   2.039  17.128  0.00  0.00    +0.000 C 
ATOM     30  C   UNL     1      51.725   2.956  17.832  0.00  0.00    +0.000 C 
ATOM     31  C   UNL     1      50.902   4.056  18.483  0.00  0.00    +0.000 C 
ENDBRANCH  26  27
ENDBRANCH  24  26
ENDBRANCH  19  20
ENDBRANCH  18  19
ENDBRANCH   1  18
TORSDOF 9
ENDMDL
