MODEL 1
REMARK VINA RESULT:    -7.881      0.000      0.000
REMARK INTER + INTRA:         -11.459
REMARK INTER:                 -10.645
REMARK INTRA:                  -0.814
REMARK UNBOUND:                -0.814
REMARK  Name = 
REMARK  6 active torsions:
REMARK  status: ('A' for Active; 'I' for Inactive)
REMARK    1  A    between atoms: C_2  and  C_19
REMARK    2  A    between atoms: N_3  and  C_4
REMARK    3  A    between atoms: C_4  and  C_5
REMARK    4  A    between atoms: C_8  and  N_9
REMARK    5  A    between atoms: N_9  and  C_10
REMARK    6  A    between atoms: C_10  and  C_11
REMARK                            x       y       z     vdW  Elec       q    Type
REMARK                         _______ _______ _______ _____ _____    ______ ____
ROOT
ATOM      1  C   UNL     1      44.095   3.942   9.451  0.00  0.00    +0.000 C 
ENDROOT
BRANCH   1   2
ATOM      2  C   UNL     1      45.133   3.264   8.589  0.00  0.00    +0.000 A 
ATOM      3  N   UNL     1      45.624   3.925   7.524  0.00  0.00    +0.000 NA
ATOM      4  C   UNL     1      46.497   3.243   6.746  0.00  0.00    +0.000 A 
ATOM      5  C   UNL     1      46.913   1.946   6.978  0.00  0.00    +0.000 A 
ATOM      6  C   UNL     1      46.280   1.352   8.052  0.00  0.00    +0.000 A 
ATOM      7  N   UNL     1      45.393   1.973   8.864  0.00  0.00    +0.000 NA
BRANCH   5   8
ATOM      8  N   UNL     1      47.818   1.312   6.112  0.00  0.00    +0.000 N 
ATOM      9  H   UNL     1      48.770   1.411   6.470  0.00  0.00    +0.000 HD
BRANCH   8  10
ATOM     10  C   UNL     1      47.763   1.721   4.702  0.00  0.00    +0.000 C 
BRANCH  10  11
ATOM     11  C   UNL     1      46.992   0.725   3.874  0.00  0.00    +0.000 A 
ATOM     12  C   UNL     1      45.879   1.129   3.141  0.00  0.00    +0.000 A 
ATOM     13  N   UNL     1      45.187   0.292   2.332  0.00  0.00    +0.000 NA
ATOM     14  C   UNL     1      45.652  -0.975   2.280  0.00  0.00    +0.000 A 
ATOM     15  C   UNL     1      46.756  -1.389   3.007  0.00  0.00    +0.000 A 
ATOM     16  N   UNL     1      47.447  -0.555   3.817  0.00  0.00    +0.000 NA
ENDBRANCH  10  11
ENDBRANCH   8  10
ENDBRANCH   5   8
ENDBRANCH   1   2
BRANCH   1  19
ATOM     17  O   UNL     1      42.757   5.517  11.321  0.00  0.00    +0.000 OA
ATOM     18  C   UNL     1      43.929   5.769  11.071  0.00  0.00    +0.000 C 
ATOM     19  N   UNL     1      44.666   5.070  10.157  0.00  0.00    +0.000 N 
ATOM     20  H   UNL     1      45.514   5.479   9.787  0.00  0.00    +0.000 HD
BRANCH  18  21
ATOM     21  C   UNL     1      44.677   6.779  11.808  0.00  0.00    +0.000 A 
ATOM     22  C   UNL     1      44.628   8.137  11.544  0.00  0.00    +0.000 A 
ATOM     23  S   UNL     1      45.939   8.983  12.253  0.00  0.00    +0.000 S 
ATOM     24  C   UNL     1      46.523   7.565  12.996  0.00  0.00    +0.000 A 
ATOM     25  N   UNL     1      47.695   7.535  13.684  0.00  0.00    +0.000 NA
ATOM     26  C   UNL     1      47.950   6.395  14.238  0.00  0.00    +0.000 A 
ATOM     27  N   UNL     1      47.120   5.300  14.211  0.00  0.00    +0.000 N 
ATOM     28  C   UNL     1      45.899   5.303  13.574  0.00  0.00    +0.000 A 
ATOM     29  O   UNL     1      45.079   4.410  13.742  0.00  0.00    +0.000 OA
ATOM     30  C   UNL     1      45.654   6.510  12.816  0.00  0.00    +0.000 A 
ATOM     31  H   UNL     1      47.316   4.489  14.777  0.00  0.00    +0.000 HD
ENDBRANCH  18  21
ENDBRANCH   1  19
TORSDOF 6
ENDMDL
MODEL 2
REMARK VINA RESULT:    -7.640      3.713      6.444
REMARK INTER + INTRA:         -11.135
REMARK INTER:                 -10.346
REMARK INTRA:                  -0.788
REMARK UNBOUND:                -0.814
REMARK  Name = 
REMARK  6 active torsions:
REMARK  status: ('A' for Active; 'I' for Inactive)
REMARK    1  A    between atoms: C_2  and  C_19
REMARK    2  A    between atoms: N_3  and  C_4
REMARK    3  A    between atoms: C_4  and  C_5
REMARK    4  A    between atoms: C_8  and  N_9
REMARK    5  A    between atoms: N_9  and  C_10
REMARK    6  A    between atoms: C_10  and  C_11
REMARK                            x       y       z     vdW  Elec       q    Type
REMARK                         _______ _______ _______ _____ _____    ______ ____
ROOT
ATOM      1  C   UNL     1      47.283   3.968  15.066  0.00  0.00    +0.000 C 
ENDROOT
BRANCH   1   2
ATOM      2  C   UNL     1      46.546   4.352  13.806  0.00  0.00    +0.000 A 
ATOM      3  N   UNL     1      45.666   3.482  13.277  0.00  0.00    +0.000 NA
ATOM      4  C   UNL     1      45.089   3.848  12.109  0.00  0.00    +0.000 A 
ATOM      5  C   UNL     1      45.333   5.037  11.448  0.00  0.00    +0.000 A 
ATOM      6  C   UNL     1      46.309   5.807  12.048  0.00  0.00    +0.000 A 
ATOM      7  N   UNL     1      46.931   5.496  13.209  0.00  0.00    +0.000 NA
BRANCH   5   8
ATOM      8  N   UNL     1      44.693   5.332  10.234  0.00  0.00    +0.000 N 
ATOM      9  H   UNL     1      43.982   6.051  10.380  0.00  0.00    +0.000 HD
BRANCH   8  10
ATOM     10  C   UNL     1      44.117   4.192   9.508  0.00  0.00    +0.000 C 
BRANCH  10  11
ATOM     11  C   UNL     1      45.175   3.440   8.742  0.00  0.00    +0.000 A 
ATOM     12  C   UNL     1      45.351   2.073   8.939  0.00  0.00    +0.000 A 
ATOM     13  N   UNL     1      46.242   1.336   8.234  0.00  0.00    +0.000 NA
ATOM     14  C   UNL     1      46.957   2.020   7.315  0.00  0.00    +0.000 A 
ATOM     15  C   UNL     1      46.793   3.381   7.113  0.00  0.00    +0.000 A 
ATOM     16  N   UNL     1      45.905   4.119   7.817  0.00  0.00    +0.000 NA
ENDBRANCH  10  11
ENDBRANCH   8  10
ENDBRANCH   5   8
ENDBRANCH   1   2
BRANCH   1  19
ATOM     17  O   UNL     1      49.493   4.353  16.720  0.00  0.00    +0.000 OA
ATOM     18  C   UNL     1      48.637   5.227  16.670  0.00  0.00    +0.000 C 
ATOM     19  N   UNL     1      47.508   5.125  15.907  0.00  0.00    +0.000 N 
ATOM     20  H   UNL     1      46.718   5.723  16.109  0.00  0.00    +0.000 HD
BRANCH  18  21
ATOM     21  C   UNL     1      48.799   6.507  17.346  0.00  0.00    +0.000 A 
ATOM     22  C   UNL     1      49.589   7.544  16.880  0.00  0.00    +0.000 A 
ATOM     23  S   UNL     1      49.931   8.698  18.100  0.00  0.00    +0.000 S 
ATOM     24  C   UNL     1      48.949   7.878  19.226  0.00  0.00    +0.000 A 
ATOM     25  N   UNL     1      48.865   8.258  20.528  0.00  0.00    +0.000 NA
ATOM     26  C   UNL     1      48.023   7.565  21.224  0.00  0.00    +0.000 A 
ATOM     27  N   UNL     1      47.222   6.564  20.728  0.00  0.00    +0.000 N 
ATOM     28  C   UNL     1      47.235   6.184  19.405  0.00  0.00    +0.000 A 
ATOM     29  O   UNL     1      46.372   5.455  18.933  0.00  0.00    +0.000 OA
ATOM     30  C   UNL     1      48.273   6.831  18.635  0.00  0.00    +0.000 A 
ATOM     31  H   UNL     1      46.492   6.160  21.293  0.00  0.00    +0.000 HD
ENDBRANCH  18  21
ENDBRANCH   1  19
TORSDOF 6
ENDMDL
MODEL 3
REMARK VINA RESULT:    -7.590      4.010      6.855
REMARK INTER + INTRA:         -11.066
REMARK INTER:                 -10.072
REMARK INTRA:                  -0.994
REMARK UNBOUND:                -0.814
REMARK  Name = 
REMARK  6 active torsions:
REMARK  status: ('A' for Active; 'I' for Inactive)
REMARK    1  A    between atoms: C_2  and  C_19
REMARK    2  A    between atoms: N_3  and  C_4
REMARK    3  A    between atoms: C_4  and  C_5
REMARK    4  A    between atoms: C_8  and  N_9
REMARK    5  A    between atoms: N_9  and  C_10
REMARK    6  A    between atoms: C_10  and  C_11
REMARK                            x       y       z     vdW  Elec       q    Type
REMARK                         _______ _______ _______ _____ _____    ______ ____
ROOT
ATOM      1  C   UNL     1      48.014   6.928  14.048  0.00  0.00    +0.000 C 
ENDROOT
BRANCH   1   2
ATOM      2  C   UNL     1      47.065   5.833  13.623  0.00  0.00    +0.000 A 
ATOM      3  N   UNL     1      47.470   4.552  13.715  0.00  0.00    +0.000 NA
ATOM      4  C   UNL     1      46.608   3.617  13.253  0.00  0.00    +0.000 A 
ATOM      5  C   UNL     1      45.364   3.888  12.717  0.00  0.00    +0.000 A 
ATOM      6  C   UNL     1      45.098   5.238  12.605  0.00  0.00    +0.000 A 
ATOM      7  N   UNL     1      45.918   6.224  13.039  0.00  0.00    +0.000 NA
BRANCH   5   8
ATOM      8  N   UNL     1      44.536   2.854  12.254  0.00  0.00    +0.000 N 
ATOM      9  H   UNL     1      45.091   2.014  12.080  0.00  0.00    +0.000 HD
BRANCH   8  10
ATOM     10  C   UNL     1      43.705   3.161  11.082  0.00  0.00    +0.000 C 
BRANCH  10  11
ATOM     11  C   UNL     1      44.518   3.133   9.813  0.00  0.00    +0.000 A 
ATOM     12  C   UNL     1      44.739   4.303   9.091  0.00  0.00    +0.000 A 
ATOM     13  N   UNL     1      45.513   4.348   7.981  0.00  0.00    +0.000 NA
ATOM     14  C   UNL     1      46.063   3.170   7.614  0.00  0.00    +0.000 A 
ATOM     15  C   UNL     1      45.847   2.000   8.322  0.00  0.00    +0.000 A 
ATOM     16  N   UNL     1      45.073   1.952   9.430  0.00  0.00    +0.000 NA
ENDBRANCH  10  11
ENDBRANCH   8  10
ENDBRANCH   5   8
ENDBRANCH   1   2
BRANCH   1  19
ATOM     17  O   UNL     1      50.289   6.486  15.597  0.00  0.00    +0.000 OA
ATOM     18  C   UNL     1      49.249   6.807  16.158  0.00  0.00    +0.000 C 
ATOM     19  N   UNL     1      48.076   7.027  15.492  0.00  0.00    +0.000 N 
ATOM     20  H   UNL     1      47.205   7.011  16.005  0.00  0.00    +0.000 HD
BRANCH  18  21
ATOM     21  C   UNL     1      49.196   7.087  17.586  0.00  0.00    +0.000 A 
ATOM     22  C   UNL     1      49.660   8.253  18.174  0.00  0.00    +0.000 A 
ATOM     23  S   UNL     1      49.879   8.084  19.865  0.00  0.00    +0.000 S 
ATOM     24  C   UNL     1      49.266   6.494  19.840  0.00  0.00    +0.000 A 
ATOM     25  N   UNL     1      49.265   5.699  20.943  0.00  0.00    +0.000 NA
ATOM     26  C   UNL     1      48.702   4.549  20.761  0.00  0.00    +0.000 A 
ATOM     27  N   UNL     1      48.097   4.140  19.596  0.00  0.00    +0.000 N 
ATOM     28  C   UNL     1      48.027   4.934  18.473  0.00  0.00    +0.000 A 
ATOM     29  O   UNL     1      47.303   4.653  17.526  0.00  0.00    +0.000 OA
ATOM     30  C   UNL     1      48.780   6.162  18.593  0.00  0.00    +0.000 A 
ATOM     31  H   UNL     1      47.559   3.289  19.565  0.00  0.00    +0.000 HD
ENDBRANCH  18  21
ENDBRANCH   1  19
TORSDOF 6
ENDMDL
MODEL 4
REMARK VINA RESULT:    -7.391      3.482      5.949
REMARK INTER + INTRA:         -10.797
REMARK INTER:                  -9.815
REMARK INTRA:                  -0.983
REMARK UNBOUND:                -0.814
REMARK  Name = 
REMARK  6 active torsions:
REMARK  status: ('A' for Active; 'I' for Inactive)
REMARK    1  A    between atoms: C_2  and  C_19
REMARK    2  A    between atoms: N_3  and  C_4
REMARK    3  A    between atoms: C_4  and  C_5
REMARK    4  A    between atoms: C_8  and  N_9
REMARK    5  A    between atoms: N_9  and  C_10
REMARK    6  A    between atoms: C_10  and  C_11
REMARK                            x       y       z     vdW  Elec       q    Type
REMARK                         _______ _______ _______ _____ _____    ______ ____
ROOT
ATOM      1  C   UNL     1      47.709   6.867  14.273  0.00  0.00    +0.000 C 
ENDROOT
BRANCH   1   2
ATOM      2  C   UNL     1      46.868   5.750  13.702  0.00  0.00    +0.000 A 
ATOM      3  N   UNL     1      45.580   5.996  13.401  0.00  0.00    +0.000 NA
ATOM      4  C   UNL     1      44.855   4.941  12.961  0.00  0.00    +0.000 A 
ATOM      5  C   UNL     1      45.347   3.661  12.796  0.00  0.00    +0.000 A 
ATOM      6  C   UNL     1      46.656   3.519  13.212  0.00  0.00    +0.000 A 
ATOM      7  N   UNL     1      47.433   4.529  13.669  0.00  0.00    +0.000 NA
BRANCH   5   8
ATOM      8  N   UNL     1      44.519   2.623  12.342  0.00  0.00    +0.000 N 
ATOM      9  H   UNL     1      45.080   1.794  12.136  0.00  0.00    +0.000 HD
BRANCH   8  10
ATOM     10  C   UNL     1      43.648   2.938  11.202  0.00  0.00    +0.000 C 
BRANCH  10  11
ATOM     11  C   UNL     1      44.440   3.063   9.926  0.00  0.00    +0.000 A 
ATOM     12  C   UNL     1      44.586   4.301   9.304  0.00  0.00    +0.000 A 
ATOM     13  N   UNL     1      45.339   4.482   8.193  0.00  0.00    +0.000 NA
ATOM     14  C   UNL     1      45.945   3.372   7.720  0.00  0.00    +0.000 A 
ATOM     15  C   UNL     1      45.804   2.136   8.327  0.00  0.00    +0.000 A 
ATOM     16  N   UNL     1      45.052   1.952   9.436  0.00  0.00    +0.000 NA
ENDBRANCH  10  11
ENDBRANCH   8  10
ENDBRANCH   5   8
ENDBRANCH   1   2
BRANCH   1  19
ATOM     17  O   UNL     1      48.401   7.882  11.770  0.00  0.00    +0.000 OA
ATOM     18  C   UNL     1      47.672   8.549  12.494  0.00  0.00    +0.000 C 
ATOM     19  N   UNL     1      47.292   8.149  13.745  0.00  0.00    +0.000 N 
ATOM     20  H   UNL     1      46.936   8.835  14.397  0.00  0.00    +0.000 HD
BRANCH  18  21
ATOM     21  C   UNL     1      47.058   9.788  12.041  0.00  0.00    +0.000 A 
ATOM     22  C   UNL     1      47.703  11.014  12.002  0.00  0.00    +0.000 A 
ATOM     23  S   UNL     1      46.603  12.322  11.873  0.00  0.00    +0.000 S 
ATOM     24  C   UNL     1      45.272  11.263  11.768  0.00  0.00    +0.000 A 
ATOM     25  N   UNL     1      43.988  11.710  11.747  0.00  0.00    +0.000 NA
ATOM     26  C   UNL     1      43.109  10.774  11.597  0.00  0.00    +0.000 A 
ATOM     27  N   UNL     1      43.395   9.441  11.416  0.00  0.00    +0.000 N 
ATOM     28  C   UNL     1      44.681   8.953  11.375  0.00  0.00    +0.000 A 
ATOM     29  O   UNL     1      44.930   7.815  10.997  0.00  0.00    +0.000 OA
ATOM     30  C   UNL     1      45.681   9.948  11.694  0.00  0.00    +0.000 A 
ATOM     31  H   UNL     1      42.670   8.787  11.168  0.00  0.00    +0.000 HD
ENDBRANCH  18  21
ENDBRANCH   1  19
TORSDOF 6
ENDMDL
MODEL 5
REMARK VINA RESULT:    -7.361      3.359      6.014
REMARK INTER + INTRA:         -10.757
REMARK INTER:                  -9.880
REMARK INTRA:                  -0.877
REMARK UNBOUND:                -0.814
REMARK  Name = 
REMARK  6 active torsions:
REMARK  status: ('A' for Active; 'I' for Inactive)
REMARK    1  A    between atoms: C_2  and  C_19
REMARK    2  A    between atoms: N_3  and  C_4
REMARK    3  A    between atoms: C_4  and  C_5
REMARK    4  A    between atoms: C_8  and  N_9
REMARK    5  A    between atoms: N_9  and  C_10
REMARK    6  A    between atoms: C_10  and  C_11
REMARK                            x       y       z     vdW  Elec       q    Type
REMARK                         _______ _______ _______ _____ _____    ______ ____
ROOT
ATOM      1  C   UNL     1      47.901   7.233  13.369  0.00  0.00    +0.000 C 
ENDROOT
BRANCH   1   2
ATOM      2  C   UNL     1      46.964   6.354  12.577  0.00  0.00    +0.000 A 
ATOM      3  N   UNL     1      46.670   6.695  11.308  0.00  0.00    +0.000 NA
ATOM      4  C   UNL     1      45.770   5.912  10.670  0.00  0.00    +0.000 A 
ATOM      5  C   UNL     1      45.157   4.804  11.223  0.00  0.00    +0.000 A 
ATOM      6  C   UNL     1      45.480   4.605  12.550  0.00  0.00    +0.000 A 
ATOM      7  N   UNL     1      46.364   5.354  13.249  0.00  0.00    +0.000 NA
BRANCH   5   8
ATOM      8  N   UNL     1      44.227   4.052  10.488  0.00  0.00    +0.000 N 
ATOM      9  H   UNL     1      44.298   3.065  10.742  0.00  0.00    +0.000 HD
BRANCH   8  10
ATOM     10  C   UNL     1      44.276   4.202   9.028  0.00  0.00    +0.000 C 
BRANCH  10  11
ATOM     11  C   UNL     1      45.331   3.312   8.422  0.00  0.00    +0.000 A 
ATOM     12  C   UNL     1      45.414   1.970   8.784  0.00  0.00    +0.000 A 
ATOM     13  N   UNL     1      46.300   1.111   8.225  0.00  0.00    +0.000 NA
ATOM     14  C   UNL     1      47.107   1.646   7.284  0.00  0.00    +0.000 A 
ATOM     15  C   UNL     1      47.036   2.980   6.919  0.00  0.00    +0.000 A 
ATOM     16  N   UNL     1      46.153   3.840   7.477  0.00  0.00    +0.000 NA
ENDBRANCH  10  11
ENDBRANCH   8  10
ENDBRANCH   5   8
ENDBRANCH   1   2
BRANCH   1  19
ATOM     17  O   UNL     1      50.091   6.835  15.047  0.00  0.00    +0.000 OA
ATOM     18  C   UNL     1      48.965   6.765  15.523  0.00  0.00    +0.000 C 
ATOM     19  N   UNL     1      47.828   6.924  14.782  0.00  0.00    +0.000 N 
ATOM     20  H   UNL     1      46.948   6.587  15.148  0.00  0.00    +0.000 HD
BRANCH  18  21
ATOM     21  C   UNL     1      48.740   6.607  16.953  0.00  0.00    +0.000 A 
ATOM     22  C   UNL     1      48.948   7.603  17.894  0.00  0.00    +0.000 A 
ATOM     23  S   UNL     1      49.041   6.980  19.488  0.00  0.00    +0.000 S 
ATOM     24  C   UNL     1      48.707   5.398  18.947  0.00  0.00    +0.000 A 
ATOM     25  N   UNL     1      48.741   4.324  19.780  0.00  0.00    +0.000 NA
ATOM     26  C   UNL     1      48.397   3.212  19.216  0.00  0.00    +0.000 A 
ATOM     27  N   UNL     1      47.975   3.083  17.915  0.00  0.00    +0.000 N 
ATOM     28  C   UNL     1      47.873   4.152  17.053  0.00  0.00    +0.000 A 
ATOM     29  O   UNL     1      47.293   4.064  15.978  0.00  0.00    +0.000 OA
ATOM     30  C   UNL     1      48.397   5.382  17.604  0.00  0.00    +0.000 A 
ATOM     31  H   UNL     1      47.592   2.213  17.580  0.00  0.00    +0.000 HD
ENDBRANCH  18  21
ENDBRANCH   1  19
TORSDOF 6
ENDMDL
MODEL 6
REMARK VINA RESULT:    -7.043      3.888      6.840
REMARK INTER + INTRA:         -10.328
REMARK INTER:                  -9.368
REMARK INTRA:                  -0.960
REMARK UNBOUND:                -0.814
REMARK  Name = 
REMARK  6 active torsions:
REMARK  status: ('A' for Active; 'I' for Inactive)
REMARK    1  A    between atoms: C_2  and  C_19
REMARK    2  A    between atoms: N_3  and  C_4
REMARK    3  A    between atoms: C_4  and  C_5
REMARK    4  A    between atoms: C_8  and  N_9
REMARK    5  A    between atoms: N_9  and  C_10
REMARK    6  A    between atoms: C_10  and  C_11
REMARK                            x       y       z     vdW  Elec       q    Type
REMARK                         _______ _______ _______ _____ _____    ______ ____
ROOT
ATOM      1  C   UNL     1      47.392   4.011  15.932  0.00  0.00    +0.000 C 
ENDROOT
BRANCH   1   2
ATOM      2  C   UNL     1      46.884   4.581  14.630  0.00  0.00    +0.000 A 
ATOM      3  N   UNL     1      45.693   4.167  14.161  0.00  0.00    +0.000 NA
ATOM      4  C   UNL     1      45.320   4.657  12.955  0.00  0.00    +0.000 A 
ATOM      5  C   UNL     1      46.065   5.542  12.200  0.00  0.00    +0.000 A 
ATOM      6  C   UNL     1      47.299   5.829  12.751  0.00  0.00    +0.000 A 
ATOM      7  N   UNL     1      47.735   5.368  13.946  0.00  0.00    +0.000 NA
BRANCH   5   8
ATOM      8  N   UNL     1      45.605   5.994  10.954  0.00  0.00    +0.000 N 
ATOM      9  H   UNL     1      45.270   6.956  11.033  0.00  0.00    +0.000 HD
BRANCH   8  10
ATOM     10  C   UNL     1      44.591   5.160  10.294  0.00  0.00    +0.000 C 
BRANCH  10  11
ATOM     11  C   UNL     1      45.226   4.172   9.349  0.00  0.00    +0.000 A 
ATOM     12  C   UNL     1      45.090   2.803   9.562  0.00  0.00    +0.000 A 
ATOM     13  N   UNL     1      45.585   1.872   8.712  0.00  0.00    +0.000 NA
ATOM     14  C   UNL     1      46.227   2.363   7.630  0.00  0.00    +0.000 A 
ATOM     15  C   UNL     1      46.371   3.723   7.409  0.00  0.00    +0.000 A 
ATOM     16  N   UNL     1      45.879   4.654   8.258  0.00  0.00    +0.000 NA
ENDBRANCH  10  11
ENDBRANCH   8  10
ENDBRANCH   5   8
ENDBRANCH   1   2
BRANCH   1  19
ATOM     17  O   UNL     1      49.896   4.921  16.754  0.00  0.00    +0.000 OA
ATOM     18  C   UNL     1      48.895   5.448  17.224  0.00  0.00    +0.000 C 
ATOM     19  N   UNL     1      47.624   5.061  16.902  0.00  0.00    +0.000 N 
ATOM     20  H   UNL     1      46.858   5.322  17.509  0.00  0.00    +0.000 HD
BRANCH  18  21
ATOM     21  C   UNL     1      48.972   6.611  18.096  0.00  0.00    +0.000 A 
ATOM     22  C   UNL     1      49.163   6.552  19.467  0.00  0.00    +0.000 A 
ATOM     23  S   UNL     1      48.748   8.022  20.244  0.00  0.00    +0.000 S 
ATOM     24  C   UNL     1      48.407   8.776  18.755  0.00  0.00    +0.000 A 
ATOM     25  N   UNL     1      47.889  10.030  18.678  0.00  0.00    +0.000 NA
ATOM     26  C   UNL     1      47.756  10.470  17.469  0.00  0.00    +0.000 A 
ATOM     27  N   UNL     1      48.139   9.795  16.335  0.00  0.00    +0.000 N 
ATOM     28  C   UNL     1      48.718   8.547  16.369  0.00  0.00    +0.000 A 
ATOM     29  O   UNL     1      49.253   8.054  15.384  0.00  0.00    +0.000 OA
ATOM     30  C   UNL     1      48.739   7.962  17.692  0.00  0.00    +0.000 A 
ATOM     31  H   UNL     1      48.134  10.251  15.436  0.00  0.00    +0.000 HD
ENDBRANCH  18  21
ENDBRANCH   1  19
TORSDOF 6
ENDMDL
MODEL 7
REMARK VINA RESULT:    -6.945      4.916      9.810
REMARK INTER + INTRA:         -10.195
REMARK INTER:                  -9.255
REMARK INTRA:                  -0.940
REMARK UNBOUND:                -0.814
REMARK  Name = 
REMARK  6 active torsions:
REMARK  status: ('A' for Active; 'I' for Inactive)
REMARK    1  A    between atoms: C_2  and  C_19
REMARK    2  A    between atoms: N_3  and  C_4
REMARK    3  A    between atoms: C_4  and  C_5
REMARK    4  A    between atoms: C_8  and  N_9
REMARK    5  A    between atoms: N_9  and  C_10
REMARK    6  A    between atoms: C_10  and  C_11
REMARK                            x       y       z     vdW  Elec       q    Type
REMARK                         _______ _______ _______ _____ _____    ______ ____
ROOT
ATOM      1  C   UNL     1      48.033   7.749  12.896  0.00  0.00    +0.000 C 
ENDROOT
BRANCH   1   2
ATOM      2  C   UNL     1      48.670   7.290  14.186  0.00  0.00    +0.000 A 
ATOM      3  N   UNL     1      48.273   6.124  14.727  0.00  0.00    +0.000 NA
ATOM      4  C   UNL     1      48.825   5.797  15.919  0.00  0.00    +0.000 A 
ATOM      5  C   UNL     1      49.756   6.564  16.593  0.00  0.00    +0.000 A 
ATOM      6  C   UNL     1      50.022   7.770  15.976  0.00  0.00    +0.000 A 
ATOM      7  N   UNL     1      49.499   8.161  14.790  0.00  0.00    +0.000 NA
BRANCH   5   8
ATOM      8  N   UNL     1      50.270   6.151  17.832  0.00  0.00    +0.000 N 
ATOM      9  H   UNL     1      51.285   6.047  17.771  0.00  0.00    +0.000 HD
BRANCH   8  10
ATOM     10  C   UNL     1      49.673   4.942  18.414  0.00  0.00    +0.000 C 
BRANCH  10  11
ATOM     11  C   UNL     1      50.506   3.722  18.114  0.00  0.00    +0.000 A 
ATOM     12  C   UNL     1      49.950   2.634  17.446  0.00  0.00    +0.000 A 
ATOM     13  N   UNL     1      50.667   1.540  17.096  0.00  0.00    +0.000 NA
ATOM     14  C   UNL     1      51.973   1.572  17.440  0.00  0.00    +0.000 A 
ATOM     15  C   UNL     1      52.536   2.647  18.108  0.00  0.00    +0.000 A 
ATOM     16  N   UNL     1      51.821   3.740  18.460  0.00  0.00    +0.000 NA
ENDBRANCH  10  11
ENDBRANCH   8  10
ENDBRANCH   5   8
ENDBRANCH   1   2
BRANCH   1  19
ATOM     17  O   UNL     1      45.468   7.729  11.806  0.00  0.00    +0.000 OA
ATOM     18  C   UNL     1      46.169   6.733  11.677  0.00  0.00    +0.000 C 
ATOM     19  N   UNL     1      47.431   6.635  12.192  0.00  0.00    +0.000 N 
ATOM     20  H   UNL     1      47.851   5.722  12.306  0.00  0.00    +0.000 HD
BRANCH  18  21
ATOM     21  C   UNL     1      45.754   5.595  10.870  0.00  0.00    +0.000 A 
ATOM     22  C   UNL     1      45.846   5.538   9.489  0.00  0.00    +0.000 A 
ATOM     23  S   UNL     1      44.871   4.295   8.824  0.00  0.00    +0.000 S 
ATOM     24  C   UNL     1      44.399   3.763  10.372  0.00  0.00    +0.000 A 
ATOM     25  N   UNL     1      43.472   2.785  10.553  0.00  0.00    +0.000 NA
ATOM     26  C   UNL     1      43.285   2.461  11.791  0.00  0.00    +0.000 A 
ATOM     27  N   UNL     1      43.973   2.986  12.858  0.00  0.00    +0.000 N 
ATOM     28  C   UNL     1      44.958   3.938  12.717  0.00  0.00    +0.000 A 
ATOM     29  O   UNL     1      45.709   4.234  13.638  0.00  0.00    +0.000 OA
ATOM     30  C   UNL     1      45.083   4.433  11.364  0.00  0.00    +0.000 A 
ATOM     31  H   UNL     1      43.875   2.591  13.781  0.00  0.00    +0.000 HD
ENDBRANCH  18  21
ENDBRANCH   1  19
TORSDOF 6
ENDMDL
MODEL 8
REMARK VINA RESULT:    -6.882      3.674      6.455
REMARK INTER + INTRA:         -10.110
REMARK INTER:                  -9.261
REMARK INTRA:                  -0.850
REMARK UNBOUND:                -0.814
REMARK  Name = 
REMARK  6 active torsions:
REMARK  status: ('A' for Active; 'I' for Inactive)
REMARK    1  A    between atoms: C_2  and  C_19
REMARK    2  A    between atoms: N_3  and  C_4
REMARK    3  A    between atoms: C_4  and  C_5
REMARK    4  A    between atoms: C_8  and  N_9
REMARK    5  A    between atoms: N_9  and  C_10
REMARK    6  A    between atoms: C_10  and  C_11
REMARK                            x       y       z     vdW  Elec       q    Type
REMARK                         _______ _______ _______ _____ _____    ______ ____
ROOT
ATOM      1  C   UNL     1      47.755   7.418  13.665  0.00  0.00    +0.000 C 
ENDROOT
BRANCH   1   2
ATOM      2  C   UNL     1      46.797   6.518  12.922  0.00  0.00    +0.000 A 
ATOM      3  N   UNL     1      46.524   5.302  13.429  0.00  0.00    +0.000 NA
ATOM      4  C   UNL     1      45.716   4.510  12.686  0.00  0.00    +0.000 A 
ATOM      5  C   UNL     1      45.159   4.869  11.474  0.00  0.00    +0.000 A 
ATOM      6  C   UNL     1      45.576   6.106  11.025  0.00  0.00    +0.000 A 
ATOM      7  N   UNL     1      46.388   6.943  11.713  0.00  0.00    +0.000 NA
BRANCH   5   8
ATOM      8  N   UNL     1      44.336   3.979  10.766  0.00  0.00    +0.000 N 
ATOM      9  H   UNL     1      44.598   3.016  10.982  0.00  0.00    +0.000 HD
BRANCH   8  10
ATOM     10  C   UNL     1      44.272   4.171   9.311  0.00  0.00    +0.000 C 
BRANCH  10  11
ATOM     11  C   UNL     1      45.315   3.343   8.604  0.00  0.00    +0.000 A 
ATOM     12  C   UNL     1      45.419   1.977   8.853  0.00  0.00    +0.000 A 
ATOM     13  N   UNL     1      46.293   1.175   8.201  0.00  0.00    +0.000 NA
ATOM     14  C   UNL     1      47.067   1.792   7.281  0.00  0.00    +0.000 A 
ATOM     15  C   UNL     1      46.974   3.150   7.027  0.00  0.00    +0.000 A 
ATOM     16  N   UNL     1      46.103   3.954   7.679  0.00  0.00    +0.000 NA
ENDBRANCH  10  11
ENDBRANCH   8  10
ENDBRANCH   5   8
ENDBRANCH   1   2
BRANCH   1  19
ATOM     17  O   UNL     1      50.332   7.316  14.724  0.00  0.00    +0.000 OA
ATOM     18  C   UNL     1      49.406   6.864  15.386  0.00  0.00    +0.000 C 
ATOM     19  N   UNL     1      48.111   6.849  14.948  0.00  0.00    +0.000 N 
ATOM     20  H   UNL     1      47.446   6.229  15.390  0.00  0.00    +0.000 HD
BRANCH  18  21
ATOM     21  C   UNL     1      49.589   6.394  16.751  0.00  0.00    +0.000 A 
ATOM     22  C   UNL     1      50.362   5.301  17.106  0.00  0.00    +0.000 A 
ATOM     23  S   UNL     1      50.006   4.741  18.687  0.00  0.00    +0.000 S 
ATOM     24  C   UNL     1      48.895   6.007  18.944  0.00  0.00    +0.000 A 
ATOM     25  N   UNL     1      48.128   6.084  20.064  0.00  0.00    +0.000 NA
ATOM     26  C   UNL     1      47.391   7.145  20.123  0.00  0.00    +0.000 A 
ATOM     27  N   UNL     1      47.387   8.158  19.194  0.00  0.00    +0.000 N 
ATOM     28  C   UNL     1      48.187   8.148  18.075  0.00  0.00    +0.000 A 
ATOM     29  O   UNL     1      48.339   9.143  17.378  0.00  0.00    +0.000 OA
ATOM     30  C   UNL     1      48.908   6.906  17.899  0.00  0.00    +0.000 A 
ATOM     31  H   UNL     1      46.891   9.018  19.371  0.00  0.00    +0.000 HD
ENDBRANCH  18  21
ENDBRANCH   1  19
TORSDOF 6
ENDMDL
MODEL 9
REMARK VINA RESULT:    -6.619      6.873      8.958
REMARK INTER + INTRA:          -9.755
REMARK INTER:                  -8.988
REMARK INTRA:                  -0.767
REMARK UNBOUND:                -0.814
REMARK  Name = 
REMARK  6 active torsions:
REMARK  status: ('A' for Active; 'I' for Inactive)
REMARK    1  A    between atoms: C_2  and  C_19
REMARK    2  A    between atoms: N_3  and  C_4
REMARK    3  A    between atoms: C_4  and  C_5
REMARK    4  A    between atoms: C_8  and  N_9
REMARK    5  A    between atoms: N_9  and  C_10
REMARK    6  A    between atoms: C_10  and  C_11
REMARK                            x       y       z     vdW  Elec       q    Type
REMARK                         _______ _______ _______ _____ _____    ______ ____
ROOT
ATOM      1  C   UNL     1      47.008   4.009  14.569  0.00  0.00    +0.000 C 
ENDROOT
BRANCH   1   2
ATOM      2  C   UNL     1      46.163   4.865  13.657  0.00  0.00    +0.000 A 
ATOM      3  N   UNL     1      46.683   6.009  13.174  0.00  0.00    +0.000 NA
ATOM      4  C   UNL     1      45.858   6.772  12.421  0.00  0.00    +0.000 A 
ATOM      5  C   UNL     1      44.550   6.452  12.115  0.00  0.00    +0.000 A 
ATOM      6  C   UNL     1      44.110   5.297  12.731  0.00  0.00    +0.000 A 
ATOM      7  N   UNL     1      44.880   4.494  13.502  0.00  0.00    +0.000 NA
BRANCH   5   8
ATOM      8  N   UNL     1      43.761   7.308  11.330  0.00  0.00    +0.000 N 
ATOM      9  H   UNL     1      43.411   6.807  10.511  0.00  0.00    +0.000 HD
BRANCH   8  10
ATOM     10  C   UNL     1      44.385   8.573  10.920  0.00  0.00    +0.000 C 
BRANCH  10  11
ATOM     11  C   UNL     1      43.424   9.726  11.058  0.00  0.00    +0.000 A 
ATOM     12  C   UNL     1      43.838  10.926  11.631  0.00  0.00    +0.000 A 
ATOM     13  N   UNL     1      43.037  12.014  11.722  0.00  0.00    +0.000 NA
ATOM     14  C   UNL     1      41.794  11.859  11.215  0.00  0.00    +0.000 A 
ATOM     15  C   UNL     1      41.370  10.670  10.646  0.00  0.00    +0.000 A 
ATOM     16  N   UNL     1      42.168   9.581  10.555  0.00  0.00    +0.000 NA
ENDBRANCH  10  11
ENDBRANCH   8  10
ENDBRANCH   5   8
ENDBRANCH   1   2
BRANCH   1  19
ATOM     17  O   UNL     1      46.560   3.285  17.224  0.00  0.00    +0.000 OA
ATOM     18  C   UNL     1      47.189   4.310  16.992  0.00  0.00    +0.000 C 
ATOM     19  N   UNL     1      47.444   4.762  15.727  0.00  0.00    +0.000 N 
ATOM     20  H   UNL     1      47.710   5.728  15.591  0.00  0.00    +0.000 HD
BRANCH  18  21
ATOM     21  C   UNL     1      47.815   5.089  18.051  0.00  0.00    +0.000 A 
ATOM     22  C   UNL     1      47.121   5.745  19.055  0.00  0.00    +0.000 A 
ATOM     23  S   UNL     1      48.083   6.923  19.845  0.00  0.00    +0.000 S 
ATOM     24  C   UNL     1      49.453   6.500  18.925  0.00  0.00    +0.000 A 
ATOM     25  N   UNL     1      50.623   7.189  19.005  0.00  0.00    +0.000 NA
ATOM     26  C   UNL     1      51.576   6.689  18.287  0.00  0.00    +0.000 A 
ATOM     27  N   UNL     1      51.484   5.540  17.539  0.00  0.00    +0.000 N 
ATOM     28  C   UNL     1      50.337   4.782  17.474  0.00  0.00    +0.000 A 
ATOM     29  O   UNL     1      50.332   3.657  16.991  0.00  0.00    +0.000 OA
ATOM     30  C   UNL     1      49.208   5.394  18.138  0.00  0.00    +0.000 A 
ATOM     31  H   UNL     1      52.303   5.133  17.115  0.00  0.00    +0.000 HD
ENDBRANCH  18  21
ENDBRANCH   1  19
TORSDOF 6
ENDMDL
