MODEL 1
REMARK VINA RESULT:    -7.128      0.000      0.000
REMARK INTER + INTRA:          -8.539
REMARK INTER:                  -8.378
REMARK INTRA:                  -0.161
REMARK UNBOUND:                -0.161
REMARK  Name = 
REMARK  3 active torsions:
REMARK  status: ('A' for Active; 'I' for Inactive)
REMARK    1  A    between atoms: C_5  and  C_6
REMARK    2  A    between atoms: C_6  and  C_7
REMARK    3  A    between atoms: C_9  and  C_10
REMARK                            x       y       z     vdW  Elec       q    Type
REMARK                         _______ _______ _______ _____ _____    ______ ____
ROOT
ATOM      1  C   UNL     1      45.271   5.386  11.900  0.00  0.00    +0.000 A 
ATOM      2  C   UNL     1      45.686   5.047  13.193  0.00  0.00    +0.000 A 
ATOM      3  C   UNL     1      46.908   5.519  13.694  0.00  0.00    +0.000 A 
ATOM      4  C   UNL     1      47.573   6.482  12.927  0.00  0.00    +0.000 A 
ATOM      5  C   UNL     1      47.011   6.902  11.733  0.00  0.00    +0.000 A 
ATOM      6  N   UNL     1      45.892   6.372  11.207  0.00  0.00    +0.000 NA
ENDROOT
BRANCH   3   7
ATOM      7  C   UNL     1      47.531   4.897  14.879  0.00  0.00    +0.000 A 
ATOM      8  C   UNL     1      47.466   3.532  15.139  0.00  0.00    +0.000 A 
ATOM      9  N   UNL     1      48.079   2.904  16.165  0.00  0.00    +0.000 NA
ATOM     10  C   UNL     1      48.809   3.682  16.965  0.00  0.00    +0.000 A 
ATOM     11  N   UNL     1      48.960   5.008  16.839  0.00  0.00    +0.000 NA
ATOM     12  C   UNL     1      48.312   5.577  15.798  0.00  0.00    +0.000 A 
ENDBRANCH   3   7
BRANCH   1  13
ATOM     13  C   UNL     1      44.401   4.388  11.127  0.00  0.00    +0.000 C 
ATOM     14  C   UNL     1      43.476   3.495  11.967  0.00  0.00    +0.000 C 
ATOM     15  C   UNL     1      42.893   4.661  11.242  0.00  0.00    +0.000 C 
BRANCH  13  20
ATOM     16  C   UNL     1      45.710   1.888   8.520  0.00  0.00    +0.000 A 
ATOM     17  C   UNL     1      46.161   2.786   7.570  0.00  0.00    +0.000 A 
ATOM     18  N   UNL     1      45.989   4.118   7.664  0.00  0.00    +0.000 NA
ATOM     19  C   UNL     1      45.370   4.571   8.783  0.00  0.00    +0.000 A 
ATOM     20  C   UNL     1      44.920   3.773   9.837  0.00  0.00    +0.000 A 
ATOM     21  C   UNL     1      45.078   2.390   9.657  0.00  0.00    +0.000 A 
ENDBRANCH  13  20
ENDBRANCH   1  13
TORSDOF 3
ENDMDL
MODEL 2
REMARK VINA RESULT:    -7.096      1.402      6.466
REMARK INTER + INTRA:          -8.502
REMARK INTER:                  -8.313
REMARK INTRA:                  -0.189
REMARK UNBOUND:                -0.161
REMARK  Name = 
REMARK  3 active torsions:
REMARK  status: ('A' for Active; 'I' for Inactive)
REMARK    1  A    between atoms: C_5  and  C_6
REMARK    2  A    between atoms: C_6  and  C_7
REMARK    3  A    between atoms: C_9  and  C_10
REMARK                            x       y       z     vdW  Elec       q    Type
REMARK                         _______ _______ _______ _____ _____    ______ ____
ROOT
ATOM      1  C   UNL     1      45.315   6.187  11.153  0.00  0.00    +0.000 A 
ATOM      2  C   UNL     1      45.802   5.440  10.074  0.00  0.00    +0.000 A 
ATOM      3  C   UNL     1      45.056   4.373   9.553  0.00  0.00    +0.000 A 
ATOM      4  C   UNL     1      43.748   4.228  10.028  0.00  0.00    +0.000 A 
ATOM      5  C   UNL     1      43.270   5.117  10.976  0.00  0.00    +0.000 A 
ATOM      6  N   UNL     1      44.023   6.075  11.548  0.00  0.00    +0.000 NA
ENDROOT
BRANCH   3   7
ATOM      7  C   UNL     1      45.689   3.362   8.683  0.00  0.00    +0.000 A 
ATOM      8  C   UNL     1      46.511   3.695   7.612  0.00  0.00    +0.000 A 
ATOM      9  N   UNL     1      47.172   2.811   6.832  0.00  0.00    +0.000 NA
ATOM     10  C   UNL     1      47.011   1.527   7.152  0.00  0.00    +0.000 A 
ATOM     11  N   UNL     1      46.250   1.060   8.152  0.00  0.00    +0.000 NA
ATOM     12  C   UNL     1      45.607   1.995   8.887  0.00  0.00    +0.000 A 
ENDBRANCH   3   7
BRANCH   1  13
ATOM     13  C   UNL     1      46.324   6.806  12.127  0.00  0.00    +0.000 C 
ATOM     14  C   UNL     1      47.306   7.827  11.536  0.00  0.00    +0.000 C 
ATOM     15  C   UNL     1      46.142   8.319  12.328  0.00  0.00    +0.000 C 
BRANCH  13  20
ATOM     16  C   UNL     1      46.641   4.198  14.930  0.00  0.00    +0.000 A 
ATOM     17  C   UNL     1      47.706   4.751  15.618  0.00  0.00    +0.000 A 
ATOM     18  N   UNL     1      48.381   5.837  15.196  0.00  0.00    +0.000 NA
ATOM     19  C   UNL     1      47.942   6.415  14.051  0.00  0.00    +0.000 A 
ATOM     20  C   UNL     1      46.847   5.987  13.297  0.00  0.00    +0.000 A 
ATOM     21  C   UNL     1      46.218   4.820  13.756  0.00  0.00    +0.000 A 
ENDBRANCH  13  20
ENDBRANCH   1  13
TORSDOF 3
ENDMDL
MODEL 3
REMARK VINA RESULT:    -6.736      1.839      2.585
REMARK INTER + INTRA:          -8.079
REMARK INTER:                  -7.885
REMARK INTRA:                  -0.194
REMARK UNBOUND:                -0.161
REMARK  Name = 
REMARK  3 active torsions:
REMARK  status: ('A' for Active; 'I' for Inactive)
REMARK    1  A    between atoms: C_5  and  C_6
REMARK    2  A    between atoms: C_6  and  C_7
REMARK    3  A    between atoms: C_9  and  C_10
REMARK                            x       y       z     vdW  Elec       q    Type
REMARK                         _______ _______ _______ _____ _____    ______ ____
ROOT
ATOM      1  C   UNL     1      44.675   5.384  11.781  0.00  0.00    +0.000 A 
ATOM      2  C   UNL     1      45.803   5.627  12.573  0.00  0.00    +0.000 A 
ATOM      3  C   UNL     1      46.370   6.909  12.629  0.00  0.00    +0.000 A 
ATOM      4  C   UNL     1      45.648   7.943  12.025  0.00  0.00    +0.000 A 
ATOM      5  C   UNL     1      44.444   7.656  11.404  0.00  0.00    +0.000 A 
ATOM      6  N   UNL     1      43.955   6.410  11.264  0.00  0.00    +0.000 NA
ENDROOT
BRANCH   3   7
ATOM      7  C   UNL     1      47.738   7.109  13.148  0.00  0.00    +0.000 A 
ATOM      8  C   UNL     1      48.650   7.977  12.558  0.00  0.00    +0.000 A 
ATOM      9  N   UNL     1      49.883   8.253  13.034  0.00  0.00    +0.000 NA
ATOM     10  C   UNL     1      50.215   7.636  14.169  0.00  0.00    +0.000 A 
ATOM     11  N   UNL     1      49.442   6.775  14.845  0.00  0.00    +0.000 NA
ATOM     12  C   UNL     1      48.223   6.534  14.310  0.00  0.00    +0.000 A 
ENDBRANCH   3   7
BRANCH   1  13
ATOM     13  C   UNL     1      44.500   3.989  11.169  0.00  0.00    +0.000 C 
ATOM     14  C   UNL     1      44.485   2.809  12.152  0.00  0.00    +0.000 C 
ATOM     15  C   UNL     1      43.194   3.291  11.582  0.00  0.00    +0.000 C 
BRANCH  13  20
ATOM     16  C   UNL     1      45.937   2.170   8.105  0.00  0.00    +0.000 A 
ATOM     17  C   UNL     1      46.382   3.268   7.393  0.00  0.00    +0.000 A 
ATOM     18  N   UNL     1      46.169   4.541   7.779  0.00  0.00    +0.000 NA
ATOM     19  C   UNL     1      45.514   4.717   8.953  0.00  0.00    +0.000 A 
ATOM     20  C   UNL     1      45.065   3.692   9.789  0.00  0.00    +0.000 A 
ATOM     21  C   UNL     1      45.266   2.389   9.308  0.00  0.00    +0.000 A 
ENDBRANCH  13  20
ENDBRANCH   1  13
TORSDOF 3
ENDMDL
MODEL 4
REMARK VINA RESULT:    -6.720      2.678      4.935
REMARK INTER + INTRA:          -8.060
REMARK INTER:                  -7.919
REMARK INTRA:                  -0.140
REMARK UNBOUND:                -0.161
REMARK  Name = 
REMARK  3 active torsions:
REMARK  status: ('A' for Active; 'I' for Inactive)
REMARK    1  A    between atoms: C_5  and  C_6
REMARK    2  A    between atoms: C_6  and  C_7
REMARK    3  A    between atoms: C_9  and  C_10
REMARK                            x       y       z     vdW  Elec       q    Type
REMARK                         _______ _______ _______ _____ _____    ______ ____
ROOT
ATOM      1  C   UNL     1      45.517   5.459  11.389  0.00  0.00    +0.000 A 
ATOM      2  C   UNL     1      45.190   6.749  10.956  0.00  0.00    +0.000 A 
ATOM      3  C   UNL     1      45.344   7.848  11.814  0.00  0.00    +0.000 A 
ATOM      4  C   UNL     1      46.012   7.615  13.021  0.00  0.00    +0.000 A 
ATOM      5  C   UNL     1      46.465   6.338  13.309  0.00  0.00    +0.000 A 
ATOM      6  N   UNL     1      46.224   5.268  12.530  0.00  0.00    +0.000 NA
ENDROOT
BRANCH   3   7
ATOM      7  C   UNL     1      44.680   9.134  11.524  0.00  0.00    +0.000 A 
ATOM      8  C   UNL     1      43.490   9.226  10.811  0.00  0.00    +0.000 A 
ATOM      9  N   UNL     1      42.804  10.366  10.582  0.00  0.00    +0.000 NA
ATOM     10  C   UNL     1      43.332  11.472  11.109  0.00  0.00    +0.000 A 
ATOM     11  N   UNL     1      44.469  11.536  11.814  0.00  0.00    +0.000 NA
ATOM     12  C   UNL     1      45.113  10.361  11.998  0.00  0.00    +0.000 A 
ENDBRANCH   3   7
BRANCH   1  13
ATOM     13  C   UNL     1      44.737   4.274  10.807  0.00  0.00    +0.000 C 
ATOM     14  C   UNL     1      44.064   3.336  11.819  0.00  0.00    +0.000 C 
ATOM     15  C   UNL     1      43.227   4.330  11.085  0.00  0.00    +0.000 C 
BRANCH  13  20
ATOM     16  C   UNL     1      45.931   1.705   8.212  0.00  0.00    +0.000 A 
ATOM     17  C   UNL     1      46.350   2.577   7.223  0.00  0.00    +0.000 A 
ATOM     18  N   UNL     1      46.189   3.912   7.292  0.00  0.00    +0.000 NA
ATOM     19  C   UNL     1      45.616   4.396   8.422  0.00  0.00    +0.000 A 
ATOM     20  C   UNL     1      45.203   3.626   9.512  0.00  0.00    +0.000 A 
ATOM     21  C   UNL     1      45.346   2.238   9.360  0.00  0.00    +0.000 A 
ENDBRANCH  13  20
ENDBRANCH   1  13
TORSDOF 3
ENDMDL
MODEL 5
REMARK VINA RESULT:    -6.582      2.043      3.913
REMARK INTER + INTRA:          -7.898
REMARK INTER:                  -7.731
REMARK INTRA:                  -0.166
REMARK UNBOUND:                -0.161
REMARK  Name = 
REMARK  3 active torsions:
REMARK  status: ('A' for Active; 'I' for Inactive)
REMARK    1  A    between atoms: C_5  and  C_6
REMARK    2  A    between atoms: C_6  and  C_7
REMARK    3  A    between atoms: C_9  and  C_10
REMARK                            x       y       z     vdW  Elec       q    Type
REMARK                         _______ _______ _______ _____ _____    ______ ____
ROOT
ATOM      1  C   UNL     1      45.679   4.412  11.849  0.00  0.00    +0.000 A 
ATOM      2  C   UNL     1      46.128   5.713  11.596  0.00  0.00    +0.000 A 
ATOM      3  C   UNL     1      46.485   6.560  12.655  0.00  0.00    +0.000 A 
ATOM      4  C   UNL     1      46.556   5.982  13.927  0.00  0.00    +0.000 A 
ATOM      5  C   UNL     1      46.263   4.637  14.077  0.00  0.00    +0.000 A 
ATOM      6  N   UNL     1      45.822   3.853  13.076  0.00  0.00    +0.000 NA
ENDROOT
BRANCH   3   7
ATOM      7  C   UNL     1      46.606   8.017  12.450  0.00  0.00    +0.000 A 
ATOM      8  C   UNL     1      47.819   8.645  12.189  0.00  0.00    +0.000 A 
ATOM      9  N   UNL     1      47.975   9.960  11.921  0.00  0.00    +0.000 NA
ATOM     10  C   UNL     1      46.853  10.681  11.899  0.00  0.00    +0.000 A 
ATOM     11  N   UNL     1      45.619  10.213  12.134  0.00  0.00    +0.000 NA
ATOM     12  C   UNL     1      45.534   8.891  12.407  0.00  0.00    +0.000 A 
ENDBRANCH   3   7
BRANCH   1  13
ATOM     13  C   UNL     1      44.674   3.784  10.875  0.00  0.00    +0.000 C 
ATOM     14  C   UNL     1      43.557   2.936  11.498  0.00  0.00    +0.000 C 
ATOM     15  C   UNL     1      43.242   4.317  11.033  0.00  0.00    +0.000 C 
BRANCH  13  20
ATOM     16  C   UNL     1      45.966   1.707   7.911  0.00  0.00    +0.000 A 
ATOM     17  C   UNL     1      46.249   2.738   7.034  0.00  0.00    +0.000 A 
ATOM     18  N   UNL     1      45.969   4.030   7.289  0.00  0.00    +0.000 NA
ATOM     19  C   UNL     1      45.413   4.302   8.496  0.00  0.00    +0.000 A 
ATOM     20  C   UNL     1      45.131   3.359   9.487  0.00  0.00    +0.000 A 
ATOM     21  C   UNL     1      45.394   2.025   9.143  0.00  0.00    +0.000 A 
ENDBRANCH  13  20
ENDBRANCH   1  13
TORSDOF 3
ENDMDL
MODEL 6
REMARK VINA RESULT:    -6.551      2.988      6.754
REMARK INTER + INTRA:          -7.861
REMARK INTER:                  -8.006
REMARK INTRA:                   0.145
REMARK UNBOUND:                -0.161
REMARK  Name = 
REMARK  3 active torsions:
REMARK  status: ('A' for Active; 'I' for Inactive)
REMARK    1  A    between atoms: C_5  and  C_6
REMARK    2  A    between atoms: C_6  and  C_7
REMARK    3  A    between atoms: C_9  and  C_10
REMARK                            x       y       z     vdW  Elec       q    Type
REMARK                         _______ _______ _______ _____ _____    ______ ____
ROOT
ATOM      1  C   UNL     1      44.616   5.469  10.970  0.00  0.00    +0.000 A 
ATOM      2  C   UNL     1      45.111   4.961   9.764  0.00  0.00    +0.000 A 
ATOM      3  C   UNL     1      44.941   3.607   9.439  0.00  0.00    +0.000 A 
ATOM      4  C   UNL     1      44.100   2.861  10.272  0.00  0.00    +0.000 A 
ATOM      5  C   UNL     1      43.501   3.478  11.357  0.00  0.00    +0.000 A 
ATOM      6  N   UNL     1      43.748   4.749  11.723  0.00  0.00    +0.000 NA
ENDROOT
BRANCH   3   7
ATOM      7  C   UNL     1      45.750   2.976   8.377  0.00  0.00    +0.000 A 
ATOM      8  C   UNL     1      46.090   1.628   8.386  0.00  0.00    +0.000 A 
ATOM      9  N   UNL     1      46.762   0.986   7.406  0.00  0.00    +0.000 NA
ATOM     10  C   UNL     1      47.099   1.733   6.354  0.00  0.00    +0.000 A 
ATOM     11  N   UNL     1      46.842   3.041   6.210  0.00  0.00    +0.000 NA
ATOM     12  C   UNL     1      46.176   3.625   7.231  0.00  0.00    +0.000 A 
ENDBRANCH   3   7
BRANCH   1  13
ATOM     13  C   UNL     1      45.358   6.637  11.630  0.00  0.00    +0.000 C 
ATOM     14  C   UNL     1      46.199   6.299  12.869  0.00  0.00    +0.000 C 
ATOM     15  C   UNL     1      46.889   6.514  11.564  0.00  0.00    +0.000 C 
BRANCH  13  20
ATOM     16  C   UNL     1      43.257   9.707  10.670  0.00  0.00    +0.000 A 
ATOM     17  C   UNL     1      43.927  10.665  11.408  0.00  0.00    +0.000 A 
ATOM     18  N   UNL     1      44.934  10.381  12.256  0.00  0.00    +0.000 NA
ATOM     19  C   UNL     1      45.309   9.080  12.337  0.00  0.00    +0.000 A 
ATOM     20  C   UNL     1      44.750   8.031  11.603  0.00  0.00    +0.000 A 
ATOM     21  C   UNL     1      43.671   8.379  10.778  0.00  0.00    +0.000 A 
ENDBRANCH  13  20
ENDBRANCH   1  13
TORSDOF 3
ENDMDL
MODEL 7
REMARK VINA RESULT:    -6.270      2.511      7.120
REMARK INTER + INTRA:          -7.531
REMARK INTER:                  -7.489
REMARK INTRA:                  -0.042
REMARK UNBOUND:                -0.161
REMARK  Name = 
REMARK  3 active torsions:
REMARK  status: ('A' for Active; 'I' for Inactive)
REMARK    1  A    between atoms: C_5  and  C_6
REMARK    2  A    between atoms: C_6  and  C_7
REMARK    3  A    between atoms: C_9  and  C_10
REMARK                            x       y       z     vdW  Elec       q    Type
REMARK                         _______ _______ _______ _____ _____    ______ ____
ROOT
ATOM      1  C   UNL     1      48.130   5.024  15.414  0.00  0.00    +0.000 A 
ATOM      2  C   UNL     1      47.136   4.469  14.599  0.00  0.00    +0.000 A 
ATOM      3  C   UNL     1      46.503   5.249  13.620  0.00  0.00    +0.000 A 
ATOM      4  C   UNL     1      47.044   6.515  13.376  0.00  0.00    +0.000 A 
ATOM      5  C   UNL     1      48.144   6.933  14.106  0.00  0.00    +0.000 A 
ATOM      6  N   UNL     1      48.684   6.224  15.114  0.00  0.00    +0.000 NA
ENDROOT
BRANCH   3   7
ATOM      7  C   UNL     1      45.230   4.811  13.012  0.00  0.00    +0.000 A 
ATOM      8  C   UNL     1      44.124   5.645  12.893  0.00  0.00    +0.000 A 
ATOM      9  N   UNL     1      42.965   5.321  12.280  0.00  0.00    +0.000 NA
ATOM     10  C   UNL     1      42.918   4.099  11.745  0.00  0.00    +0.000 A 
ATOM     11  N   UNL     1      43.902   3.191  11.785  0.00  0.00    +0.000 NA
ATOM     12  C   UNL     1      45.032   3.575  12.423  0.00  0.00    +0.000 A 
ENDBRANCH   3   7
BRANCH   1  13
ATOM     13  C   UNL     1      48.293   4.481  16.839  0.00  0.00    +0.000 C 
ATOM     14  C   UNL     1      47.836   5.403  17.978  0.00  0.00    +0.000 C 
ATOM     15  C   UNL     1      46.962   4.264  17.575  0.00  0.00    +0.000 C 
BRANCH  13  20
ATOM     16  C   UNL     1      51.727   3.133  17.913  0.00  0.00    +0.000 A 
ATOM     17  C   UNL     1      51.611   1.842  17.430  0.00  0.00    +0.000 A 
ATOM     18  N   UNL     1      50.485   1.353  16.876  0.00  0.00    +0.000 NA
ATOM     19  C   UNL     1      49.441   2.212  16.768  0.00  0.00    +0.000 A 
ATOM     20  C   UNL     1      49.452   3.551  17.165  0.00  0.00    +0.000 A 
ATOM     21  C   UNL     1      50.632   3.988  17.784  0.00  0.00    +0.000 A 
ENDBRANCH  13  20
ENDBRANCH   1  13
TORSDOF 3
ENDMDL
MODEL 8
REMARK VINA RESULT:    -6.162      2.403      7.674
REMARK INTER + INTRA:          -7.404
REMARK INTER:                  -7.272
REMARK INTRA:                  -0.131
REMARK UNBOUND:                -0.161
REMARK  Name = 
REMARK  3 active torsions:
REMARK  status: ('A' for Active; 'I' for Inactive)
REMARK    1  A    between atoms: C_5  and  C_6
REMARK    2  A    between atoms: C_6  and  C_7
REMARK    3  A    between atoms: C_9  and  C_10
REMARK                            x       y       z     vdW  Elec       q    Type
REMARK                         _______ _______ _______ _____ _____    ______ ____
ROOT
ATOM      1  C   UNL     1      47.959   4.895  15.614  0.00  0.00    +0.000 A 
ATOM      2  C   UNL     1      47.015   4.354  14.734  0.00  0.00    +0.000 A 
ATOM      3  C   UNL     1      46.508   5.122  13.676  0.00  0.00    +0.000 A 
ATOM      4  C   UNL     1      47.128   6.352  13.437  0.00  0.00    +0.000 A 
ATOM      5  C   UNL     1      48.179   6.749  14.246  0.00  0.00    +0.000 A 
ATOM      6  N   UNL     1      48.595   6.057  15.323  0.00  0.00    +0.000 NA
ENDROOT
BRANCH   3   7
ATOM      7  C   UNL     1      45.274   4.718  12.973  0.00  0.00    +0.000 A 
ATOM      8  C   UNL     1      44.112   5.482  12.987  0.00  0.00    +0.000 A 
ATOM      9  N   UNL     1      42.983   5.197  12.302  0.00  0.00    +0.000 NA
ATOM     10  C   UNL     1      43.026   4.095  11.552  0.00  0.00    +0.000 A 
ATOM     11  N   UNL     1      44.072   3.264  11.443  0.00  0.00    +0.000 NA
ATOM     12  C   UNL     1      45.167   3.601  12.163  0.00  0.00    +0.000 A 
ENDBRANCH   3   7
BRANCH   1  13
ATOM     13  C   UNL     1      47.972   4.402  17.066  0.00  0.00    +0.000 C 
ATOM     14  C   UNL     1      47.079   3.194  17.385  0.00  0.00    +0.000 C 
ATOM     15  C   UNL     1      48.548   2.987  17.234  0.00  0.00    +0.000 C 
BRANCH  13  20
ATOM     16  C   UNL     1      47.322   6.900  19.912  0.00  0.00    +0.000 A 
ATOM     17  C   UNL     1      48.595   7.428  20.029  0.00  0.00    +0.000 A 
ATOM     18  N   UNL     1      49.655   6.975  19.332  0.00  0.00    +0.000 NA
ATOM     19  C   UNL     1      49.417   5.973  18.451  0.00  0.00    +0.000 A 
ATOM     20  C   UNL     1      48.169   5.395  18.201  0.00  0.00    +0.000 A 
ATOM     21  C   UNL     1      47.115   5.870  18.995  0.00  0.00    +0.000 A 
ENDBRANCH  13  20
ENDBRANCH   1  13
TORSDOF 3
ENDMDL
MODEL 9
REMARK VINA RESULT:    -6.025      2.483      6.791
REMARK INTER + INTRA:          -7.243
REMARK INTER:                  -6.886
REMARK INTRA:                  -0.358
REMARK UNBOUND:                -0.161
REMARK  Name = 
REMARK  3 active torsions:
REMARK  status: ('A' for Active; 'I' for Inactive)
REMARK    1  A    between atoms: C_5  and  C_6
REMARK    2  A    between atoms: C_6  and  C_7
REMARK    3  A    between atoms: C_9  and  C_10
REMARK                            x       y       z     vdW  Elec       q    Type
REMARK                         _______ _______ _______ _____ _____    ______ ____
ROOT
ATOM      1  C   UNL     1      47.166   7.938  12.016  0.00  0.00    +0.000 A 
ATOM      2  C   UNL     1      46.635   6.684  11.693  0.00  0.00    +0.000 A 
ATOM      3  C   UNL     1      45.248   6.503  11.598  0.00  0.00    +0.000 A 
ATOM      4  C   UNL     1      44.458   7.656  11.645  0.00  0.00    +0.000 A 
ATOM      5  C   UNL     1      45.069   8.890  11.793  0.00  0.00    +0.000 A 
ATOM      6  N   UNL     1      46.391   9.050  11.987  0.00  0.00    +0.000 NA
ENDROOT
BRANCH   3   7
ATOM      7  C   UNL     1      44.658   5.149  11.623  0.00  0.00    +0.000 A 
ATOM      8  C   UNL     1      44.340   4.486  12.803  0.00  0.00    +0.000 A 
ATOM      9  N   UNL     1      43.732   3.282  12.880  0.00  0.00    +0.000 NA
ATOM     10  C   UNL     1      43.413   2.720  11.713  0.00  0.00    +0.000 A 
ATOM     11  N   UNL     1      43.660   3.240  10.503  0.00  0.00    +0.000 NA
ATOM     12  C   UNL     1      44.281   4.442  10.495  0.00  0.00    +0.000 A 
ENDBRANCH   3   7
BRANCH   1  13
ATOM     13  C   UNL     1      48.491   7.993  12.786  0.00  0.00    +0.000 C 
ATOM     14  C   UNL     1      49.699   7.322  12.116  0.00  0.00    +0.000 C 
ATOM     15  C   UNL     1      49.585   8.809  12.079  0.00  0.00    +0.000 C 
BRANCH  13  20
ATOM     16  C   UNL     1      48.337   9.073  16.470  0.00  0.00    +0.000 A 
ATOM     17  C   UNL     1      48.801   7.909  17.055  0.00  0.00    +0.000 A 
ATOM     18  N   UNL     1      49.066   6.783  16.363  0.00  0.00    +0.000 NA
ATOM     19  C   UNL     1      48.892   6.843  15.020  0.00  0.00    +0.000 A 
ATOM     20  C   UNL     1      48.484   7.973  14.307  0.00  0.00    +0.000 A 
ATOM     21  C   UNL     1      48.171   9.097  15.085  0.00  0.00    +0.000 A 
ENDBRANCH  13  20
ENDBRANCH   1  13
TORSDOF 3
ENDMDL
