MODEL 1
REMARK VINA RESULT:    -7.266      0.000      0.000
REMARK INTER + INTRA:         -10.961
REMARK INTER:                  -9.815
REMARK INTRA:                  -1.146
REMARK UNBOUND:                -1.146
REMARK  Name = 
REMARK  8 active torsions:
REMARK  status: ('A' for Active; 'I' for Inactive)
REMARK    1  A    between atoms: C_1  and  C_2
REMARK    2  A    between atoms: C_2  and  C_3
REMARK    3  A    between atoms: C_2  and  C_10
REMARK    4  A    between atoms: C_3  and  N_4
REMARK    5  A    between atoms: C_13  and  C_14
REMARK    6  A    between atoms: C_14  and  N_15
REMARK    7  A    between atoms: N_15  and  C_16
REMARK    8  A    between atoms: C_17  and  C_19
REMARK                            x       y       z     vdW  Elec       q    Type
REMARK                         _______ _______ _______ _____ _____    ______ ____
ROOT
ATOM      1  C   UNL     1      48.950   7.051  14.053  0.00  0.00    +0.000 C 
ENDROOT
BRANCH   1   5
ATOM      2  C   UNL     1      45.358   5.258  12.547  0.00  0.00    +0.000 A 
ATOM      3  C   UNL     1      45.855   6.428  11.967  0.00  0.00    +0.000 A 
ATOM      4  C   UNL     1      46.982   7.055  12.479  0.00  0.00    +0.000 A 
ATOM      5  C   UNL     1      47.667   6.465  13.533  0.00  0.00    +0.000 A 
ATOM      6  C   UNL     1      47.127   5.290  14.047  0.00  0.00    +0.000 A 
ATOM      7  N   UNL     1      46.007   4.682  13.587  0.00  0.00    +0.000 NA
BRANCH   2   9
ATOM      8  C   UNL     1      42.855   4.903  12.874  0.00  0.00    +0.000 C 
ATOM      9  C   UNL     1      44.093   4.586  12.011  0.00  0.00    +0.000 C 
BRANCH   9  10
ATOM     10  C   UNL     1      43.771   4.953  10.531  0.00  0.00    +0.000 C 
BRANCH  10  11
ATOM     11  N   UNL     1      44.327   4.053   9.504  0.00  0.00    +0.000 NA
ATOM     12  C   UNL     1      45.520   4.590   8.834  0.00  0.00    +0.000 C 
ATOM     13  C   UNL     1      45.907   3.699   7.651  0.00  0.00    +0.000 C 
ATOM     14  C   UNL     1      46.140   2.264   8.102  0.00  0.00    +0.000 C 
ATOM     15  C   UNL     1      44.945   1.751   8.898  0.00  0.00    +0.000 C 
ATOM     16  C   UNL     1      44.578   2.708  10.034  0.00  0.00    +0.000 C 
ENDBRANCH  10  11
ENDBRANCH   9  10
ENDBRANCH   2   9
ENDBRANCH   1   5
BRANCH   1  17
ATOM     17  N   UNL     1      48.929   7.498  15.455  0.00  0.00    +0.000 N 
ATOM     18  C   UNL     1      48.313   8.780  15.772  0.00  0.00    +0.000 C 
ATOM     19  C   UNL     1      49.713   6.767  16.368  0.00  0.00    +0.000 C 
ATOM     20  O   UNL     1      50.349   5.779  15.999  0.00  0.00    +0.000 OA
BRANCH  19  21
ATOM     21  C   UNL     1      49.741   7.169  17.789  0.00  0.00    +0.000 A 
ATOM     22  C   UNL     1      50.580   8.147  18.312  0.00  0.00    +0.000 A 
ATOM     23  S   UNL     1      50.406   8.394  19.989  0.00  0.00    +0.000 S 
ATOM     24  C   UNL     1      49.071   7.342  20.051  0.00  0.00    +0.000 A 
ATOM     25  N   UNL     1      48.357   7.201  21.190  0.00  0.00    +0.000 NA
ATOM     26  C   UNL     1      47.333   6.421  21.084  0.00  0.00    +0.000 A 
ATOM     27  N   UNL     1      46.993   5.740  19.942  0.00  0.00    +0.000 N 
ATOM     28  C   UNL     1      47.767   5.737  18.807  0.00  0.00    +0.000 A 
ATOM     29  O   UNL     1      47.573   4.925  17.906  0.00  0.00    +0.000 OA
ATOM     30  C   UNL     1      48.849   6.712  18.832  0.00  0.00    +0.000 A 
ATOM     31  H   UNL     1      46.222   5.089  19.948  0.00  0.00    +0.000 HD
ENDBRANCH  19  21
ENDBRANCH   1  17
TORSDOF 6
ENDMDL
MODEL 2
REMARK VINA RESULT:    -6.497      1.791      2.156
REMARK INTER + INTRA:          -9.922
REMARK INTER:                  -8.837
REMARK INTRA:                  -1.085
REMARK UNBOUND:                -1.146
REMARK  Name = 
REMARK  8 active torsions:
REMARK  status: ('A' for Active; 'I' for Inactive)
REMARK    1  A    between atoms: C_1  and  C_2
REMARK    2  A    between atoms: C_2  and  C_3
REMARK    3  A    between atoms: C_2  and  C_10
REMARK    4  A    between atoms: C_3  and  N_4
REMARK    5  A    between atoms: C_13  and  C_14
REMARK    6  A    between atoms: C_14  and  N_15
REMARK    7  A    between atoms: N_15  and  C_16
REMARK    8  A    between atoms: C_17  and  C_19
REMARK                            x       y       z     vdW  Elec       q    Type
REMARK                         _______ _______ _______ _____ _____    ______ ____
ROOT
ATOM      1  C   UNL     1      48.208   8.946  13.218  0.00  0.00    +0.000 C 
ENDROOT
BRANCH   1   5
ATOM      2  C   UNL     1      45.221   6.023  12.262  0.00  0.00    +0.000 A 
ATOM      3  C   UNL     1      46.564   5.649  12.358  0.00  0.00    +0.000 A 
ATOM      4  C   UNL     1      47.551   6.592  12.607  0.00  0.00    +0.000 A 
ATOM      5  C   UNL     1      47.186   7.911  12.842  0.00  0.00    +0.000 A 
ATOM      6  C   UNL     1      45.829   8.207  12.751  0.00  0.00    +0.000 A 
ATOM      7  N   UNL     1      44.853   7.310  12.472  0.00  0.00    +0.000 NA
BRANCH   2   9
ATOM      8  C   UNL     1      42.934   5.103  12.910  0.00  0.00    +0.000 C 
ATOM      9  C   UNL     1      44.134   4.994  11.948  0.00  0.00    +0.000 C 
BRANCH   9  10
ATOM     10  C   UNL     1      43.603   5.074  10.486  0.00  0.00    +0.000 C 
BRANCH  10  11
ATOM     11  N   UNL     1      44.143   4.075   9.544  0.00  0.00    +0.000 NA
ATOM     12  C   UNL     1      45.343   4.530   8.828  0.00  0.00    +0.000 C 
ATOM     13  C   UNL     1      45.713   3.528   7.731  0.00  0.00    +0.000 C 
ATOM     14  C   UNL     1      45.925   2.137   8.310  0.00  0.00    +0.000 C 
ATOM     15  C   UNL     1      44.723   1.717   9.151  0.00  0.00    +0.000 C 
ATOM     16  C   UNL     1      44.373   2.780  10.195  0.00  0.00    +0.000 C 
ENDBRANCH  10  11
ENDBRANCH   9  10
ENDBRANCH   2   9
ENDBRANCH   1   5
BRANCH   1  17
ATOM     17  N   UNL     1      49.202   8.530  14.222  0.00  0.00    +0.000 N 
ATOM     18  C   UNL     1      50.394   7.821  13.776  0.00  0.00    +0.000 C 
ATOM     19  C   UNL     1      48.824   8.639  15.574  0.00  0.00    +0.000 C 
ATOM     20  O   UNL     1      47.723   9.099  15.884  0.00  0.00    +0.000 OA
BRANCH  19  21
ATOM     21  C   UNL     1      49.772   8.231  16.631  0.00  0.00    +0.000 A 
ATOM     22  C   UNL     1      50.618   9.106  17.306  0.00  0.00    +0.000 A 
ATOM     23  S   UNL     1      51.615   8.356  18.466  0.00  0.00    +0.000 S 
ATOM     24  C   UNL     1      50.823   6.867  18.252  0.00  0.00    +0.000 A 
ATOM     25  N   UNL     1      51.109   5.813  19.049  0.00  0.00    +0.000 NA
ATOM     26  C   UNL     1      50.393   4.762  18.820  0.00  0.00    +0.000 A 
ATOM     27  N   UNL     1      49.446   4.671  17.832  0.00  0.00    +0.000 N 
ATOM     28  C   UNL     1      49.223   5.661  16.906  0.00  0.00    +0.000 A 
ATOM     29  O   UNL     1      48.561   5.450  15.893  0.00  0.00    +0.000 OA
ATOM     30  C   UNL     1      49.902   6.914  17.212  0.00  0.00    +0.000 A 
ATOM     31  H   UNL     1      48.974   3.796  17.658  0.00  0.00    +0.000 HD
ENDBRANCH  19  21
ENDBRANCH   1  17
TORSDOF 6
ENDMDL
MODEL 3
REMARK VINA RESULT:    -6.376      4.281      5.404
REMARK INTER + INTRA:          -9.759
REMARK INTER:                  -8.628
REMARK INTRA:                  -1.131
REMARK UNBOUND:                -1.146
REMARK  Name = 
REMARK  8 active torsions:
REMARK  status: ('A' for Active; 'I' for Inactive)
REMARK    1  A    between atoms: C_1  and  C_2
REMARK    2  A    between atoms: C_2  and  C_3
REMARK    3  A    between atoms: C_2  and  C_10
REMARK    4  A    between atoms: C_3  and  N_4
REMARK    5  A    between atoms: C_13  and  C_14
REMARK    6  A    between atoms: C_14  and  N_15
REMARK    7  A    between atoms: N_15  and  C_16
REMARK    8  A    between atoms: C_17  and  C_19
REMARK                            x       y       z     vdW  Elec       q    Type
REMARK                         _______ _______ _______ _____ _____    ______ ____
ROOT
ATOM      1  C   UNL     1      45.841   8.781  13.176  0.00  0.00    +0.000 C 
ENDROOT
BRANCH   1   5
ATOM      2  C   UNL     1      45.034   4.791  11.831  0.00  0.00    +0.000 A 
ATOM      3  C   UNL     1      45.910   5.008  12.897  0.00  0.00    +0.000 A 
ATOM      4  C   UNL     1      46.229   6.295  13.307  0.00  0.00    +0.000 A 
ATOM      5  C   UNL     1      45.607   7.376  12.697  0.00  0.00    +0.000 A 
ATOM      6  C   UNL     1      44.730   7.084  11.657  0.00  0.00    +0.000 A 
ATOM      7  N   UNL     1      44.433   5.838  11.216  0.00  0.00    +0.000 NA
BRANCH   2   9
ATOM      8  C   UNL     1      43.559   2.738  12.153  0.00  0.00    +0.000 C 
ATOM      9  C   UNL     1      44.710   3.376  11.350  0.00  0.00    +0.000 C 
BRANCH   9  10
ATOM     10  C   UNL     1      44.357   3.298   9.834  0.00  0.00    +0.000 C 
BRANCH  10  11
ATOM     11  N   UNL     1      45.466   2.949   8.927  0.00  0.00    +0.000 NA
ATOM     12  C   UNL     1      45.475   1.536   8.524  0.00  0.00    +0.000 C 
ATOM     13  C   UNL     1      46.761   1.213   7.760  0.00  0.00    +0.000 C 
ATOM     14  C   UNL     1      46.920   2.121   6.549  0.00  0.00    +0.000 C 
ATOM     15  C   UNL     1      46.794   3.586   6.957  0.00  0.00    +0.000 C 
ATOM     16  C   UNL     1      45.514   3.834   7.757  0.00  0.00    +0.000 C 
ENDBRANCH  10  11
ENDBRANCH   9  10
ENDBRANCH   2   9
ENDBRANCH   1   5
BRANCH   1  17
ATOM     17  N   UNL     1      47.096   9.409  12.731  0.00  0.00    +0.000 N 
ATOM     18  C   UNL     1      47.197   9.874  11.354  0.00  0.00    +0.000 C 
ATOM     19  C   UNL     1      48.200   9.308  13.598  0.00  0.00    +0.000 C 
ATOM     20  O   UNL     1      48.092   8.751  14.692  0.00  0.00    +0.000 OA
BRANCH  19  21
ATOM     21  C   UNL     1      49.491   9.911  13.208  0.00  0.00    +0.000 A 
ATOM     22  C   UNL     1      49.942  11.153  13.644  0.00  0.00    +0.000 A 
ATOM     23  S   UNL     1      51.463  11.602  13.022  0.00  0.00    +0.000 S 
ATOM     24  C   UNL     1      51.669  10.076  12.300  0.00  0.00    +0.000 A 
ATOM     25  N   UNL     1      52.838   9.748  11.705  0.00  0.00    +0.000 NA
ATOM     26  C   UNL     1      52.883   8.539  11.252  0.00  0.00    +0.000 A 
ATOM     27  N   UNL     1      51.840   7.650  11.310  0.00  0.00    +0.000 N 
ATOM     28  C   UNL     1      50.589   7.984  11.771  0.00  0.00    +0.000 A 
ATOM     29  O   UNL     1      49.621   7.255  11.572  0.00  0.00    +0.000 OA
ATOM     30  C   UNL     1      50.532   9.286  12.422  0.00  0.00    +0.000 A 
ATOM     31  H   UNL     1      51.916   6.745  10.870  0.00  0.00    +0.000 HD
ENDBRANCH  19  21
ENDBRANCH   1  17
TORSDOF 6
ENDMDL
MODEL 4
REMARK VINA RESULT:    -6.354      1.676      2.216
REMARK INTER + INTRA:          -9.729
REMARK INTER:                  -8.700
REMARK INTRA:                  -1.030
REMARK UNBOUND:                -1.146
REMARK  Name = 
REMARK  8 active torsions:
REMARK  status: ('A' for Active; 'I' for Inactive)
REMARK    1  A    between atoms: C_1  and  C_2
REMARK    2  A    between atoms: C_2  and  C_3
REMARK    3  A    between atoms: C_2  and  C_10
REMARK    4  A    between atoms: C_3  and  N_4
REMARK    5  A    between atoms: C_13  and  C_14
REMARK    6  A    between atoms: C_14  and  N_15
REMARK    7  A    between atoms: N_15  and  C_16
REMARK    8  A    between atoms: C_17  and  C_19
REMARK                            x       y       z     vdW  Elec       q    Type
REMARK                         _______ _______ _______ _____ _____    ______ ____
ROOT
ATOM      1  C   UNL     1      48.183   4.332  14.842  0.00  0.00    +0.000 C 
ENDROOT
BRANCH   1   5
ATOM      2  C   UNL     1      44.719   4.352  12.316  0.00  0.00    +0.000 A 
ATOM      3  C   UNL     1      45.219   5.551  12.831  0.00  0.00    +0.000 A 
ATOM      4  C   UNL     1      46.303   5.558  13.698  0.00  0.00    +0.000 A 
ATOM      5  C   UNL     1      46.944   4.362  13.993  0.00  0.00    +0.000 A 
ATOM      6  C   UNL     1      46.404   3.210  13.428  0.00  0.00    +0.000 A 
ATOM      7  N   UNL     1      45.325   3.177  12.610  0.00  0.00    +0.000 NA
BRANCH   2   9
ATOM      8  C   UNL     1      42.408   5.321  11.852  0.00  0.00    +0.000 C 
ATOM      9  C   UNL     1      43.501   4.336  11.392  0.00  0.00    +0.000 C 
BRANCH   9  10
ATOM     10  C   UNL     1      43.843   4.639   9.903  0.00  0.00    +0.000 C 
BRANCH  10  11
ATOM     11  N   UNL     1      44.910   3.817   9.301  0.00  0.00    +0.000 NA
ATOM     12  C   UNL     1      44.517   2.419   9.073  0.00  0.00    +0.000 C 
ATOM     13  C   UNL     1      45.733   1.593   8.646  0.00  0.00    +0.000 C 
ATOM     14  C   UNL     1      46.384   2.181   7.403  0.00  0.00    +0.000 C 
ATOM     15  C   UNL     1      46.683   3.664   7.604  0.00  0.00    +0.000 C 
ATOM     16  C   UNL     1      45.442   4.424   8.076  0.00  0.00    +0.000 C 
ENDBRANCH  10  11
ENDBRANCH   9  10
ENDBRANCH   2   9
ENDBRANCH   1   5
BRANCH   1  17
ATOM     17  N   UNL     1      48.031   4.839  16.216  0.00  0.00    +0.000 N 
ATOM     18  C   UNL     1      46.985   4.276  17.059  0.00  0.00    +0.000 C 
ATOM     19  C   UNL     1      48.755   6.000  16.549  0.00  0.00    +0.000 C 
ATOM     20  O   UNL     1      49.506   6.530  15.728  0.00  0.00    +0.000 OA
BRANCH  19  21
ATOM     21  C   UNL     1      48.641   6.564  17.909  0.00  0.00    +0.000 A 
ATOM     22  C   UNL     1      47.922   7.712  18.225  0.00  0.00    +0.000 A 
ATOM     23  S   UNL     1      47.976   8.139  19.874  0.00  0.00    +0.000 S 
ATOM     24  C   UNL     1      48.802   6.704  20.265  0.00  0.00    +0.000 A 
ATOM     25  N   UNL     1      49.046   6.380  21.554  0.00  0.00    +0.000 NA
ATOM     26  C   UNL     1      49.624   5.235  21.715  0.00  0.00    +0.000 A 
ATOM     27  N   UNL     1      50.014   4.414  20.688  0.00  0.00    +0.000 N 
ATOM     28  C   UNL     1      49.920   4.766  19.363  0.00  0.00    +0.000 A 
ATOM     29  O   UNL     1      50.506   4.128  18.491  0.00  0.00    +0.000 OA
ATOM     30  C   UNL     1      49.146   5.978  19.131  0.00  0.00    +0.000 A 
ATOM     31  H   UNL     1      50.528   3.567  20.880  0.00  0.00    +0.000 HD
ENDBRANCH  19  21
ENDBRANCH   1  17
TORSDOF 6
ENDMDL
MODEL 5
REMARK VINA RESULT:    -6.283      3.631      4.874
REMARK INTER + INTRA:          -9.633
REMARK INTER:                  -8.445
REMARK INTRA:                  -1.188
REMARK UNBOUND:                -1.146
REMARK  Name = 
REMARK  8 active torsions:
REMARK  status: ('A' for Active; 'I' for Inactive)
REMARK    1  A    between atoms: C_1  and  C_2
REMARK    2  A    between atoms: C_2  and  C_3
REMARK    3  A    between atoms: C_2  and  C_10
REMARK    4  A    between atoms: C_3  and  N_4
REMARK    5  A    between atoms: C_13  and  C_14
REMARK    6  A    between atoms: C_14  and  N_15
REMARK    7  A    between atoms: N_15  and  C_16
REMARK    8  A    between atoms: C_17  and  C_19
REMARK                            x       y       z     vdW  Elec       q    Type
REMARK                         _______ _______ _______ _____ _____    ______ ____
ROOT
ATOM      1  C   UNL     1      50.091   7.355  17.689  0.00  0.00    +0.000 C 
ENDROOT
BRANCH   1   5
ATOM      2  C   UNL     1      47.863   6.973  14.046  0.00  0.00    +0.000 A 
ATOM      3  C   UNL     1      48.342   8.223  14.447  0.00  0.00    +0.000 A 
ATOM      4  C   UNL     1      49.014   8.375  15.653  0.00  0.00    +0.000 A 
ATOM      5  C   UNL     1      49.278   7.255  16.429  0.00  0.00    +0.000 A 
ATOM      6  C   UNL     1      48.789   6.041  15.957  0.00  0.00    +0.000 A 
ATOM      7  N   UNL     1      48.099   5.875  14.803  0.00  0.00    +0.000 NA
BRANCH   2   9
ATOM      8  C   UNL     1      47.837   7.418  11.537  0.00  0.00    +0.000 C 
ATOM      9  C   UNL     1      47.089   6.807  12.738  0.00  0.00    +0.000 C 
BRANCH   9  10
ATOM     10  C   UNL     1      46.742   5.326  12.402  0.00  0.00    +0.000 C 
BRANCH  10  11
ATOM     11  N   UNL     1      45.314   5.025  12.192  0.00  0.00    +0.000 NA
ATOM     12  C   UNL     1      44.426   5.672  13.167  0.00  0.00    +0.000 C 
ATOM     13  C   UNL     1      42.997   5.147  13.009  0.00  0.00    +0.000 C 
ATOM     14  C   UNL     1      42.489   5.363  11.591  0.00  0.00    +0.000 C 
ATOM     15  C   UNL     1      43.474   4.792  10.575  0.00  0.00    +0.000 C 
ATOM     16  C   UNL     1      44.892   5.315  10.817  0.00  0.00    +0.000 C 
ENDBRANCH  10  11
ENDBRANCH   9  10
ENDBRANCH   2   9
ENDBRANCH   1   5
BRANCH   1  17
ATOM     17  N   UNL     1      51.214   6.411  17.804  0.00  0.00    +0.000 N 
ATOM     18  C   UNL     1      52.288   6.476  16.820  0.00  0.00    +0.000 C 
ATOM     19  C   UNL     1      51.064   5.352  18.719  0.00  0.00    +0.000 C 
ATOM     20  O   UNL     1      50.049   5.258  19.411  0.00  0.00    +0.000 OA
BRANCH  19  21
ATOM     21  C   UNL     1      52.152   4.365  18.877  0.00  0.00    +0.000 A 
ATOM     22  C   UNL     1      53.263   4.545  19.695  0.00  0.00    +0.000 A 
ATOM     23  S   UNL     1      54.365   3.247  19.672  0.00  0.00    +0.000 S 
ATOM     24  C   UNL     1      53.313   2.311  18.719  0.00  0.00    +0.000 A 
ATOM     25  N   UNL     1      53.601   1.020  18.441  0.00  0.00    +0.000 NA
ATOM     26  C   UNL     1      52.690   0.406  17.761  0.00  0.00    +0.000 A 
ATOM     27  N   UNL     1      51.537   0.993  17.303  0.00  0.00    +0.000 N 
ATOM     28  C   UNL     1      51.271   2.334  17.435  0.00  0.00    +0.000 A 
ATOM     29  O   UNL     1      50.367   2.869  16.798  0.00  0.00    +0.000 OA
ATOM     30  C   UNL     1      52.196   3.033  18.316  0.00  0.00    +0.000 A 
ATOM     31  H   UNL     1      50.902   0.476  16.714  0.00  0.00    +0.000 HD
ENDBRANCH  19  21
ENDBRANCH   1  17
TORSDOF 6
ENDMDL
MODEL 6
REMARK VINA RESULT:    -6.086      3.488      4.691
REMARK INTER + INTRA:          -9.366
REMARK INTER:                  -8.445
REMARK INTRA:                  -0.921
REMARK UNBOUND:                -1.146
REMARK  Name = 
REMARK  8 active torsions:
REMARK  status: ('A' for Active; 'I' for Inactive)
REMARK    1  A    between atoms: C_1  and  C_2
REMARK    2  A    between atoms: C_2  and  C_3
REMARK    3  A    between atoms: C_2  and  C_10
REMARK    4  A    between atoms: C_3  and  N_4
REMARK    5  A    between atoms: C_13  and  C_14
REMARK    6  A    between atoms: C_14  and  N_15
REMARK    7  A    between atoms: N_15  and  C_16
REMARK    8  A    between atoms: C_17  and  C_19
REMARK                            x       y       z     vdW  Elec       q    Type
REMARK                         _______ _______ _______ _____ _____    ______ ____
ROOT
ATOM      1  C   UNL     1      47.148   8.200  12.578  0.00  0.00    +0.000 C 
ENDROOT
BRANCH   1   5
ATOM      2  C   UNL     1      45.319   4.442  11.621  0.00  0.00    +0.000 A 
ATOM      3  C   UNL     1      46.128   4.560  12.754  0.00  0.00    +0.000 A 
ATOM      4  C   UNL     1      46.776   5.752  13.046  0.00  0.00    +0.000 A 
ATOM      5  C   UNL     1      46.552   6.862  12.242  0.00  0.00    +0.000 A 
ATOM      6  C   UNL     1      45.718   6.676  11.143  0.00  0.00    +0.000 A 
ATOM      7  N   UNL     1      45.106   5.512  10.818  0.00  0.00    +0.000 NA
BRANCH   2   9
ATOM      8  C   UNL     1      43.333   2.910  12.071  0.00  0.00    +0.000 C 
ATOM      9  C   UNL     1      44.635   3.119  11.273  0.00  0.00    +0.000 C 
BRANCH   9  10
ATOM     10  C   UNL     1      44.314   2.962   9.756  0.00  0.00    +0.000 C 
BRANCH  10  11
ATOM     11  N   UNL     1      45.470   2.736   8.869  0.00  0.00    +0.000 NA
ATOM     12  C   UNL     1      45.576   1.355   8.380  0.00  0.00    +0.000 C 
ATOM     13  C   UNL     1      46.903   1.156   7.643  0.00  0.00    +0.000 C 
ATOM     14  C   UNL     1      47.045   2.146   6.497  0.00  0.00    +0.000 C 
ATOM     15  C   UNL     1      46.818   3.573   6.989  0.00  0.00    +0.000 C 
ATOM     16  C   UNL     1      45.501   3.695   7.758  0.00  0.00    +0.000 C 
ENDBRANCH  10  11
ENDBRANCH   9  10
ENDBRANCH   2   9
ENDBRANCH   1   5
BRANCH   1  17
ATOM     17  N   UNL     1      48.566   8.189  12.971  0.00  0.00    +0.000 N 
ATOM     18  C   UNL     1      49.545   7.623  12.052  0.00  0.00    +0.000 C 
ATOM     19  C   UNL     1      48.857   8.513  14.310  0.00  0.00    +0.000 C 
ATOM     20  O   UNL     1      47.957   8.827  15.091  0.00  0.00    +0.000 OA
BRANCH  19  21
ATOM     21  C   UNL     1      50.261   8.514  14.772  0.00  0.00    +0.000 A 
ATOM     22  C   UNL     1      50.902   7.417  15.338  0.00  0.00    +0.000 A 
ATOM     23  S   UNL     1      52.518   7.709  15.790  0.00  0.00    +0.000 S 
ATOM     24  C   UNL     1      52.488   9.251  15.074  0.00  0.00    +0.000 A 
ATOM     25  N   UNL     1      53.614   9.995  14.992  0.00  0.00    +0.000 NA
ATOM     26  C   UNL     1      53.466  11.118  14.370  0.00  0.00    +0.000 A 
ATOM     27  N   UNL     1      52.275  11.571  13.863  0.00  0.00    +0.000 N 
ATOM     28  C   UNL     1      51.079  10.920  14.048  0.00  0.00    +0.000 A 
ATOM     29  O   UNL     1      50.009  11.474  13.809  0.00  0.00    +0.000 OA
ATOM     30  C   UNL     1      51.219   9.585  14.615  0.00  0.00    +0.000 A 
ATOM     31  H   UNL     1      52.213  12.491  13.453  0.00  0.00    +0.000 HD
ENDBRANCH  19  21
ENDBRANCH   1  17
TORSDOF 6
ENDMDL
MODEL 7
REMARK VINA RESULT:    -6.064      4.686      8.794
REMARK INTER + INTRA:          -9.338
REMARK INTER:                  -8.198
REMARK INTRA:                  -1.140
REMARK UNBOUND:                -1.146
REMARK  Name = 
REMARK  8 active torsions:
REMARK  status: ('A' for Active; 'I' for Inactive)
REMARK    1  A    between atoms: C_1  and  C_2
REMARK    2  A    between atoms: C_2  and  C_3
REMARK    3  A    between atoms: C_2  and  C_10
REMARK    4  A    between atoms: C_3  and  N_4
REMARK    5  A    between atoms: C_13  and  C_14
REMARK    6  A    between atoms: C_14  and  N_15
REMARK    7  A    between atoms: N_15  and  C_16
REMARK    8  A    between atoms: C_17  and  C_19
REMARK                            x       y       z     vdW  Elec       q    Type
REMARK                         _______ _______ _______ _____ _____    ______ ____
ROOT
ATOM      1  C   UNL     1      46.468   8.259  13.105  0.00  0.00    +0.000 C 
ENDROOT
BRANCH   1   5
ATOM      2  C   UNL     1      50.570   9.355  12.512  0.00  0.00    +0.000 A 
ATOM      3  C   UNL     1      49.745   9.104  11.413  0.00  0.00    +0.000 A 
ATOM      4  C   UNL     1      48.432   8.690  11.587  0.00  0.00    +0.000 A 
ATOM      5  C   UNL     1      47.912   8.601  12.871  0.00  0.00    +0.000 A 
ATOM      6  C   UNL     1      48.785   8.886  13.917  0.00  0.00    +0.000 A 
ATOM      7  N   UNL     1      50.081   9.255  13.771  0.00  0.00    +0.000 NA
BRANCH   2   9
ATOM      8  C   UNL     1      52.559  10.587  13.523  0.00  0.00    +0.000 C 
ATOM      9  C   UNL     1      52.030   9.773  12.326  0.00  0.00    +0.000 C 
BRANCH   9  10
ATOM     10  C   UNL     1      52.995   8.575  12.078  0.00  0.00    +0.000 C 
BRANCH  10  11
ATOM     11  N   UNL     1      53.264   8.240  10.667  0.00  0.00    +0.000 NA
ATOM     12  C   UNL     1      52.469   7.110  10.168  0.00  0.00    +0.000 C 
ATOM     13  C   UNL     1      52.955   6.698   8.776  0.00  0.00    +0.000 C 
ATOM     14  C   UNL     1      52.894   7.870   7.807  0.00  0.00    +0.000 C 
ATOM     15  C   UNL     1      53.623   9.080   8.383  0.00  0.00    +0.000 C 
ATOM     16  C   UNL     1      53.128   9.411   9.793  0.00  0.00    +0.000 C 
ENDBRANCH  10  11
ENDBRANCH   9  10
ENDBRANCH   2   9
ENDBRANCH   1   5
BRANCH   1  17
ATOM     17  N   UNL     1      46.101   6.849  12.892  0.00  0.00    +0.000 N 
ATOM     18  C   UNL     1      47.005   5.810  13.368  0.00  0.00    +0.000 C 
ATOM     19  C   UNL     1      45.013   6.597  12.035  0.00  0.00    +0.000 C 
ATOM     20  O   UNL     1      44.384   7.528  11.527  0.00  0.00    +0.000 OA
BRANCH  19  21
ATOM     21  C   UNL     1      44.597   5.204  11.775  0.00  0.00    +0.000 A 
ATOM     22  C   UNL     1      43.846   4.431  12.654  0.00  0.00    +0.000 A 
ATOM     23  S   UNL     1      43.525   2.853  12.097  0.00  0.00    +0.000 S 
ATOM     24  C   UNL     1      44.210   3.200  10.580  0.00  0.00    +0.000 A 
ATOM     25  N   UNL     1      44.142   2.301   9.572  0.00  0.00    +0.000 NA
ATOM     26  C   UNL     1      44.646   2.714   8.456  0.00  0.00    +0.000 A 
ATOM     27  N   UNL     1      45.248   3.934   8.282  0.00  0.00    +0.000 N 
ATOM     28  C   UNL     1      45.470   4.819   9.310  0.00  0.00    +0.000 A 
ATOM     29  O   UNL     1      46.230   5.775   9.175  0.00  0.00    +0.000 OA
ATOM     30  C   UNL     1      44.794   4.461  10.550  0.00  0.00    +0.000 A 
ATOM     31  H   UNL     1      45.687   4.165   7.404  0.00  0.00    +0.000 HD
ENDBRANCH  19  21
ENDBRANCH   1  17
TORSDOF 6
ENDMDL
MODEL 8
REMARK VINA RESULT:    -6.046      3.961      8.772
REMARK INTER + INTRA:          -9.313
REMARK INTER:                  -8.644
REMARK INTRA:                  -0.670
REMARK UNBOUND:                -1.146
REMARK  Name = 
REMARK  8 active torsions:
REMARK  status: ('A' for Active; 'I' for Inactive)
REMARK    1  A    between atoms: C_1  and  C_2
REMARK    2  A    between atoms: C_2  and  C_3
REMARK    3  A    between atoms: C_2  and  C_10
REMARK    4  A    between atoms: C_3  and  N_4
REMARK    5  A    between atoms: C_13  and  C_14
REMARK    6  A    between atoms: C_14  and  N_15
REMARK    7  A    between atoms: N_15  and  C_16
REMARK    8  A    between atoms: C_17  and  C_19
REMARK                            x       y       z     vdW  Elec       q    Type
REMARK                         _______ _______ _______ _____ _____    ______ ____
ROOT
ATOM      1  C   UNL     1      47.581   7.810  13.538  0.00  0.00    +0.000 C 
ENDROOT
BRANCH   1   5
ATOM      2  C   UNL     1      50.706   6.827  16.305  0.00  0.00    +0.000 A 
ATOM      3  C   UNL     1      49.385   6.462  16.579  0.00  0.00    +0.000 A 
ATOM      4  C   UNL     1      48.353   6.824  15.725  0.00  0.00    +0.000 A 
ATOM      5  C   UNL     1      48.651   7.490  14.543  0.00  0.00    +0.000 A 
ATOM      6  C   UNL     1      49.990   7.802  14.326  0.00  0.00    +0.000 A 
ATOM      7  N   UNL     1      51.008   7.492  15.164  0.00  0.00    +0.000 NA
BRANCH   2   9
ATOM      8  C   UNL     1      52.323   7.680  18.080  0.00  0.00    +0.000 C 
ATOM      9  C   UNL     1      51.841   6.465  17.263  0.00  0.00    +0.000 C 
BRANCH   9  10
ATOM     10  C   UNL     1      51.480   5.317  18.252  0.00  0.00    +0.000 C 
BRANCH  10  11
ATOM     11  N   UNL     1      51.719   3.944  17.769  0.00  0.00    +0.000 NA
ATOM     12  C   UNL     1      52.777   3.237  18.504  0.00  0.00    +0.000 C 
ATOM     13  C   UNL     1      53.103   1.911  17.813  0.00  0.00    +0.000 C 
ATOM     14  C   UNL     1      51.861   1.041  17.685  0.00  0.00    +0.000 C 
ATOM     15  C   UNL     1      50.727   1.820  17.025  0.00  0.00    +0.000 C 
ATOM     16  C   UNL     1      50.482   3.155  17.731  0.00  0.00    +0.000 C 
ENDBRANCH  10  11
ENDBRANCH   9  10
ENDBRANCH   2   9
ENDBRANCH   1   5
BRANCH   1  17
ATOM     17  N   UNL     1      47.067   6.668  12.764  0.00  0.00    +0.000 N 
ATOM     18  C   UNL     1      47.730   5.377  12.895  0.00  0.00    +0.000 C 
ATOM     19  C   UNL     1      46.112   6.953  11.769  0.00  0.00    +0.000 C 
ATOM     20  O   UNL     1      45.710   8.104  11.596  0.00  0.00    +0.000 OA
BRANCH  19  21
ATOM     21  C   UNL     1      45.561   5.852  10.952  0.00  0.00    +0.000 A 
ATOM     22  C   UNL     1      45.895   5.618   9.622  0.00  0.00    +0.000 A 
ATOM     23  S   UNL     1      45.095   4.286   8.925  0.00  0.00    +0.000 S 
ATOM     24  C   UNL     1      44.417   3.851  10.423  0.00  0.00    +0.000 A 
ATOM     25  N   UNL     1      43.713   2.704  10.554  0.00  0.00    +0.000 NA
ATOM     26  C   UNL     1      43.307   2.463  11.757  0.00  0.00    +0.000 A 
ATOM     27  N   UNL     1      43.512   3.298  12.825  0.00  0.00    +0.000 N 
ATOM     28  C   UNL     1      44.092   4.538  12.713  0.00  0.00    +0.000 A 
ATOM     29  O   UNL     1      44.028   5.357  13.627  0.00  0.00    +0.000 OA
ATOM     30  C   UNL     1      44.693   4.790  11.410  0.00  0.00    +0.000 A 
ATOM     31  H   UNL     1      43.103   3.086  13.723  0.00  0.00    +0.000 HD
ENDBRANCH  19  21
ENDBRANCH   1  17
TORSDOF 6
ENDMDL
MODEL 9
REMARK VINA RESULT:    -5.816      3.181      7.866
REMARK INTER + INTRA:          -9.003
REMARK INTER:                  -7.607
REMARK INTRA:                  -1.396
REMARK UNBOUND:                -1.146
REMARK  Name = 
REMARK  8 active torsions:
REMARK  status: ('A' for Active; 'I' for Inactive)
REMARK    1  A    between atoms: C_1  and  C_2
REMARK    2  A    between atoms: C_2  and  C_3
REMARK    3  A    between atoms: C_2  and  C_10
REMARK    4  A    between atoms: C_3  and  N_4
REMARK    5  A    between atoms: C_13  and  C_14
REMARK    6  A    between atoms: C_14  and  N_15
REMARK    7  A    between atoms: N_15  and  C_16
REMARK    8  A    between atoms: C_17  and  C_19
REMARK                            x       y       z     vdW  Elec       q    Type
REMARK                         _______ _______ _______ _____ _____    ______ ____
ROOT
ATOM      1  C   UNL     1      49.603   8.768  13.923  0.00  0.00    +0.000 C 
ENDROOT
BRANCH   1   5
ATOM      2  C   UNL     1      50.958   7.014  17.593  0.00  0.00    +0.000 A 
ATOM      3  C   UNL     1      49.959   7.990  17.609  0.00  0.00    +0.000 A 
ATOM      4  C   UNL     1      49.550   8.611  16.437  0.00  0.00    +0.000 A 
ATOM      5  C   UNL     1      50.089   8.199  15.226  0.00  0.00    +0.000 A 
ATOM      6  C   UNL     1      51.064   7.207  15.284  0.00  0.00    +0.000 A 
ATOM      7  N   UNL     1      51.504   6.614  16.420  0.00  0.00    +0.000 NA
BRANCH   2   9
ATOM      8  C   UNL     1      50.947   7.105  20.140  0.00  0.00    +0.000 C 
ATOM      9  C   UNL     1      51.439   6.355  18.886  0.00  0.00    +0.000 C 
BRANCH   9  10
ATOM     10  C   UNL     1      51.028   4.857  19.014  0.00  0.00    +0.000 C 
BRANCH  10  11
ATOM     11  N   UNL     1      49.845   4.441  18.237  0.00  0.00    +0.000 NA
ATOM     12  C   UNL     1      49.912   3.052  17.763  0.00  0.00    +0.000 C 
ATOM     13  C   UNL     1      48.757   2.767  16.799  0.00  0.00    +0.000 C 
ATOM     14  C   UNL     1      47.415   3.048  17.458  0.00  0.00    +0.000 C 
ATOM     15  C   UNL     1      47.393   4.453  18.053  0.00  0.00    +0.000 C 
ATOM     16  C   UNL     1      48.597   4.692  18.966  0.00  0.00    +0.000 C 
ENDBRANCH  10  11
ENDBRANCH   9  10
ENDBRANCH   2   9
ENDBRANCH   1   5
BRANCH   1  17
ATOM     17  N   UNL     1      48.656   7.929  13.171  0.00  0.00    +0.000 N 
ATOM     18  C   UNL     1      49.138   7.200  12.005  0.00  0.00    +0.000 C 
ATOM     19  C   UNL     1      47.291   8.070  13.488  0.00  0.00    +0.000 C 
ATOM     20  O   UNL     1      46.930   8.835  14.383  0.00  0.00    +0.000 OA
BRANCH  19  21
ATOM     21  C   UNL     1      46.288   7.262  12.765  0.00  0.00    +0.000 A 
ATOM     22  C   UNL     1      45.432   7.763  11.789  0.00  0.00    +0.000 A 
ATOM     23  S   UNL     1      44.368   6.605  11.133  0.00  0.00    +0.000 S 
ATOM     24  C   UNL     1      45.136   5.349  11.985  0.00  0.00    +0.000 A 
ATOM     25  N   UNL     1      44.791   4.060  11.770  0.00  0.00    +0.000 NA
ATOM     26  C   UNL     1      45.493   3.203  12.434  0.00  0.00    +0.000 A 
ATOM     27  N   UNL     1      46.481   3.537  13.326  0.00  0.00    +0.000 N 
ATOM     28  C   UNL     1      46.767   4.831  13.685  0.00  0.00    +0.000 A 
ATOM     29  O   UNL     1      47.469   5.081  14.662  0.00  0.00    +0.000 OA
ATOM     30  C   UNL     1      46.103   5.831  12.858  0.00  0.00    +0.000 A 
ATOM     31  H   UNL     1      46.941   2.820  13.868  0.00  0.00    +0.000 HD
ENDBRANCH  19  21
ENDBRANCH   1  17
TORSDOF 6
ENDMDL
