MODEL 1
REMARK VINA RESULT:    -8.487      0.000      0.000
REMARK INTER + INTRA:         -12.350
REMARK INTER:                 -11.464
REMARK INTRA:                  -0.886
REMARK UNBOUND:                -0.886
REMARK  Name = 
REMARK  8 active torsions:
REMARK  status: ('A' for Active; 'I' for Inactive)
REMARK    1  A    between atoms: C_1  and  C_2
REMARK    2  A    between atoms: C_8  and  C_9
REMARK    3  A    between atoms: N_11  and  C_12
REMARK    4  A    between atoms: C_12  and  C_13
REMARK    5  A    between atoms: C_16  and  N_17
REMARK    6  A    between atoms: N_17  and  C_18
REMARK    7  A    between atoms: N_17  and  C_19
REMARK    8  A    between atoms: C_19  and  C_20
REMARK                            x       y       z     vdW  Elec       q    Type
REMARK                         _______ _______ _______ _____ _____    ______ ____
ROOT
ATOM      1  C   UNL     1      48.080   6.427  14.585  0.00  0.00    +0.000 C 
ENDROOT
BRANCH   1   2
ATOM      2  C   UNL     1      47.157   5.754  13.598  0.00  0.00    +0.000 A 
ATOM      3  C   UNL     1      46.659   4.464  13.813  0.00  0.00    +0.000 A 
ATOM      4  C   UNL     1      45.791   3.857  12.882  0.00  0.00    +0.000 A 
ATOM      5  C   UNL     1      45.374   4.513  11.713  0.00  0.00    +0.000 A 
ATOM      6  C   UNL     1      45.930   5.787  11.496  0.00  0.00    +0.000 A 
ATOM      7  C   UNL     1      46.798   6.399  12.415  0.00  0.00    +0.000 A 
BRANCH   5   8
ATOM      8  N   UNL     1      44.409   3.956  10.870  0.00  0.00    +0.000 N 
ATOM      9  C   UNL     1      43.084   3.626  11.395  0.00  0.00    +0.000 C 
BRANCH   8  10
ATOM     10  C   UNL     1      44.481   4.175   9.413  0.00  0.00    +0.000 C 
BRANCH  10  11
ATOM     11  C   UNL     1      45.380   3.234   8.644  0.00  0.00    +0.000 A 
ATOM     12  C   UNL     1      46.220   3.748   7.642  0.00  0.00    +0.000 A 
ATOM     13  C   UNL     1      47.074   2.909   6.928  0.00  0.00    +0.000 A 
ATOM     14  C   UNL     1      47.062   1.559   7.230  0.00  0.00    +0.000 A 
ATOM     15  N   UNL     1      46.267   1.019   8.179  0.00  0.00    +0.000 NA
ATOM     16  C   UNL     1      45.447   1.863   8.859  0.00  0.00    +0.000 A 
ENDBRANCH  10  11
ENDBRANCH   8  10
ENDBRANCH   5   8
ENDBRANCH   1   2
BRANCH   1  19
ATOM     17  C   UNL     1      49.138   5.618  16.659  0.00  0.00    +0.000 C 
ATOM     18  O   UNL     1      50.252   5.977  16.297  0.00  0.00    +0.000 OA
ATOM     19  N   UNL     1      48.013   5.784  15.877  0.00  0.00    +0.000 N 
ATOM     20  H   UNL     1      47.106   5.679  16.306  0.00  0.00    +0.000 HD
BRANCH  17  28
ATOM     21  C   UNL     1      47.381   8.490  21.489  0.00  0.00    +0.000 C 
ATOM     22  C   UNL     1      47.746   7.129  20.986  0.00  0.00    +0.000 A 
ATOM     23  C   UNL     1      47.717   6.014  21.819  0.00  0.00    +0.000 A 
ATOM     24  N   UNL     1      48.018   4.747  21.455  0.00  0.00    +0.000 NA
ATOM     25  C   UNL     1      48.372   4.638  20.162  0.00  0.00    +0.000 A 
ATOM     26  N   UNL     1      48.697   3.457  19.560  0.00  0.00    +0.000 N 
ATOM     27  C   UNL     1      48.994   3.676  18.241  0.00  0.00    +0.000 A 
ATOM     28  C   UNL     1      48.883   5.036  17.977  0.00  0.00    +0.000 A 
ATOM     29  C   UNL     1      48.465   5.651  19.210  0.00  0.00    +0.000 A 
ATOM     30  C   UNL     1      48.122   6.947  19.647  0.00  0.00    +0.000 A 
ATOM     31  H   UNL     1      48.698   2.568  20.038  0.00  0.00    +0.000 HD
ENDBRANCH  17  28
ENDBRANCH   1  19
TORSDOF 6
ENDMDL
MODEL 2
REMARK VINA RESULT:    -8.037      1.886      2.634
REMARK INTER + INTRA:         -11.742
REMARK INTER:                 -10.663
REMARK INTRA:                  -1.080
REMARK UNBOUND:                -0.886
REMARK  Name = 
REMARK  8 active torsions:
REMARK  status: ('A' for Active; 'I' for Inactive)
REMARK    1  A    between atoms: C_1  and  C_2
REMARK    2  A    between atoms: C_8  and  C_9
REMARK    3  A    between atoms: N_11  and  C_12
REMARK    4  A    between atoms: C_12  and  C_13
REMARK    5  A    between atoms: C_16  and  N_17
REMARK    6  A    between atoms: N_17  and  C_18
REMARK    7  A    between atoms: N_17  and  C_19
REMARK    8  A    between atoms: C_19  and  C_20
REMARK                            x       y       z     vdW  Elec       q    Type
REMARK                         _______ _______ _______ _____ _____    ______ ____
ROOT
ATOM      1  C   UNL     1      47.208   7.954  13.322  0.00  0.00    +0.000 C 
ENDROOT
BRANCH   1   2
ATOM      2  C   UNL     1      46.526   6.816  12.603  0.00  0.00    +0.000 A 
ATOM      3  C   UNL     1      46.036   5.698  13.287  0.00  0.00    +0.000 A 
ATOM      4  C   UNL     1      45.394   4.649  12.596  0.00  0.00    +0.000 A 
ATOM      5  C   UNL     1      45.201   4.679  11.206  0.00  0.00    +0.000 A 
ATOM      6  C   UNL     1      45.749   5.789  10.538  0.00  0.00    +0.000 A 
ATOM      7  C   UNL     1      46.393   6.838  11.215  0.00  0.00    +0.000 A 
BRANCH   5   8
ATOM      8  N   UNL     1      44.445   3.701  10.555  0.00  0.00    +0.000 N 
ATOM      9  C   UNL     1      43.332   3.055  11.251  0.00  0.00    +0.000 C 
BRANCH   8  10
ATOM     10  C   UNL     1      44.376   3.676   9.081  0.00  0.00    +0.000 C 
BRANCH  10  11
ATOM     11  C   UNL     1      45.433   2.853   8.382  0.00  0.00    +0.000 A 
ATOM     12  C   UNL     1      46.308   3.478   7.477  0.00  0.00    +0.000 A 
ATOM     13  C   UNL     1      47.304   2.750   6.831  0.00  0.00    +0.000 A 
ATOM     14  C   UNL     1      47.399   1.395   7.099  0.00  0.00    +0.000 A 
ATOM     15  N   UNL     1      46.577   0.750   7.954  0.00  0.00    +0.000 NA
ATOM     16  C   UNL     1      45.616   1.488   8.570  0.00  0.00    +0.000 A 
ENDBRANCH  10  11
ENDBRANCH   8  10
ENDBRANCH   5   8
ENDBRANCH   1   2
BRANCH   1  19
ATOM     17  C   UNL     1      49.160   7.345  14.698  0.00  0.00    +0.000 C 
ATOM     18  O   UNL     1      49.943   7.548  13.777  0.00  0.00    +0.000 OA
ATOM     19  N   UNL     1      47.796   7.504  14.562  0.00  0.00    +0.000 N 
ATOM     20  H   UNL     1      47.229   7.541  15.396  0.00  0.00    +0.000 HD
BRANCH  17  28
ATOM     21  C   UNL     1      47.338   2.710  17.837  0.00  0.00    +0.000 C 
ATOM     22  C   UNL     1      48.253   3.892  17.892  0.00  0.00    +0.000 A 
ATOM     23  C   UNL     1      49.038   4.153  19.011  0.00  0.00    +0.000 A 
ATOM     24  N   UNL     1      49.898   5.187  19.149  0.00  0.00    +0.000 NA
ATOM     25  C   UNL     1      49.938   5.990  18.071  0.00  0.00    +0.000 A 
ATOM     26  N   UNL     1      50.748   7.085  17.967  0.00  0.00    +0.000 N 
ATOM     27  C   UNL     1      50.568   7.680  16.747  0.00  0.00    +0.000 A 
ATOM     28  C   UNL     1      49.600   6.974  16.043  0.00  0.00    +0.000 A 
ATOM     29  C   UNL     1      49.210   5.876  16.889  0.00  0.00    +0.000 A 
ATOM     30  C   UNL     1      48.342   4.769  16.800  0.00  0.00    +0.000 A 
ATOM     31  H   UNL     1      51.385   7.379  18.694  0.00  0.00    +0.000 HD
ENDBRANCH  17  28
ENDBRANCH   1  19
TORSDOF 6
ENDMDL
MODEL 3
REMARK VINA RESULT:    -7.640      1.695      2.336
REMARK INTER + INTRA:         -11.206
REMARK INTER:                 -10.248
REMARK INTRA:                  -0.958
REMARK UNBOUND:                -0.886
REMARK  Name = 
REMARK  8 active torsions:
REMARK  status: ('A' for Active; 'I' for Inactive)
REMARK    1  A    between atoms: C_1  and  C_2
REMARK    2  A    between atoms: C_8  and  C_9
REMARK    3  A    between atoms: N_11  and  C_12
REMARK    4  A    between atoms: C_12  and  C_13
REMARK    5  A    between atoms: C_16  and  N_17
REMARK    6  A    between atoms: N_17  and  C_18
REMARK    7  A    between atoms: N_17  and  C_19
REMARK    8  A    between atoms: C_19  and  C_20
REMARK                            x       y       z     vdW  Elec       q    Type
REMARK                         _______ _______ _______ _____ _____    ______ ____
ROOT
ATOM      1  C   UNL     1      48.674   7.199  13.782  0.00  0.00    +0.000 C 
ENDROOT
BRANCH   1   2
ATOM      2  C   UNL     1      47.587   6.398  13.109  0.00  0.00    +0.000 A 
ATOM      3  C   UNL     1      47.066   5.232  13.681  0.00  0.00    +0.000 A 
ATOM      4  C   UNL     1      46.045   4.502  13.038  0.00  0.00    +0.000 A 
ATOM      5  C   UNL     1      45.492   4.911  11.815  0.00  0.00    +0.000 A 
ATOM      6  C   UNL     1      46.069   6.056  11.237  0.00  0.00    +0.000 A 
ATOM      7  C   UNL     1      47.089   6.789  11.866  0.00  0.00    +0.000 A 
BRANCH   5   8
ATOM      8  N   UNL     1      44.390   4.257  11.259  0.00  0.00    +0.000 N 
ATOM      9  C   UNL     1      43.203   4.002  12.076  0.00  0.00    +0.000 C 
BRANCH   8  10
ATOM     10  C   UNL     1      44.164   4.291   9.801  0.00  0.00    +0.000 C 
BRANCH  10  11
ATOM     11  C   UNL     1      45.082   3.426   8.968  0.00  0.00    +0.000 A 
ATOM     12  C   UNL     1      45.875   4.021   7.972  0.00  0.00    +0.000 A 
ATOM     13  C   UNL     1      46.744   3.254   7.200  0.00  0.00    +0.000 A 
ATOM     14  C   UNL     1      46.795   1.891   7.437  0.00  0.00    +0.000 A 
ATOM     15  N   UNL     1      46.047   1.274   8.377  0.00  0.00    +0.000 NA
ATOM     16  C   UNL     1      45.210   2.050   9.115  0.00  0.00    +0.000 A 
ENDBRANCH  10  11
ENDBRANCH   8  10
ENDBRANCH   5   8
ENDBRANCH   1   2
BRANCH   1  19
ATOM     17  C   UNL     1      48.900   7.456  16.223  0.00  0.00    +0.000 C 
ATOM     18  O   UNL     1      49.899   6.747  16.261  0.00  0.00    +0.000 OA
ATOM     19  N   UNL     1      48.222   7.722  15.050  0.00  0.00    +0.000 N 
ATOM     20  H   UNL     1      47.553   8.477  15.040  0.00  0.00    +0.000 HD
BRANCH  17  28
ATOM     21  C   UNL     1      48.171   5.135  21.584  0.00  0.00    +0.000 C 
ATOM     22  C   UNL     1      47.982   6.397  20.803  0.00  0.00    +0.000 A 
ATOM     23  C   UNL     1      47.454   7.543  21.390  0.00  0.00    +0.000 A 
ATOM     24  N   UNL     1      47.255   8.729  20.771  0.00  0.00    +0.000 NA
ATOM     25  C   UNL     1      47.618   8.717  19.477  0.00  0.00    +0.000 A 
ATOM     26  N   UNL     1      47.532   9.802  18.652  0.00  0.00    +0.000 N 
ATOM     27  C   UNL     1      47.992   9.474  17.405  0.00  0.00    +0.000 A 
ATOM     28  C   UNL     1      48.366   8.136  17.404  0.00  0.00    +0.000 A 
ATOM     29  C   UNL     1      48.143   7.655  18.742  0.00  0.00    +0.000 A 
ATOM     30  C   UNL     1      48.342   6.451  19.448  0.00  0.00    +0.000 A 
ATOM     31  H   UNL     1      47.189  10.703  18.950  0.00  0.00    +0.000 HD
ENDBRANCH  17  28
ENDBRANCH   1  19
TORSDOF 6
ENDMDL
MODEL 4
REMARK VINA RESULT:    -7.254      5.272      8.833
REMARK INTER + INTRA:         -10.685
REMARK INTER:                  -9.639
REMARK INTRA:                  -1.047
REMARK UNBOUND:                -0.886
REMARK  Name = 
REMARK  8 active torsions:
REMARK  status: ('A' for Active; 'I' for Inactive)
REMARK    1  A    between atoms: C_1  and  C_2
REMARK    2  A    between atoms: C_8  and  C_9
REMARK    3  A    between atoms: N_11  and  C_12
REMARK    4  A    between atoms: C_12  and  C_13
REMARK    5  A    between atoms: C_16  and  N_17
REMARK    6  A    between atoms: N_17  and  C_18
REMARK    7  A    between atoms: N_17  and  C_19
REMARK    8  A    between atoms: C_19  and  C_20
REMARK                            x       y       z     vdW  Elec       q    Type
REMARK                         _______ _______ _______ _____ _____    ______ ____
ROOT
ATOM      1  C   UNL     1      46.220   8.395  13.061  0.00  0.00    +0.000 C 
ENDROOT
BRANCH   1   2
ATOM      2  C   UNL     1      47.594   8.518  12.450  0.00  0.00    +0.000 A 
ATOM      3  C   UNL     1      48.092   9.743  11.991  0.00  0.00    +0.000 A 
ATOM      4  C   UNL     1      49.383   9.837  11.430  0.00  0.00    +0.000 A 
ATOM      5  C   UNL     1      50.231   8.724  11.318  0.00  0.00    +0.000 A 
ATOM      6  C   UNL     1      49.686   7.497  11.738  0.00  0.00    +0.000 A 
ATOM      7  C   UNL     1      48.401   7.391  12.295  0.00  0.00    +0.000 A 
BRANCH   5   8
ATOM      8  N   UNL     1      51.553   8.857  10.888  0.00  0.00    +0.000 N 
ATOM      9  C   UNL     1      52.143  10.188  10.739  0.00  0.00    +0.000 C 
BRANCH   8  10
ATOM     10  C   UNL     1      52.513   7.754  11.087  0.00  0.00    +0.000 C 
BRANCH  10  11
ATOM     11  C   UNL     1      52.869   6.955   9.853  0.00  0.00    +0.000 A 
ATOM     12  C   UNL     1      52.216   7.232   8.640  0.00  0.00    +0.000 A 
ATOM     13  C   UNL     1      52.535   6.526   7.483  0.00  0.00    +0.000 A 
ATOM     14  C   UNL     1      53.503   5.540   7.567  0.00  0.00    +0.000 A 
ATOM     15  N   UNL     1      54.150   5.233   8.711  0.00  0.00    +0.000 NA
ATOM     16  C   UNL     1      53.818   5.941   9.824  0.00  0.00    +0.000 A 
ENDBRANCH  10  11
ENDBRANCH   8  10
ENDBRANCH   5   8
ENDBRANCH   1   2
BRANCH   1  19
ATOM     17  C   UNL     1      44.700   6.987  11.726  0.00  0.00    +0.000 C 
ATOM     18  O   UNL     1      44.314   7.940  11.059  0.00  0.00    +0.000 OA
ATOM     19  N   UNL     1      45.625   7.118  12.743  0.00  0.00    +0.000 N 
ATOM     20  H   UNL     1      46.067   6.287  13.103  0.00  0.00    +0.000 HD
BRANCH  17  28
ATOM     21  C   UNL     1      46.333   3.568   7.221  0.00  0.00    +0.000 C 
ATOM     22  C   UNL     1      45.473   3.585   8.445  0.00  0.00    +0.000 A 
ATOM     23  C   UNL     1      44.710   2.481   8.813  0.00  0.00    +0.000 A 
ATOM     24  N   UNL     1      43.913   2.398   9.902  0.00  0.00    +0.000 NA
ATOM     25  C   UNL     1      43.908   3.522  10.640  0.00  0.00    +0.000 A 
ATOM     26  N   UNL     1      43.197   3.669  11.798  0.00  0.00    +0.000 N 
ATOM     27  C   UNL     1      43.413   4.917  12.318  0.00  0.00    +0.000 A 
ATOM     28  C   UNL     1      44.265   5.614  11.470  0.00  0.00    +0.000 A 
ATOM     29  C   UNL     1      44.598   4.708  10.401  0.00  0.00    +0.000 A 
ATOM     30  C   UNL     1      45.424   4.727   9.260  0.00  0.00    +0.000 A 
ATOM     31  H   UNL     1      42.618   2.943  12.193  0.00  0.00    +0.000 HD
ENDBRANCH  17  28
ENDBRANCH   1  19
TORSDOF 6
ENDMDL
MODEL 5
REMARK VINA RESULT:    -7.212      2.342      3.249
REMARK INTER + INTRA:         -10.628
REMARK INTER:                  -9.694
REMARK INTRA:                  -0.934
REMARK UNBOUND:                -0.886
REMARK  Name = 
REMARK  8 active torsions:
REMARK  status: ('A' for Active; 'I' for Inactive)
REMARK    1  A    between atoms: C_1  and  C_2
REMARK    2  A    between atoms: C_8  and  C_9
REMARK    3  A    between atoms: N_11  and  C_12
REMARK    4  A    between atoms: C_12  and  C_13
REMARK    5  A    between atoms: C_16  and  N_17
REMARK    6  A    between atoms: N_17  and  C_18
REMARK    7  A    between atoms: N_17  and  C_19
REMARK    8  A    between atoms: C_19  and  C_20
REMARK                            x       y       z     vdW  Elec       q    Type
REMARK                         _______ _______ _______ _____ _____    ______ ____
ROOT
ATOM      1  C   UNL     1      47.925   8.707  13.815  0.00  0.00    +0.000 C 
ENDROOT
BRANCH   1   2
ATOM      2  C   UNL     1      46.978   7.618  13.371  0.00  0.00    +0.000 A 
ATOM      3  C   UNL     1      45.763   7.907  12.740  0.00  0.00    +0.000 A 
ATOM      4  C   UNL     1      44.897   6.874  12.326  0.00  0.00    +0.000 A 
ATOM      5  C   UNL     1      45.211   5.518  12.509  0.00  0.00    +0.000 A 
ATOM      6  C   UNL     1      46.412   5.257  13.194  0.00  0.00    +0.000 A 
ATOM      7  C   UNL     1      47.281   6.279  13.613  0.00  0.00    +0.000 A 
BRANCH   5   8
ATOM      8  N   UNL     1      44.411   4.506  11.974  0.00  0.00    +0.000 N 
ATOM      9  C   UNL     1      43.610   3.662  12.862  0.00  0.00    +0.000 C 
BRANCH   8  10
ATOM     10  C   UNL     1      43.935   4.594  10.580  0.00  0.00    +0.000 C 
BRANCH  10  11
ATOM     11  C   UNL     1      44.801   3.919   9.541  0.00  0.00    +0.000 A 
ATOM     12  C   UNL     1      44.920   2.519   9.547  0.00  0.00    +0.000 A 
ATOM     13  C   UNL     1      45.697   1.866   8.592  0.00  0.00    +0.000 A 
ATOM     14  C   UNL     1      46.352   2.636   7.647  0.00  0.00    +0.000 A 
ATOM     15  N   UNL     1      46.274   3.984   7.607  0.00  0.00    +0.000 NA
ATOM     16  C   UNL     1      45.507   4.592   8.552  0.00  0.00    +0.000 A 
ENDBRANCH  10  11
ENDBRANCH   8  10
ENDBRANCH   5   8
ENDBRANCH   1   2
BRANCH   1  19
ATOM     17  C   UNL     1      48.380   8.695  16.237  0.00  0.00    +0.000 C 
ATOM     18  O   UNL     1      49.314   7.910  16.115  0.00  0.00    +0.000 OA
ATOM     19  N   UNL     1      47.629   9.130  15.164  0.00  0.00    +0.000 N 
ATOM     20  H   UNL     1      47.030   9.932  15.288  0.00  0.00    +0.000 HD
BRANCH  17  28
ATOM     21  C   UNL     1      47.599   5.851  21.333  0.00  0.00    +0.000 C 
ATOM     22  C   UNL     1      47.553   7.213  20.717  0.00  0.00    +0.000 A 
ATOM     23  C   UNL     1      47.226   8.339  21.466  0.00  0.00    +0.000 A 
ATOM     24  N   UNL     1      47.167   9.609  21.003  0.00  0.00    +0.000 NA
ATOM     25  C   UNL     1      47.459   9.707  19.694  0.00  0.00    +0.000 A 
ATOM     26  N   UNL     1      47.488  10.888  19.008  0.00  0.00    +0.000 N 
ATOM     27  C   UNL     1      47.832  10.656  17.703  0.00  0.00    +0.000 A 
ATOM     28  C   UNL     1      48.010   9.290  17.522  0.00  0.00    +0.000 A 
ATOM     29  C   UNL     1      47.788   8.683  18.809  0.00  0.00    +0.000 A 
ATOM     30  C   UNL     1      47.848   7.385  19.356  0.00  0.00    +0.000 A 
ATOM     31  H   UNL     1      47.293  11.783  19.430  0.00  0.00    +0.000 HD
ENDBRANCH  17  28
ENDBRANCH   1  19
TORSDOF 6
ENDMDL
MODEL 6
REMARK VINA RESULT:    -7.185      2.624      9.300
REMARK INTER + INTRA:         -10.591
REMARK INTER:                  -9.400
REMARK INTRA:                  -1.191
REMARK UNBOUND:                -0.886
REMARK  Name = 
REMARK  8 active torsions:
REMARK  status: ('A' for Active; 'I' for Inactive)
REMARK    1  A    between atoms: C_1  and  C_2
REMARK    2  A    between atoms: C_8  and  C_9
REMARK    3  A    between atoms: N_11  and  C_12
REMARK    4  A    between atoms: C_12  and  C_13
REMARK    5  A    between atoms: C_16  and  N_17
REMARK    6  A    between atoms: N_17  and  C_18
REMARK    7  A    between atoms: N_17  and  C_19
REMARK    8  A    between atoms: C_19  and  C_20
REMARK                            x       y       z     vdW  Elec       q    Type
REMARK                         _______ _______ _______ _____ _____    ______ ____
ROOT
ATOM      1  C   UNL     1      47.599   7.966  12.065  0.00  0.00    +0.000 C 
ENDROOT
BRANCH   1   2
ATOM      2  C   UNL     1      48.250   7.975  13.427  0.00  0.00    +0.000 A 
ATOM      3  C   UNL     1      47.734   8.728  14.488  0.00  0.00    +0.000 A 
ATOM      4  C   UNL     1      48.354   8.716  15.755  0.00  0.00    +0.000 A 
ATOM      5  C   UNL     1      49.498   7.946  16.019  0.00  0.00    +0.000 A 
ATOM      6  C   UNL     1      50.026   7.242  14.922  0.00  0.00    +0.000 A 
ATOM      7  C   UNL     1      49.418   7.249  13.655  0.00  0.00    +0.000 A 
BRANCH   5   8
ATOM      8  N   UNL     1      50.020   7.837  17.310  0.00  0.00    +0.000 N 
ATOM      9  C   UNL     1      50.852   8.911  17.854  0.00  0.00    +0.000 C 
BRANCH   8  10
ATOM     10  C   UNL     1      49.357   6.977  18.309  0.00  0.00    +0.000 C 
BRANCH  10  11
ATOM     11  C   UNL     1      48.995   5.584  17.847  0.00  0.00    +0.000 A 
ATOM     12  C   UNL     1      47.641   5.222  17.745  0.00  0.00    +0.000 A 
ATOM     13  C   UNL     1      47.275   3.951  17.305  0.00  0.00    +0.000 A 
ATOM     14  C   UNL     1      48.282   3.058  16.983  0.00  0.00    +0.000 A 
ATOM     15  N   UNL     1      49.596   3.358  17.074  0.00  0.00    +0.000 NA
ATOM     16  C   UNL     1      49.921   4.607  17.504  0.00  0.00    +0.000 A 
ENDBRANCH  10  11
ENDBRANCH   8  10
ENDBRANCH   5   8
ENDBRANCH   1   2
BRANCH   1  19
ATOM     17  C   UNL     1      45.464   6.755  11.843  0.00  0.00    +0.000 C 
ATOM     18  O   UNL     1      44.804   7.773  12.023  0.00  0.00    +0.000 OA
ATOM     19  N   UNL     1      46.844   6.752  11.862  0.00  0.00    +0.000 N 
ATOM     20  H   UNL     1      47.329   5.949  11.492  0.00  0.00    +0.000 HD
BRANCH  17  28
ATOM     21  C   UNL     1      46.269   3.578   6.953  0.00  0.00    +0.000 C 
ATOM     22  C   UNL     1      45.535   3.581   8.257  0.00  0.00    +0.000 A 
ATOM     23  C   UNL     1      44.690   2.537   8.618  0.00  0.00    +0.000 A 
ATOM     24  N   UNL     1      43.994   2.446   9.774  0.00  0.00    +0.000 NA
ATOM     25  C   UNL     1      44.186   3.497  10.590  0.00  0.00    +0.000 A 
ATOM     26  N   UNL     1      43.608   3.619  11.822  0.00  0.00    +0.000 N 
ATOM     27  C   UNL     1      44.011   4.789  12.408  0.00  0.00    +0.000 A 
ATOM     28  C   UNL     1      44.854   5.462  11.532  0.00  0.00    +0.000 A 
ATOM     29  C   UNL     1      44.980   4.620  10.370  0.00  0.00    +0.000 A 
ATOM     30  C   UNL     1      45.692   4.649   9.154  0.00  0.00    +0.000 A 
ATOM     31  H   UNL     1      42.991   2.927  12.220  0.00  0.00    +0.000 HD
ENDBRANCH  17  28
ENDBRANCH   1  19
TORSDOF 6
ENDMDL
MODEL 7
REMARK VINA RESULT:    -6.856      1.681      2.249
REMARK INTER + INTRA:         -10.147
REMARK INTER:                  -9.394
REMARK INTRA:                  -0.753
REMARK UNBOUND:                -0.886
REMARK  Name = 
REMARK  8 active torsions:
REMARK  status: ('A' for Active; 'I' for Inactive)
REMARK    1  A    between atoms: C_1  and  C_2
REMARK    2  A    between atoms: C_8  and  C_9
REMARK    3  A    between atoms: N_11  and  C_12
REMARK    4  A    between atoms: C_12  and  C_13
REMARK    5  A    between atoms: C_16  and  N_17
REMARK    6  A    between atoms: N_17  and  C_18
REMARK    7  A    between atoms: N_17  and  C_19
REMARK    8  A    between atoms: C_19  and  C_20
REMARK                            x       y       z     vdW  Elec       q    Type
REMARK                         _______ _______ _______ _____ _____    ______ ____
ROOT
ATOM      1  C   UNL     1      48.858   6.576  15.397  0.00  0.00    +0.000 C 
ENDROOT
BRANCH   1   2
ATOM      2  C   UNL     1      47.749   6.071  14.507  0.00  0.00    +0.000 A 
ATOM      3  C   UNL     1      47.078   4.871  14.769  0.00  0.00    +0.000 A 
ATOM      4  C   UNL     1      46.039   4.422  13.929  0.00  0.00    +0.000 A 
ATOM      5  C   UNL     1      45.616   5.153  12.808  0.00  0.00    +0.000 A 
ATOM      6  C   UNL     1      46.342   6.328  12.537  0.00  0.00    +0.000 A 
ATOM      7  C   UNL     1      47.381   6.783  13.366  0.00  0.00    +0.000 A 
BRANCH   5   8
ATOM      8  N   UNL     1      44.499   4.767  12.065  0.00  0.00    +0.000 N 
ATOM      9  C   UNL     1      43.228   4.503  12.741  0.00  0.00    +0.000 C 
BRANCH   8  10
ATOM     10  C   UNL     1      44.398   5.120  10.636  0.00  0.00    +0.000 C 
BRANCH  10  11
ATOM     11  C   UNL     1      44.974   4.116   9.663  0.00  0.00    +0.000 A 
ATOM     12  C   UNL     1      45.676   4.573   8.535  0.00  0.00    +0.000 A 
ATOM     13  C   UNL     1      46.233   3.672   7.630  0.00  0.00    +0.000 A 
ATOM     14  C   UNL     1      46.066   2.320   7.870  0.00  0.00    +0.000 A 
ATOM     15  N   UNL     1      45.393   1.834   8.936  0.00  0.00    +0.000 NA
ATOM     16  C   UNL     1      44.863   2.738   9.802  0.00  0.00    +0.000 A 
ENDBRANCH  10  11
ENDBRANCH   8  10
ENDBRANCH   5   8
ENDBRANCH   1   2
BRANCH   1  19
ATOM     17  C   UNL     1      48.716   6.091  17.809  0.00  0.00    +0.000 C 
ATOM     18  O   UNL     1      49.437   5.105  17.710  0.00  0.00    +0.000 OA
ATOM     19  N   UNL     1      48.365   6.867  16.723  0.00  0.00    +0.000 N 
ATOM     20  H   UNL     1      47.964   7.777  16.889  0.00  0.00    +0.000 HD
BRANCH  17  28
ATOM     21  C   UNL     1      46.988  11.578  19.062  0.00  0.00    +0.000 C 
ATOM     22  C   UNL     1      47.147  10.218  19.666  0.00  0.00    +0.000 A 
ATOM     23  C   UNL     1      46.816   9.970  20.994  0.00  0.00    +0.000 A 
ATOM     24  N   UNL     1      46.916   8.777  21.625  0.00  0.00    +0.000 NA
ATOM     25  C   UNL     1      47.387   7.799  20.832  0.00  0.00    +0.000 A 
ATOM     26  N   UNL     1      47.554   6.505  21.238  0.00  0.00    +0.000 N 
ATOM     27  C   UNL     1      48.034   5.752  20.199  0.00  0.00    +0.000 A 
ATOM     28  C   UNL     1      48.209   6.575  19.094  0.00  0.00    +0.000 A 
ATOM     29  C   UNL     1      47.776   7.888  19.497  0.00  0.00    +0.000 A 
ATOM     30  C   UNL     1      47.633   9.153  18.893  0.00  0.00    +0.000 A 
ATOM     31  H   UNL     1      47.334   6.179  22.167  0.00  0.00    +0.000 HD
ENDBRANCH  17  28
ENDBRANCH   1  19
TORSDOF 6
ENDMDL
MODEL 8
REMARK VINA RESULT:    -6.854      5.543      9.355
REMARK INTER + INTRA:         -10.145
REMARK INTER:                  -9.216
REMARK INTRA:                  -0.929
REMARK UNBOUND:                -0.886
REMARK  Name = 
REMARK  8 active torsions:
REMARK  status: ('A' for Active; 'I' for Inactive)
REMARK    1  A    between atoms: C_1  and  C_2
REMARK    2  A    between atoms: C_8  and  C_9
REMARK    3  A    between atoms: N_11  and  C_12
REMARK    4  A    between atoms: C_12  and  C_13
REMARK    5  A    between atoms: C_16  and  N_17
REMARK    6  A    between atoms: N_17  and  C_18
REMARK    7  A    between atoms: N_17  and  C_19
REMARK    8  A    between atoms: C_19  and  C_20
REMARK                            x       y       z     vdW  Elec       q    Type
REMARK                         _______ _______ _______ _____ _____    ______ ____
ROOT
ATOM      1  C   UNL     1      45.123   7.948  11.796  0.00  0.00    +0.000 C 
ENDROOT
BRANCH   1   2
ATOM      2  C   UNL     1      46.552   8.376  12.024  0.00  0.00    +0.000 A 
ATOM      3  C   UNL     1      47.580   7.445  12.213  0.00  0.00    +0.000 A 
ATOM      4  C   UNL     1      48.911   7.866  12.417  0.00  0.00    +0.000 A 
ATOM      5  C   UNL     1      49.272   9.222  12.425  0.00  0.00    +0.000 A 
ATOM      6  C   UNL     1      48.212  10.137  12.285  0.00  0.00    +0.000 A 
ATOM      7  C   UNL     1      46.883   9.729  12.085  0.00  0.00    +0.000 A 
BRANCH   5   8
ATOM      8  N   UNL     1      50.609   9.619  12.491  0.00  0.00    +0.000 N 
ATOM      9  C   UNL     1      51.429   9.237  13.641  0.00  0.00    +0.000 C 
BRANCH   8  10
ATOM     10  C   UNL     1      51.353   9.933  11.255  0.00  0.00    +0.000 C 
BRANCH  10  11
ATOM     11  C   UNL     1      52.353   8.893  10.803  0.00  0.00    +0.000 A 
ATOM     12  C   UNL     1      51.893   7.643  10.355  0.00  0.00    +0.000 A 
ATOM     13  C   UNL     1      52.789   6.671   9.915  0.00  0.00    +0.000 A 
ATOM     14  C   UNL     1      54.140   6.970   9.941  0.00  0.00    +0.000 A 
ATOM     15  N   UNL     1      54.628   8.154  10.370  0.00  0.00    +0.000 NA
ATOM     16  C   UNL     1      53.729   9.083  10.791  0.00  0.00    +0.000 A 
ENDBRANCH  10  11
ENDBRANCH   8  10
ENDBRANCH   5   8
ENDBRANCH   1   2
BRANCH   1  19
ATOM     17  C   UNL     1      43.839   5.919  11.241  0.00  0.00    +0.000 C 
ATOM     18  O   UNL     1      42.772   6.522  11.256  0.00  0.00    +0.000 OA
ATOM     19  N   UNL     1      45.045   6.535  11.509  0.00  0.00    +0.000 N 
ATOM     20  H   UNL     1      45.897   6.053  11.267  0.00  0.00    +0.000 HD
BRANCH  17  28
ATOM     21  C   UNL     1      46.782   3.675   6.662  0.00  0.00    +0.000 C 
ATOM     22  C   UNL     1      45.926   3.287   7.826  0.00  0.00    +0.000 A 
ATOM     23  C   UNL     1      45.603   1.957   8.079  0.00  0.00    +0.000 A 
ATOM     24  N   UNL     1      44.847   1.509   9.107  0.00  0.00    +0.000 NA
ATOM     25  C   UNL     1      44.404   2.495   9.907  0.00  0.00    +0.000 A 
ATOM     26  N   UNL     1      43.643   2.286  11.022  0.00  0.00    +0.000 N 
ATOM     27  C   UNL     1      43.370   3.484  11.626  0.00  0.00    +0.000 A 
ATOM     28  C   UNL     1      43.944   4.505  10.878  0.00  0.00    +0.000 A 
ATOM     29  C   UNL     1      44.625   3.865   9.782  0.00  0.00    +0.000 A 
ATOM     30  C   UNL     1      45.433   4.268   8.700  0.00  0.00    +0.000 A 
ATOM     31  H   UNL     1      43.353   1.372  11.336  0.00  0.00    +0.000 HD
ENDBRANCH  17  28
ENDBRANCH   1  19
TORSDOF 6
ENDMDL
MODEL 9
REMARK VINA RESULT:    -6.507      3.421      8.656
REMARK INTER + INTRA:          -9.676
REMARK INTER:                  -8.365
REMARK INTRA:                  -1.311
REMARK UNBOUND:                -0.886
REMARK  Name = 
REMARK  8 active torsions:
REMARK  status: ('A' for Active; 'I' for Inactive)
REMARK    1  A    between atoms: C_1  and  C_2
REMARK    2  A    between atoms: C_8  and  C_9
REMARK    3  A    between atoms: N_11  and  C_12
REMARK    4  A    between atoms: C_12  and  C_13
REMARK    5  A    between atoms: C_16  and  N_17
REMARK    6  A    between atoms: N_17  and  C_18
REMARK    7  A    between atoms: N_17  and  C_19
REMARK    8  A    between atoms: C_19  and  C_20
REMARK                            x       y       z     vdW  Elec       q    Type
REMARK                         _______ _______ _______ _____ _____    ______ ____
ROOT
ATOM      1  C   UNL     1      48.449   9.508  14.509  0.00  0.00    +0.000 C 
ENDROOT
BRANCH   1   2
ATOM      2  C   UNL     1      49.071   8.571  15.515  0.00  0.00    +0.000 A 
ATOM      3  C   UNL     1      50.140   7.732  15.180  0.00  0.00    +0.000 A 
ATOM      4  C   UNL     1      50.712   6.869  16.138  0.00  0.00    +0.000 A 
ATOM      5  C   UNL     1      50.256   6.818  17.464  0.00  0.00    +0.000 A 
ATOM      6  C   UNL     1      49.148   7.632  17.759  0.00  0.00    +0.000 A 
ATOM      7  C   UNL     1      48.568   8.493  16.813  0.00  0.00    +0.000 A 
BRANCH   5   8
ATOM      8  N   UNL     1      50.918   6.062  18.433  0.00  0.00    +0.000 N 
ATOM      9  C   UNL     1      51.981   6.670  19.235  0.00  0.00    +0.000 C 
BRANCH   8  10
ATOM     10  C   UNL     1      50.260   4.887  19.036  0.00  0.00    +0.000 C 
BRANCH  10  11
ATOM     11  C   UNL     1      49.643   3.903  18.068  0.00  0.00    +0.000 A 
ATOM     12  C   UNL     1      48.268   3.979  17.790  0.00  0.00    +0.000 A 
ATOM     13  C   UNL     1      47.674   3.098  16.889  0.00  0.00    +0.000 A 
ATOM     14  C   UNL     1      48.475   2.145  16.285  0.00  0.00    +0.000 A 
ATOM     15  N   UNL     1      49.799   2.029  16.527  0.00  0.00    +0.000 NA
ATOM     16  C   UNL     1      50.349   2.904  17.410  0.00  0.00    +0.000 A 
ENDBRANCH  10  11
ENDBRANCH   8  10
ENDBRANCH   5   8
ENDBRANCH   1   2
BRANCH   1  19
ATOM     17  C   UNL     1      47.029   8.989  12.563  0.00  0.00    +0.000 C 
ATOM     18  O   UNL     1      47.786   9.562  11.787  0.00  0.00    +0.000 OA
ATOM     19  N   UNL     1      47.266   8.924  13.921  0.00  0.00    +0.000 N 
ATOM     20  H   UNL     1      46.741   8.262  14.471  0.00  0.00    +0.000 HD
BRANCH  17  28
ATOM     21  C   UNL     1      46.097   3.186  12.910  0.00  0.00    +0.000 C 
ATOM     22  C   UNL     1      45.467   4.462  12.448  0.00  0.00    +0.000 A 
ATOM     23  C   UNL     1      44.205   4.480  11.862  0.00  0.00    +0.000 A 
ATOM     24  N   UNL     1      43.551   5.579  11.423  0.00  0.00    +0.000 NA
ATOM     25  C   UNL     1      44.250   6.714  11.599  0.00  0.00    +0.000 A 
ATOM     26  N   UNL     1      43.789   7.953  11.255  0.00  0.00    +0.000 N 
ATOM     27  C   UNL     1      44.725   8.901  11.573  0.00  0.00    +0.000 A 
ATOM     28  C   UNL     1      45.836   8.267  12.116  0.00  0.00    +0.000 A 
ATOM     29  C   UNL     1      45.522   6.862  12.149  0.00  0.00    +0.000 A 
ATOM     30  C   UNL     1      46.143   5.682  12.602  0.00  0.00    +0.000 A 
ATOM     31  H   UNL     1      42.883   8.116  10.842  0.00  0.00    +0.000 HD
ENDBRANCH  17  28
ENDBRANCH   1  19
TORSDOF 6
ENDMDL
