MODEL 1
REMARK VINA RESULT:    -7.815      0.000      0.000
REMARK INTER + INTRA:         -10.899
REMARK INTER:                 -10.327
REMARK INTRA:                  -0.572
REMARK UNBOUND:                -0.572
REMARK  Name = 
REMARK  6 active torsions:
REMARK  status: ('A' for Active; 'I' for Inactive)
REMARK    1  A    between atoms: C_2  and  O_3
REMARK    2  A    between atoms: C_2  and  C_4
REMARK    3  A    between atoms: C_8  and  C_9
REMARK    4  A    between atoms: C_9  and  O_10
REMARK    5  A    between atoms: O_10  and  C_11
REMARK    6  A    between atoms: C_17  and  C_18
REMARK                            x       y       z     vdW  Elec       q    Type
REMARK                         _______ _______ _______ _____ _____    ______ ____
ROOT
ATOM      1  C   UNL     1      45.427   5.041  11.877  0.00  0.00    +0.000 A 
ATOM      2  C   UNL     1      45.875   3.999  12.684  0.00  0.00    +0.000 A 
ATOM      3  F   UNL     1      45.376   2.762  12.528  0.00  0.00    +0.000 F 
ATOM      4  C   UNL     1      46.809   4.241  13.678  0.00  0.00    +0.000 A 
ATOM      5  F   UNL     1      47.204   3.249  14.489  0.00  0.00    +0.000 F 
ATOM      6  C   UNL     1      47.350   5.514  13.853  0.00  0.00    +0.000 A 
ATOM      7  C   UNL     1      46.998   6.562  12.991  0.00  0.00    +0.000 A 
ATOM      8  C   UNL     1      46.004   6.304  12.035  0.00  0.00    +0.000 A 
ATOM      9  F   UNL     1      45.602   7.320  11.255  0.00  0.00    +0.000 F 
ENDROOT
BRANCH   7  10
ATOM     10  C   UNL     1      47.618   7.956  13.026  0.00  0.00    +0.000 C 
ATOM     11  C   UNL     1      48.528   8.229  11.805  0.00  0.00    +0.000 C 
ATOM     12  C   UNL     1      49.846   7.467  11.905  0.00  0.00    +0.000 C 
ATOM     13  N   UNL     1      50.582   7.818  13.118  0.00  0.00    +0.000 NA
ATOM     14  C   UNL     1      49.790   7.602  14.327  0.00  0.00    +0.000 C 
ATOM     15  C   UNL     1      48.426   8.304  14.288  0.00  0.00    +0.000 C 
ATOM     16  H   UNL     1      50.863   8.796  13.069  0.00  0.00    +0.000 HD
ENDBRANCH   7  10
BRANCH   1  17
ATOM     17  O   UNL     1      44.451   4.738  10.972  0.00  0.00    +0.000 OA
BRANCH  17  18
ATOM     18  C   UNL     1      44.759   5.039   9.606  0.00  0.00    +0.000 C 
BRANCH  18  23
ATOM     19  C   UNL     1      46.583   2.667   7.263  0.00  0.00    +0.000 A 
ATOM     20  C   UNL     1      46.152   1.422   7.738  0.00  0.00    +0.000 A 
ATOM     21  C   UNL     1      45.252   1.353   8.802  0.00  0.00    +0.000 A 
ATOM     22  C   UNL     1      44.797   2.525   9.406  0.00  0.00    +0.000 A 
ATOM     23  C   UNL     1      45.229   3.775   8.941  0.00  0.00    +0.000 A 
ATOM     24  C   UNL     1      46.087   3.837   7.836  0.00  0.00    +0.000 A 
BRANCH  19  26
ATOM     25  O   UNL     1      47.222   2.720   4.980  0.00  0.00    +0.000 OA
ATOM     26  C   UNL     1      47.556   2.715   6.148  0.00  0.00    +0.000 C 
BRANCH  26  27
ATOM     27  O   UNL     1      48.846   2.696   6.554  0.00  0.00    +0.000 OA
ATOM     28  H   UNL     1      49.510   2.679   5.838  0.00  0.00    +0.000 HD
ENDBRANCH  26  27
ENDBRANCH  19  26
ENDBRANCH  18  23
ENDBRANCH  17  18
ENDBRANCH   1  17
TORSDOF 6
ENDMDL
MODEL 2
REMARK VINA RESULT:    -7.183      4.024      7.910
REMARK INTER + INTRA:         -10.064
REMARK INTER:                  -9.324
REMARK INTRA:                  -0.741
REMARK UNBOUND:                -0.572
REMARK  Name = 
REMARK  6 active torsions:
REMARK  status: ('A' for Active; 'I' for Inactive)
REMARK    1  A    between atoms: C_2  and  O_3
REMARK    2  A    between atoms: C_2  and  C_4
REMARK    3  A    between atoms: C_8  and  C_9
REMARK    4  A    between atoms: C_9  and  O_10
REMARK    5  A    between atoms: O_10  and  C_11
REMARK    6  A    between atoms: C_17  and  C_18
REMARK                            x       y       z     vdW  Elec       q    Type
REMARK                         _______ _______ _______ _____ _____    ______ ____
ROOT
ATOM      1  C   UNL     1      47.949   6.965  13.560  0.00  0.00    +0.000 A 
ATOM      2  C   UNL     1      47.621   8.222  13.064  0.00  0.00    +0.000 A 
ATOM      3  F   UNL     1      48.525   9.214  13.085  0.00  0.00    +0.000 F 
ATOM      4  C   UNL     1      46.346   8.468  12.579  0.00  0.00    +0.000 A 
ATOM      5  F   UNL     1      46.012   9.693  12.148  0.00  0.00    +0.000 F 
ATOM      6  C   UNL     1      45.392   7.452  12.536  0.00  0.00    +0.000 A 
ATOM      7  C   UNL     1      45.722   6.148  12.931  0.00  0.00    +0.000 A 
ATOM      8  C   UNL     1      46.999   5.944  13.476  0.00  0.00    +0.000 A 
ATOM      9  F   UNL     1      47.300   4.717  13.930  0.00  0.00    +0.000 F 
ENDROOT
BRANCH   7  10
ATOM     10  C   UNL     1      44.789   4.946  12.813  0.00  0.00    +0.000 C 
ATOM     11  C   UNL     1      45.114   4.065  11.585  0.00  0.00    +0.000 C 
ATOM     12  C   UNL     1      44.679   4.731  10.283  0.00  0.00    +0.000 C 
ATOM     13  N   UNL     1      43.247   5.022  10.278  0.00  0.00    +0.000 NA
ATOM     14  C   UNL     1      42.846   5.845  11.417  0.00  0.00    +0.000 C 
ATOM     15  C   UNL     1      43.284   5.262  12.767  0.00  0.00    +0.000 C 
ATOM     16  H   UNL     1      42.727   4.146  10.296  0.00  0.00    +0.000 HD
ENDBRANCH   7  10
BRANCH   1  17
ATOM     17  O   UNL     1      49.201   6.823  14.089  0.00  0.00    +0.000 OA
BRANCH  17  18
ATOM     18  C   UNL     1      49.367   7.314  15.423  0.00  0.00    +0.000 C 
BRANCH  18  23
ATOM     19  C   UNL     1      48.924   4.215  17.578  0.00  0.00    +0.000 A 
ATOM     20  C   UNL     1      50.247   3.940  17.943  0.00  0.00    +0.000 A 
ATOM     21  C   UNL     1      51.279   4.772  17.510  0.00  0.00    +0.000 A 
ATOM     22  C   UNL     1      50.995   5.868  16.696  0.00  0.00    +0.000 A 
ATOM     23  C   UNL     1      49.673   6.147  16.321  0.00  0.00    +0.000 A 
ATOM     24  C   UNL     1      48.637   5.341  16.806  0.00  0.00    +0.000 A 
BRANCH  19  26
ATOM     25  O   UNL     1      46.836   3.107  17.387  0.00  0.00    +0.000 OA
ATOM     26  C   UNL     1      47.848   3.305  18.030  0.00  0.00    +0.000 C 
BRANCH  26  27
ATOM     27  O   UNL     1      48.074   2.760  19.247  0.00  0.00    +0.000 OA
ATOM     28  H   UNL     1      47.760   3.288  20.007  0.00  0.00    +0.000 HD
ENDBRANCH  26  27
ENDBRANCH  19  26
ENDBRANCH  18  23
ENDBRANCH  17  18
ENDBRANCH   1  17
TORSDOF 6
ENDMDL
MODEL 3
REMARK VINA RESULT:    -7.039      3.167      4.950
REMARK INTER + INTRA:          -9.874
REMARK INTER:                  -9.176
REMARK INTRA:                  -0.698
REMARK UNBOUND:                -0.572
REMARK  Name = 
REMARK  6 active torsions:
REMARK  status: ('A' for Active; 'I' for Inactive)
REMARK    1  A    between atoms: C_2  and  O_3
REMARK    2  A    between atoms: C_2  and  C_4
REMARK    3  A    between atoms: C_8  and  C_9
REMARK    4  A    between atoms: C_9  and  O_10
REMARK    5  A    between atoms: O_10  and  C_11
REMARK    6  A    between atoms: C_17  and  C_18
REMARK                            x       y       z     vdW  Elec       q    Type
REMARK                         _______ _______ _______ _____ _____    ______ ____
ROOT
ATOM      1  C   UNL     1      47.770   6.248  13.511  0.00  0.00    +0.000 A 
ATOM      2  C   UNL     1      48.622   7.257  13.947  0.00  0.00    +0.000 A 
ATOM      3  F   UNL     1      48.963   8.259  13.121  0.00  0.00    +0.000 F 
ATOM      4  C   UNL     1      49.155   7.212  15.226  0.00  0.00    +0.000 A 
ATOM      5  F   UNL     1      50.016   8.156  15.632  0.00  0.00    +0.000 F 
ATOM      6  C   UNL     1      48.809   6.188  16.107  0.00  0.00    +0.000 A 
ATOM      7  C   UNL     1      47.872   5.214  15.734  0.00  0.00    +0.000 A 
ATOM      8  C   UNL     1      47.398   5.249  14.413  0.00  0.00    +0.000 A 
ATOM      9  F   UNL     1      46.561   4.275  14.020  0.00  0.00    +0.000 F 
ENDROOT
BRANCH   7  10
ATOM     10  C   UNL     1      47.341   4.125  16.661  0.00  0.00    +0.000 C 
ATOM     11  C   UNL     1      47.261   4.591  18.134  0.00  0.00    +0.000 C 
ATOM     12  C   UNL     1      48.644   4.682  18.771  0.00  0.00    +0.000 C 
ATOM     13  N   UNL     1      49.342   3.400  18.730  0.00  0.00    +0.000 NA
ATOM     14  C   UNL     1      49.455   2.875  17.371  0.00  0.00    +0.000 C 
ATOM     15  C   UNL     1      48.107   2.791  16.643  0.00  0.00    +0.000 C 
ATOM     16  H   UNL     1      48.844   2.727  19.311  0.00  0.00    +0.000 HD
ENDBRANCH   7  10
BRANCH   1  17
ATOM     17  O   UNL     1      47.347   6.322  12.214  0.00  0.00    +0.000 OA
BRANCH  17  18
ATOM     18  C   UNL     1      46.077   6.951  12.013  0.00  0.00    +0.000 C 
BRANCH  18  23
ATOM     19  C   UNL     1      44.267   3.992  10.458  0.00  0.00    +0.000 A 
ATOM     20  C   UNL     1      43.184   3.839  11.331  0.00  0.00    +0.000 A 
ATOM     21  C   UNL     1      43.028   4.710  12.410  0.00  0.00    +0.000 A 
ATOM     22  C   UNL     1      43.963   5.721  12.630  0.00  0.00    +0.000 A 
ATOM     23  C   UNL     1      45.054   5.877  11.763  0.00  0.00    +0.000 A 
ATOM     24  C   UNL     1      45.172   5.036  10.651  0.00  0.00    +0.000 A 
BRANCH  19  26
ATOM     25  O   UNL     1      44.544   3.400   8.178  0.00  0.00    +0.000 OA
ATOM     26  C   UNL     1      44.426   3.042   9.333  0.00  0.00    +0.000 C 
BRANCH  26  27
ATOM     27  O   UNL     1      44.370   1.744   9.709  0.00  0.00    +0.000 OA
ATOM     28  H   UNL     1      44.038   1.125   9.030  0.00  0.00    +0.000 HD
ENDBRANCH  26  27
ENDBRANCH  19  26
ENDBRANCH  18  23
ENDBRANCH  17  18
ENDBRANCH   1  17
TORSDOF 6
ENDMDL
MODEL 4
REMARK VINA RESULT:    -6.878      3.570      7.136
REMARK INTER + INTRA:          -9.662
REMARK INTER:                  -9.020
REMARK INTRA:                  -0.642
REMARK UNBOUND:                -0.572
REMARK  Name = 
REMARK  6 active torsions:
REMARK  status: ('A' for Active; 'I' for Inactive)
REMARK    1  A    between atoms: C_2  and  O_3
REMARK    2  A    between atoms: C_2  and  C_4
REMARK    3  A    between atoms: C_8  and  C_9
REMARK    4  A    between atoms: C_9  and  O_10
REMARK    5  A    between atoms: O_10  and  C_11
REMARK    6  A    between atoms: C_17  and  C_18
REMARK                            x       y       z     vdW  Elec       q    Type
REMARK                         _______ _______ _______ _____ _____    ______ ____
ROOT
ATOM      1  C   UNL     1      47.278   6.620  12.548  0.00  0.00    +0.000 A 
ATOM      2  C   UNL     1      47.469   5.860  13.697  0.00  0.00    +0.000 A 
ATOM      3  F   UNL     1      48.435   6.187  14.571  0.00  0.00    +0.000 F 
ATOM      4  C   UNL     1      46.688   4.738  13.927  0.00  0.00    +0.000 A 
ATOM      5  F   UNL     1      46.904   3.976  15.009  0.00  0.00    +0.000 F 
ATOM      6  C   UNL     1      45.672   4.384  13.041  0.00  0.00    +0.000 A 
ATOM      7  C   UNL     1      45.385   5.187  11.928  0.00  0.00    +0.000 A 
ATOM      8  C   UNL     1      46.232   6.279  11.687  0.00  0.00    +0.000 A 
ATOM      9  F   UNL     1      46.016   7.010  10.581  0.00  0.00    +0.000 F 
ENDROOT
BRANCH   7  10
ATOM     10  C   UNL     1      44.224   4.949  10.967  0.00  0.00    +0.000 C 
ATOM     11  C   UNL     1      43.061   4.173  11.628  0.00  0.00    +0.000 C 
ATOM     12  C   UNL     1      43.407   2.700  11.824  0.00  0.00    +0.000 C 
ATOM     13  N   UNL     1      43.737   2.050  10.557  0.00  0.00    +0.000 NA
ATOM     14  C   UNL     1      44.825   2.728   9.854  0.00  0.00    +0.000 C 
ATOM     15  C   UNL     1      44.571   4.228   9.654  0.00  0.00    +0.000 C 
ATOM     16  H   UNL     1      42.910   2.034   9.962  0.00  0.00    +0.000 HD
ENDBRANCH   7  10
BRANCH   1  17
ATOM     17  O   UNL     1      48.137   7.665  12.355  0.00  0.00    +0.000 OA
BRANCH  17  18
ATOM     18  C   UNL     1      47.867   8.838  13.130  0.00  0.00    +0.000 C 
BRANCH  18  23
ATOM     19  C   UNL     1      45.099  10.835  11.460  0.00  0.00    +0.000 A 
ATOM     20  C   UNL     1      45.836  11.717  10.661  0.00  0.00    +0.000 A 
ATOM     21  C   UNL     1      47.229  11.647  10.646  0.00  0.00    +0.000 A 
ATOM     22  C   UNL     1      47.889  10.712  11.443  0.00  0.00    +0.000 A 
ATOM     23  C   UNL     1      47.157   9.830  12.251  0.00  0.00    +0.000 A 
ATOM     24  C   UNL     1      45.759   9.868  12.217  0.00  0.00    +0.000 A 
BRANCH  19  26
ATOM     25  O   UNL     1      43.039  11.979  11.726  0.00  0.00    +0.000 OA
ATOM     26  C   UNL     1      43.622  10.943  11.478  0.00  0.00    +0.000 C 
BRANCH  26  27
ATOM     27  O   UNL     1      42.991   9.769  11.248  0.00  0.00    +0.000 OA
ATOM     28  H   UNL     1      43.448   8.974  11.584  0.00  0.00    +0.000 HD
ENDBRANCH  26  27
ENDBRANCH  19  26
ENDBRANCH  18  23
ENDBRANCH  17  18
ENDBRANCH   1  17
TORSDOF 6
ENDMDL
MODEL 5
REMARK VINA RESULT:    -6.681      3.734      5.592
REMARK INTER + INTRA:          -9.401
REMARK INTER:                  -8.777
REMARK INTRA:                  -0.625
REMARK UNBOUND:                -0.572
REMARK  Name = 
REMARK  6 active torsions:
REMARK  status: ('A' for Active; 'I' for Inactive)
REMARK    1  A    between atoms: C_2  and  O_3
REMARK    2  A    between atoms: C_2  and  C_4
REMARK    3  A    between atoms: C_8  and  C_9
REMARK    4  A    between atoms: C_9  and  O_10
REMARK    5  A    between atoms: O_10  and  C_11
REMARK    6  A    between atoms: C_17  and  C_18
REMARK                            x       y       z     vdW  Elec       q    Type
REMARK                         _______ _______ _______ _____ _____    ______ ____
ROOT
ATOM      1  C   UNL     1      47.558   4.444  16.599  0.00  0.00    +0.000 A 
ATOM      2  C   UNL     1      47.586   3.515  17.634  0.00  0.00    +0.000 A 
ATOM      3  F   UNL     1      46.757   2.458  17.616  0.00  0.00    +0.000 F 
ATOM      4  C   UNL     1      48.443   3.695  18.708  0.00  0.00    +0.000 A 
ATOM      5  F   UNL     1      48.436   2.828  19.730  0.00  0.00    +0.000 F 
ATOM      6  C   UNL     1      49.320   4.779  18.745  0.00  0.00    +0.000 A 
ATOM      7  C   UNL     1      49.390   5.675  17.669  0.00  0.00    +0.000 A 
ATOM      8  C   UNL     1      48.468   5.503  16.626  0.00  0.00    +0.000 A 
ATOM      9  F   UNL     1      48.473   6.402  15.629  0.00  0.00    +0.000 F 
ENDROOT
BRANCH   7  10
ATOM     10  C   UNL     1      50.394   6.820  17.563  0.00  0.00    +0.000 C 
ATOM     11  C   UNL     1      51.530   6.516  16.559  0.00  0.00    +0.000 C 
ATOM     12  C   UNL     1      52.516   5.494  17.117  0.00  0.00    +0.000 C 
ATOM     13  N   UNL     1      53.114   5.950  18.370  0.00  0.00    +0.000 NA
ATOM     14  C   UNL     1      52.107   6.273  19.378  0.00  0.00    +0.000 C 
ATOM     15  C   UNL     1      51.051   7.267  18.879  0.00  0.00    +0.000 C 
ATOM     16  H   UNL     1      53.686   6.774  18.189  0.00  0.00    +0.000 HD
ENDBRANCH   7  10
BRANCH   1  17
ATOM     17  O   UNL     1      46.633   4.236  15.615  0.00  0.00    +0.000 OA
BRANCH  17  18
ATOM     18  C   UNL     1      47.142   3.683  14.396  0.00  0.00    +0.000 C 
BRANCH  18  23
ATOM     19  C   UNL     1      44.924   4.726  11.491  0.00  0.00    +0.000 A 
ATOM     20  C   UNL     1      45.478   5.965  11.149  0.00  0.00    +0.000 A 
ATOM     21  C   UNL     1      46.586   6.451  11.845  0.00  0.00    +0.000 A 
ATOM     22  C   UNL     1      47.128   5.710  12.895  0.00  0.00    +0.000 A 
ATOM     23  C   UNL     1      46.574   4.472  13.248  0.00  0.00    +0.000 A 
ATOM     24  C   UNL     1      45.499   3.965  12.508  0.00  0.00    +0.000 A 
BRANCH  19  26
ATOM     25  O   UNL     1      43.062   3.302  11.131  0.00  0.00    +0.000 OA
ATOM     26  C   UNL     1      43.735   4.241  10.754  0.00  0.00    +0.000 C 
BRANCH  26  27
ATOM     27  O   UNL     1      43.504   4.906   9.599  0.00  0.00    +0.000 OA
ATOM     28  H   UNL     1      43.253   4.349   8.838  0.00  0.00    +0.000 HD
ENDBRANCH  26  27
ENDBRANCH  19  26
ENDBRANCH  18  23
ENDBRANCH  17  18
ENDBRANCH   1  17
TORSDOF 6
ENDMDL
MODEL 6
REMARK VINA RESULT:    -6.663      4.208      6.345
REMARK INTER + INTRA:          -9.377
REMARK INTER:                  -8.738
REMARK INTRA:                  -0.639
REMARK UNBOUND:                -0.572
REMARK  Name = 
REMARK  6 active torsions:
REMARK  status: ('A' for Active; 'I' for Inactive)
REMARK    1  A    between atoms: C_2  and  O_3
REMARK    2  A    between atoms: C_2  and  C_4
REMARK    3  A    between atoms: C_8  and  C_9
REMARK    4  A    between atoms: C_9  and  O_10
REMARK    5  A    between atoms: O_10  and  C_11
REMARK    6  A    between atoms: C_17  and  C_18
REMARK                            x       y       z     vdW  Elec       q    Type
REMARK                         _______ _______ _______ _____ _____    ______ ____
ROOT
ATOM      1  C   UNL     1      48.258   5.413  15.858  0.00  0.00    +0.000 A 
ATOM      2  C   UNL     1      47.672   4.170  16.072  0.00  0.00    +0.000 A 
ATOM      3  F   UNL     1      47.391   3.367  15.034  0.00  0.00    +0.000 F 
ATOM      4  C   UNL     1      47.340   3.770  17.357  0.00  0.00    +0.000 A 
ATOM      5  F   UNL     1      46.729   2.594  17.561  0.00  0.00    +0.000 F 
ATOM      6  C   UNL     1      47.631   4.581  18.454  0.00  0.00    +0.000 A 
ATOM      7  C   UNL     1      48.315   5.792  18.281  0.00  0.00    +0.000 A 
ATOM      8  C   UNL     1      48.582   6.200  16.966  0.00  0.00    +0.000 A 
ATOM      9  F   UNL     1      49.166   7.396  16.785  0.00  0.00    +0.000 F 
ENDROOT
BRANCH   7  10
ATOM     10  C   UNL     1      48.781   6.692  19.423  0.00  0.00    +0.000 C 
ATOM     11  C   UNL     1      50.302   6.576  19.682  0.00  0.00    +0.000 C 
ATOM     12  C   UNL     1      50.657   5.259  20.364  0.00  0.00    +0.000 C 
ATOM     13  N   UNL     1      49.958   5.104  21.637  0.00  0.00    +0.000 NA
ATOM     14  C   UNL     1      48.508   5.211  21.488  0.00  0.00    +0.000 C 
ATOM     15  C   UNL     1      48.069   6.494  20.772  0.00  0.00    +0.000 C 
ATOM     16  H   UNL     1      50.283   5.817  22.288  0.00  0.00    +0.000 HD
ENDBRANCH   7  10
BRANCH   1  17
ATOM     17  O   UNL     1      48.486   5.767  14.558  0.00  0.00    +0.000 OA
BRANCH  17  18
ATOM     18  C   UNL     1      47.720   6.877  14.076  0.00  0.00    +0.000 C 
BRANCH  18  23
ATOM     19  C   UNL     1      44.724   5.210  12.436  0.00  0.00    +0.000 A 
ATOM     20  C   UNL     1      44.961   5.482  11.084  0.00  0.00    +0.000 A 
ATOM     21  C   UNL     1      46.104   6.186  10.703  0.00  0.00    +0.000 A 
ATOM     22  C   UNL     1      47.001   6.635  11.671  0.00  0.00    +0.000 A 
ATOM     23  C   UNL     1      46.767   6.372  13.028  0.00  0.00    +0.000 A 
ATOM     24  C   UNL     1      45.649   5.617  13.398  0.00  0.00    +0.000 A 
BRANCH  19  26
ATOM     25  O   UNL     1      43.311   3.310  12.561  0.00  0.00    +0.000 OA
ATOM     26  C   UNL     1      43.493   4.483  12.820  0.00  0.00    +0.000 C 
BRANCH  26  27
ATOM     27  O   UNL     1      42.572   5.261  13.433  0.00  0.00    +0.000 OA
ATOM     28  H   UNL     1      42.819   5.580  14.323  0.00  0.00    +0.000 HD
ENDBRANCH  26  27
ENDBRANCH  19  26
ENDBRANCH  18  23
ENDBRANCH  17  18
ENDBRANCH   1  17
TORSDOF 6
ENDMDL
MODEL 7
REMARK VINA RESULT:    -6.384      3.765      5.596
REMARK INTER + INTRA:          -9.008
REMARK INTER:                  -8.519
REMARK INTRA:                  -0.489
REMARK UNBOUND:                -0.572
REMARK  Name = 
REMARK  6 active torsions:
REMARK  status: ('A' for Active; 'I' for Inactive)
REMARK    1  A    between atoms: C_2  and  O_3
REMARK    2  A    between atoms: C_2  and  C_4
REMARK    3  A    between atoms: C_8  and  C_9
REMARK    4  A    between atoms: C_9  and  O_10
REMARK    5  A    between atoms: O_10  and  C_11
REMARK    6  A    between atoms: C_17  and  C_18
REMARK                            x       y       z     vdW  Elec       q    Type
REMARK                         _______ _______ _______ _____ _____    ______ ____
ROOT
ATOM      1  C   UNL     1      48.134   4.767  16.102  0.00  0.00    +0.000 A 
ATOM      2  C   UNL     1      48.177   3.771  17.072  0.00  0.00    +0.000 A 
ATOM      3  F   UNL     1      47.903   2.498  16.745  0.00  0.00    +0.000 F 
ATOM      4  C   UNL     1      48.467   4.093  18.388  0.00  0.00    +0.000 A 
ATOM      5  F   UNL     1      48.460   3.142  19.333  0.00  0.00    +0.000 F 
ATOM      6  C   UNL     1      48.767   5.406  18.751  0.00  0.00    +0.000 A 
ATOM      7  C   UNL     1      48.834   6.415  17.780  0.00  0.00    +0.000 A 
ATOM      8  C   UNL     1      48.474   6.072  16.468  0.00  0.00    +0.000 A 
ATOM      9  F   UNL     1      48.459   7.047  15.545  0.00  0.00    +0.000 F 
ENDROOT
BRANCH   7  10
ATOM     10  C   UNL     1      49.265   7.853  18.057  0.00  0.00    +0.000 C 
ATOM     11  C   UNL     1      50.031   7.992  19.393  0.00  0.00    +0.000 C 
ATOM     12  C   UNL     1      49.095   7.875  20.592  0.00  0.00    +0.000 C 
ATOM     13  N   UNL     1      48.040   8.886  20.555  0.00  0.00    +0.000 NA
ATOM     14  C   UNL     1      47.269   8.835  19.315  0.00  0.00    +0.000 C 
ATOM     15  C   UNL     1      48.144   8.905  18.057  0.00  0.00    +0.000 C 
ATOM     16  H   UNL     1      48.457   9.810  20.654  0.00  0.00    +0.000 HD
ENDBRANCH   7  10
BRANCH   1  17
ATOM     17  O   UNL     1      47.767   4.382  14.844  0.00  0.00    +0.000 OA
BRANCH  17  18
ATOM     18  C   UNL     1      46.360   4.385  14.583  0.00  0.00    +0.000 C 
BRANCH  18  23
ATOM     19  C   UNL     1      45.045   4.643  11.026  0.00  0.00    +0.000 A 
ATOM     20  C   UNL     1      45.692   5.799  10.575  0.00  0.00    +0.000 A 
ATOM     21  C   UNL     1      46.572   6.481  11.415  0.00  0.00    +0.000 A 
ATOM     22  C   UNL     1      46.792   6.021  12.713  0.00  0.00    +0.000 A 
ATOM     23  C   UNL     1      46.143   4.868  13.175  0.00  0.00    +0.000 A 
ATOM     24  C   UNL     1      45.306   4.157  12.308  0.00  0.00    +0.000 A 
BRANCH  19  26
ATOM     25  O   UNL     1      43.727   2.807  10.309  0.00  0.00    +0.000 OA
ATOM     26  C   UNL     1      44.097   3.949  10.125  0.00  0.00    +0.000 C 
BRANCH  26  27
ATOM     27  O   UNL     1      43.729   4.688   9.053  0.00  0.00    +0.000 OA
ATOM     28  H   UNL     1      44.136   5.574   8.995  0.00  0.00    +0.000 HD
ENDBRANCH  26  27
ENDBRANCH  19  26
ENDBRANCH  18  23
ENDBRANCH  17  18
ENDBRANCH   1  17
TORSDOF 6
ENDMDL
MODEL 8
REMARK VINA RESULT:    -6.294      3.892      6.987
REMARK INTER + INTRA:          -8.890
REMARK INTER:                  -8.433
REMARK INTRA:                  -0.456
REMARK UNBOUND:                -0.572
REMARK  Name = 
REMARK  6 active torsions:
REMARK  status: ('A' for Active; 'I' for Inactive)
REMARK    1  A    between atoms: C_2  and  O_3
REMARK    2  A    between atoms: C_2  and  C_4
REMARK    3  A    between atoms: C_8  and  C_9
REMARK    4  A    between atoms: C_9  and  O_10
REMARK    5  A    between atoms: O_10  and  C_11
REMARK    6  A    between atoms: C_17  and  C_18
REMARK                            x       y       z     vdW  Elec       q    Type
REMARK                         _______ _______ _______ _____ _____    ______ ____
ROOT
ATOM      1  C   UNL     1      46.889   6.654  13.252  0.00  0.00    +0.000 A 
ATOM      2  C   UNL     1      47.308   5.603  14.061  0.00  0.00    +0.000 A 
ATOM      3  F   UNL     1      48.181   5.823  15.057  0.00  0.00    +0.000 F 
ATOM      4  C   UNL     1      46.855   4.316  13.820  0.00  0.00    +0.000 A 
ATOM      5  F   UNL     1      47.296   3.294  14.567  0.00  0.00    +0.000 F 
ATOM      6  C   UNL     1      45.940   4.062  12.798  0.00  0.00    +0.000 A 
ATOM      7  C   UNL     1      45.419   5.115  12.032  0.00  0.00    +0.000 A 
ATOM      8  C   UNL     1      45.943   6.396  12.257  0.00  0.00    +0.000 A 
ATOM      9  F   UNL     1      45.509   7.399  11.476  0.00  0.00    +0.000 F 
ENDROOT
BRANCH   7  10
ATOM     10  C   UNL     1      44.331   4.957  10.973  0.00  0.00    +0.000 C 
ATOM     11  C   UNL     1      43.094   4.196  11.508  0.00  0.00    +0.000 C 
ATOM     12  C   UNL     1      43.377   2.705  11.667  0.00  0.00    +0.000 C 
ATOM     13  N   UNL     1      43.786   2.095  10.404  0.00  0.00    +0.000 NA
ATOM     14  C   UNL     1      44.947   2.762   9.818  0.00  0.00    +0.000 C 
ATOM     15  C   UNL     1      44.758   4.276   9.662  0.00  0.00    +0.000 C 
ATOM     16  H   UNL     1      43.009   2.132   9.746  0.00  0.00    +0.000 HD
ENDBRANCH   7  10
BRANCH   1  17
ATOM     17  O   UNL     1      47.439   7.879  13.506  0.00  0.00    +0.000 OA
BRANCH  17  18
ATOM     18  C   UNL     1      48.648   8.172  12.798  0.00  0.00    +0.000 C 
BRANCH  18  23
ATOM     19  C   UNL     1      49.321  11.189  10.586  0.00  0.00    +0.000 A 
ATOM     20  C   UNL     1      48.064  11.805  10.568  0.00  0.00    +0.000 A 
ATOM     21  C   UNL     1      47.006  11.256  11.293  0.00  0.00    +0.000 A 
ATOM     22  C   UNL     1      47.195  10.081  12.018  0.00  0.00    +0.000 A 
ATOM     23  C   UNL     1      48.449   9.453  12.036  0.00  0.00    +0.000 A 
ATOM     24  C   UNL     1      49.520  10.041  11.354  0.00  0.00    +0.000 A 
BRANCH  19  26
ATOM     25  O   UNL     1      50.384  12.904   9.341  0.00  0.00    +0.000 OA
ATOM     26  C   UNL     1      50.423  11.776   9.791  0.00  0.00    +0.000 C 
BRANCH  26  27
ATOM     27  O   UNL     1      51.447  10.921   9.568  0.00  0.00    +0.000 OA
ATOM     28  H   UNL     1      51.696  10.360  10.328  0.00  0.00    +0.000 HD
ENDBRANCH  26  27
ENDBRANCH  19  26
ENDBRANCH  18  23
ENDBRANCH  17  18
ENDBRANCH   1  17
TORSDOF 6
ENDMDL
MODEL 9
REMARK VINA RESULT:    -6.043      4.751      8.438
REMARK INTER + INTRA:          -8.558
REMARK INTER:                  -8.056
REMARK INTRA:                  -0.502
REMARK UNBOUND:                -0.572
REMARK  Name = 
REMARK  6 active torsions:
REMARK  status: ('A' for Active; 'I' for Inactive)
REMARK    1  A    between atoms: C_2  and  O_3
REMARK    2  A    between atoms: C_2  and  C_4
REMARK    3  A    between atoms: C_8  and  C_9
REMARK    4  A    between atoms: C_9  and  O_10
REMARK    5  A    between atoms: O_10  and  C_11
REMARK    6  A    between atoms: C_17  and  C_18
REMARK                            x       y       z     vdW  Elec       q    Type
REMARK                         _______ _______ _______ _____ _____    ______ ____
ROOT
ATOM      1  C   UNL     1      47.717   6.355  13.803  0.00  0.00    +0.000 A 
ATOM      2  C   UNL     1      47.610   7.580  13.153  0.00  0.00    +0.000 A 
ATOM      3  F   UNL     1      48.600   8.483  13.246  0.00  0.00    +0.000 F 
ATOM      4  C   UNL     1      46.464   7.891  12.439  0.00  0.00    +0.000 A 
ATOM      5  F   UNL     1      46.337   9.091  11.855  0.00  0.00    +0.000 F 
ATOM      6  C   UNL     1      45.426   6.967  12.319  0.00  0.00    +0.000 A 
ATOM      7  C   UNL     1      45.547   5.685  12.874  0.00  0.00    +0.000 A 
ATOM      8  C   UNL     1      46.690   5.422  13.644  0.00  0.00    +0.000 A 
ATOM      9  F   UNL     1      46.780   4.225  14.245  0.00  0.00    +0.000 F 
ENDROOT
BRANCH   7  10
ATOM     10  C   UNL     1      44.522   4.568  12.700  0.00  0.00    +0.000 C 
ATOM     11  C   UNL     1      44.901   3.593  11.561  0.00  0.00    +0.000 C 
ATOM     12  C   UNL     1      44.684   4.221  10.187  0.00  0.00    +0.000 C 
ATOM     13  N   UNL     1      43.297   4.639   9.998  0.00  0.00    +0.000 NA
ATOM     14  C   UNL     1      42.848   5.558  11.041  0.00  0.00    +0.000 C 
ATOM     15  C   UNL     1      43.071   5.015  12.459  0.00  0.00    +0.000 C 
ATOM     16  H   UNL     1      42.696   3.815   9.992  0.00  0.00    +0.000 HD
ENDBRANCH   7  10
BRANCH   1  17
ATOM     17  O   UNL     1      48.844   6.154  14.548  0.00  0.00    +0.000 OA
BRANCH  17  18
ATOM     18  C   UNL     1      48.876   6.824  15.814  0.00  0.00    +0.000 C 
BRANCH  18  23
ATOM     19  C   UNL     1      50.228   4.834  18.756  0.00  0.00    +0.000 A 
ATOM     20  C   UNL     1      49.212   3.889  18.942  0.00  0.00    +0.000 A 
ATOM     21  C   UNL     1      48.101   3.882  18.098  0.00  0.00    +0.000 A 
ATOM     22  C   UNL     1      47.993   4.830  17.082  0.00  0.00    +0.000 A 
ATOM     23  C   UNL     1      49.003   5.785  16.893  0.00  0.00    +0.000 A 
ATOM     24  C   UNL     1      50.141   5.749  17.707  0.00  0.00    +0.000 A 
BRANCH  19  26
ATOM     25  O   UNL     1      52.481   5.257  19.362  0.00  0.00    +0.000 OA
ATOM     26  C   UNL     1      51.386   4.837  19.678  0.00  0.00    +0.000 C 
BRANCH  26  27
ATOM     27  O   UNL     1      51.122   4.279  20.882  0.00  0.00    +0.000 OA
ATOM     28  H   UNL     1      50.707   4.873  21.537  0.00  0.00    +0.000 HD
ENDBRANCH  26  27
ENDBRANCH  19  26
ENDBRANCH  18  23
ENDBRANCH  17  18
ENDBRANCH   1  17
TORSDOF 6
ENDMDL
