MODEL 1
REMARK VINA RESULT:    -7.940      0.000      0.000
REMARK INTER + INTRA:         -11.988
REMARK INTER:                 -10.725
REMARK INTRA:                  -1.263
REMARK UNBOUND:                -1.263
REMARK  Name = 
REMARK  10 active torsions:
REMARK  status: ('A' for Active; 'I' for Inactive)
REMARK    1  A    between atoms: C_1  and  C_2
REMARK    2  A    between atoms: C_4  and  C_5
REMARK    3  A    between atoms: C_5  and  C_6
REMARK    4  A    between atoms: C_5  and  C_7
REMARK    5  A    between atoms: C_7  and  O_8
REMARK    6  A    between atoms: O_8  and  C_9
REMARK    7  A    between atoms: C_13  and  C_14
REMARK    8  A    between atoms: C_24  and  C_25
REMARK    9  A    between atoms: N_27  and  C_28
REMARK   10  A    between atoms: N_27  and  C_29
REMARK                            x       y       z     vdW  Elec       q    Type
REMARK                         _______ _______ _______ _____ _____    ______ ____
ROOT
ATOM      1  C   UNL     1      45.215   4.721  13.745  0.00  0.00    +0.000 C 
ENDROOT
BRANCH   1   2
ATOM      2  C   UNL     1      46.728   4.496  13.917  0.00  0.00    +0.000 C 
ATOM      3  C   UNL     1      47.105   4.284  15.381  0.00  0.00    +0.000 C 
BRANCH   2   7
ATOM      4  C   UNL     1      50.240   7.653  14.693  0.00  0.00    +0.000 C 
ATOM      5  C   UNL     1      49.232   7.248  13.663  0.00  0.00    +0.000 A 
ATOM      6  N   UNL     1      48.556   6.121  14.046  0.00  0.00    +0.000 NA
ATOM      7  C   UNL     1      47.478   5.690  13.351  0.00  0.00    +0.000 A 
ATOM      8  C   UNL     1      47.077   6.321  12.192  0.00  0.00    +0.000 A 
ATOM      9  C   UNL     1      47.811   7.427  11.761  0.00  0.00    +0.000 A 
ATOM     10  C   UNL     1      48.917   7.929  12.487  0.00  0.00    +0.000 A 
BRANCH  10  11
ATOM     11  C   UNL     1      49.432   9.236  11.966  0.00  0.00    +0.000 C 
ATOM     12  O   UNL     1      48.667  10.193  12.139  0.00  0.00    +0.000 OA
ATOM     13  N   UNL     1      50.615   9.413  11.245  0.00  0.00    +0.000 N 
ATOM     14  C   UNL     1      51.671   8.450  11.007  0.00  0.00    +0.000 C 
ATOM     15  C   UNL     1      50.862  10.727  10.652  0.00  0.00    +0.000 C 
ENDBRANCH  10  11
ENDBRANCH   2   7
ENDBRANCH   1   2
BRANCH   1  16
ATOM     16  O   UNL     1      44.589   3.644  13.040  0.00  0.00    +0.000 OA
BRANCH  16  17
ATOM     17  C   UNL     1      44.492   3.818  11.681  0.00  0.00    +0.000 A 
ATOM     18  C   UNL     1      43.549   4.719  11.230  0.00  0.00    +0.000 A 
ATOM     19  N   UNL     1      43.326   4.991   9.916  0.00  0.00    +0.000 NA
ATOM     20  C   UNL     1      44.090   4.320   9.021  0.00  0.00    +0.000 A 
ATOM     21  C   UNL     1      45.070   3.382   9.344  0.00  0.00    +0.000 A 
ATOM     22  C   UNL     1      45.255   3.146  10.718  0.00  0.00    +0.000 A 
BRANCH  21  23
ATOM     23  C   UNL     1      45.865   2.661   8.325  0.00  0.00    +0.000 A 
ATOM     24  C   UNL     1      46.457   3.334   7.238  0.00  0.00    +0.000 A 
ATOM     25  C   UNL     1      47.193   2.644   6.265  0.00  0.00    +0.000 A 
ATOM     26  C   UNL     1      47.342   1.263   6.351  0.00  0.00    +0.000 A 
ATOM     27  C   UNL     1      46.764   0.590   7.412  0.00  0.00    +0.000 A 
ATOM     28  F   UNL     1      46.891  -0.746   7.497  0.00  0.00    +0.000 F 
ATOM     29  C   UNL     1      46.042   1.266   8.391  0.00  0.00    +0.000 A 
ENDBRANCH  21  23
ENDBRANCH  16  17
ENDBRANCH   1  16
TORSDOF 6
ENDMDL
MODEL 2
REMARK VINA RESULT:    -7.831      1.973      2.643
REMARK INTER + INTRA:         -11.841
REMARK INTER:                 -10.690
REMARK INTRA:                  -1.151
REMARK UNBOUND:                -1.263
REMARK  Name = 
REMARK  10 active torsions:
REMARK  status: ('A' for Active; 'I' for Inactive)
REMARK    1  A    between atoms: C_1  and  C_2
REMARK    2  A    between atoms: C_4  and  C_5
REMARK    3  A    between atoms: C_5  and  C_6
REMARK    4  A    between atoms: C_5  and  C_7
REMARK    5  A    between atoms: C_7  and  O_8
REMARK    6  A    between atoms: O_8  and  C_9
REMARK    7  A    between atoms: C_13  and  C_14
REMARK    8  A    between atoms: C_24  and  C_25
REMARK    9  A    between atoms: N_27  and  C_28
REMARK   10  A    between atoms: N_27  and  C_29
REMARK                            x       y       z     vdW  Elec       q    Type
REMARK                         _______ _______ _______ _____ _____    ______ ____
ROOT
ATOM      1  C   UNL     1      44.787   6.811  12.522  0.00  0.00    +0.000 C 
ENDROOT
BRANCH   1   2
ATOM      2  C   UNL     1      45.346   8.245  12.531  0.00  0.00    +0.000 C 
ATOM      3  C   UNL     1      44.695   9.112  11.456  0.00  0.00    +0.000 C 
BRANCH   2   7
ATOM      4  C   UNL     1      49.216  10.750  11.243  0.00  0.00    +0.000 C 
ATOM      5  C   UNL     1      48.803   9.398  11.738  0.00  0.00    +0.000 A 
ATOM      6  N   UNL     1      47.467   9.365  12.036  0.00  0.00    +0.000 NA
ATOM      7  C   UNL     1      46.850   8.195  12.323  0.00  0.00    +0.000 A 
ATOM      8  C   UNL     1      47.559   7.016  12.406  0.00  0.00    +0.000 A 
ATOM      9  C   UNL     1      48.935   7.061  12.173  0.00  0.00    +0.000 A 
ATOM     10  C   UNL     1      49.604   8.260  11.829  0.00  0.00    +0.000 A 
BRANCH  10  11
ATOM     11  C   UNL     1      51.031   8.054  11.423  0.00  0.00    +0.000 C 
ATOM     12  O   UNL     1      51.182   7.305  10.449  0.00  0.00    +0.000 OA
ATOM     13  N   UNL     1      52.148   8.548  12.101  0.00  0.00    +0.000 N 
ATOM     14  C   UNL     1      52.183   9.492  13.199  0.00  0.00    +0.000 C 
ATOM     15  C   UNL     1      53.467   8.087  11.668  0.00  0.00    +0.000 C 
ENDBRANCH  10  11
ENDBRANCH   2   7
ENDBRANCH   1   2
BRANCH   1  16
ATOM     16  O   UNL     1      44.029   6.538  11.339  0.00  0.00    +0.000 OA
BRANCH  16  17
ATOM     17  C   UNL     1      44.060   5.230  10.919  0.00  0.00    +0.000 A 
ATOM     18  C   UNL     1      43.233   4.341  11.576  0.00  0.00    +0.000 A 
ATOM     19  N   UNL     1      43.160   3.014  11.285  0.00  0.00    +0.000 NA
ATOM     20  C   UNL     1      43.960   2.569  10.287  0.00  0.00    +0.000 A 
ATOM     21  C   UNL     1      44.843   3.359   9.551  0.00  0.00    +0.000 A 
ATOM     22  C   UNL     1      44.871   4.722   9.898  0.00  0.00    +0.000 A 
BRANCH  21  23
ATOM     23  C   UNL     1      45.711   2.818   8.481  0.00  0.00    +0.000 A 
ATOM     24  C   UNL     1      46.256   3.648   7.482  0.00  0.00    +0.000 A 
ATOM     25  C   UNL     1      47.061   3.129   6.459  0.00  0.00    +0.000 A 
ATOM     26  C   UNL     1      47.327   1.763   6.406  0.00  0.00    +0.000 A 
ATOM     27  C   UNL     1      46.795   0.936   7.379  0.00  0.00    +0.000 A 
ATOM     28  F   UNL     1      47.035  -0.386   7.328  0.00  0.00    +0.000 F 
ATOM     29  C   UNL     1      46.006   1.443   8.407  0.00  0.00    +0.000 A 
ENDBRANCH  21  23
ENDBRANCH  16  17
ENDBRANCH   1  16
TORSDOF 6
ENDMDL
MODEL 3
REMARK VINA RESULT:    -7.577      2.357      4.191
REMARK INTER + INTRA:         -11.498
REMARK INTER:                 -10.499
REMARK INTRA:                  -0.999
REMARK UNBOUND:                -1.263
REMARK  Name = 
REMARK  10 active torsions:
REMARK  status: ('A' for Active; 'I' for Inactive)
REMARK    1  A    between atoms: C_1  and  C_2
REMARK    2  A    between atoms: C_4  and  C_5
REMARK    3  A    between atoms: C_5  and  C_6
REMARK    4  A    between atoms: C_5  and  C_7
REMARK    5  A    between atoms: C_7  and  O_8
REMARK    6  A    between atoms: O_8  and  C_9
REMARK    7  A    between atoms: C_13  and  C_14
REMARK    8  A    between atoms: C_24  and  C_25
REMARK    9  A    between atoms: N_27  and  C_28
REMARK   10  A    between atoms: N_27  and  C_29
REMARK                            x       y       z     vdW  Elec       q    Type
REMARK                         _______ _______ _______ _____ _____    ______ ____
ROOT
ATOM      1  C   UNL     1      46.059   7.078  11.483  0.00  0.00    +0.000 C 
ENDROOT
BRANCH   1   2
ATOM      2  C   UNL     1      46.277   8.065  12.643  0.00  0.00    +0.000 C 
ATOM      3  C   UNL     1      46.921   9.365  12.166  0.00  0.00    +0.000 C 
BRANCH   2   7
ATOM      4  C   UNL     1      47.152   4.020  15.046  0.00  0.00    +0.000 C 
ATOM      5  C   UNL     1      47.651   5.422  14.887  0.00  0.00    +0.000 A 
ATOM      6  N   UNL     1      46.981   6.078  13.889  0.00  0.00    +0.000 NA
ATOM      7  C   UNL     1      47.146   7.408  13.702  0.00  0.00    +0.000 A 
ATOM      8  C   UNL     1      48.051   8.128  14.453  0.00  0.00    +0.000 A 
ATOM      9  C   UNL     1      48.787   7.445  15.423  0.00  0.00    +0.000 A 
ATOM     10  C   UNL     1      48.609   6.064  15.673  0.00  0.00    +0.000 A 
BRANCH  10  11
ATOM     11  C   UNL     1      49.343   5.574  16.884  0.00  0.00    +0.000 C 
ATOM     12  O   UNL     1      50.540   5.327  16.690  0.00  0.00    +0.000 OA
ATOM     13  N   UNL     1      48.767   5.298  18.126  0.00  0.00    +0.000 N 
ATOM     14  C   UNL     1      47.420   5.589  18.572  0.00  0.00    +0.000 C 
ATOM     15  C   UNL     1      49.602   4.647  19.135  0.00  0.00    +0.000 C 
ENDBRANCH  10  11
ENDBRANCH   2   7
ENDBRANCH   1   2
BRANCH   1  16
ATOM     16  O   UNL     1      44.692   6.666  11.379  0.00  0.00    +0.000 OA
BRANCH  16  17
ATOM     17  C   UNL     1      44.506   5.390  10.902  0.00  0.00    +0.000 A 
ATOM     18  C   UNL     1      43.517   4.636  11.500  0.00  0.00    +0.000 A 
ATOM     19  N   UNL     1      43.221   3.356  11.149  0.00  0.00    +0.000 NA
ATOM     20  C   UNL     1      43.960   2.816  10.151  0.00  0.00    +0.000 A 
ATOM     21  C   UNL     1      44.989   3.466   9.470  0.00  0.00    +0.000 A 
ATOM     22  C   UNL     1      45.246   4.788   9.877  0.00  0.00    +0.000 A 
BRANCH  21  23
ATOM     23  C   UNL     1      45.780   2.825   8.396  0.00  0.00    +0.000 A 
ATOM     24  C   UNL     1      46.286   3.563   7.309  0.00  0.00    +0.000 A 
ATOM     25  C   UNL     1      47.018   2.947   6.284  0.00  0.00    +0.000 A 
ATOM     26  C   UNL     1      47.247   1.575   6.318  0.00  0.00    +0.000 A 
ATOM     27  C   UNL     1      46.753   0.837   7.379  0.00  0.00    +0.000 A 
ATOM     28  F   UNL     1      46.958  -0.491   7.414  0.00  0.00    +0.000 F 
ATOM     29  C   UNL     1      46.037   1.440   8.409  0.00  0.00    +0.000 A 
ENDBRANCH  21  23
ENDBRANCH  16  17
ENDBRANCH   1  16
TORSDOF 6
ENDMDL
MODEL 4
REMARK VINA RESULT:    -7.520      3.064      4.697
REMARK INTER + INTRA:         -11.420
REMARK INTER:                 -10.447
REMARK INTRA:                  -0.973
REMARK UNBOUND:                -1.263
REMARK  Name = 
REMARK  10 active torsions:
REMARK  status: ('A' for Active; 'I' for Inactive)
REMARK    1  A    between atoms: C_1  and  C_2
REMARK    2  A    between atoms: C_4  and  C_5
REMARK    3  A    between atoms: C_5  and  C_6
REMARK    4  A    between atoms: C_5  and  C_7
REMARK    5  A    between atoms: C_7  and  O_8
REMARK    6  A    between atoms: O_8  and  C_9
REMARK    7  A    between atoms: C_13  and  C_14
REMARK    8  A    between atoms: C_24  and  C_25
REMARK    9  A    between atoms: N_27  and  C_28
REMARK   10  A    between atoms: N_27  and  C_29
REMARK                            x       y       z     vdW  Elec       q    Type
REMARK                         _______ _______ _______ _____ _____    ______ ____
ROOT
ATOM      1  C   UNL     1      46.231   3.608  13.285  0.00  0.00    +0.000 C 
ENDROOT
BRANCH   1   2
ATOM      2  C   UNL     1      46.517   5.046  13.754  0.00  0.00    +0.000 C 
ATOM      3  C   UNL     1      47.247   5.855  12.684  0.00  0.00    +0.000 C 
BRANCH   2   7
ATOM      4  C   UNL     1      47.349   2.642  17.808  0.00  0.00    +0.000 C 
ATOM      5  C   UNL     1      47.824   3.828  17.027  0.00  0.00    +0.000 A 
ATOM      6  N   UNL     1      47.196   3.908  15.813  0.00  0.00    +0.000 NA
ATOM      7  C   UNL     1      47.341   5.001  15.029  0.00  0.00    +0.000 A 
ATOM      8  C   UNL     1      48.189   6.029  15.386  0.00  0.00    +0.000 A 
ATOM      9  C   UNL     1      48.886   5.914  16.590  0.00  0.00    +0.000 A 
ATOM     10  C   UNL     1      48.724   4.804  17.454  0.00  0.00    +0.000 A 
BRANCH  10  11
ATOM     11  C   UNL     1      49.402   4.973  18.780  0.00  0.00    +0.000 C 
ATOM     12  O   UNL     1      48.709   5.532  19.640  0.00  0.00    +0.000 OA
ATOM     13  N   UNL     1      50.731   4.648  19.060  0.00  0.00    +0.000 N 
ATOM     14  C   UNL     1      51.671   3.927  18.226  0.00  0.00    +0.000 C 
ATOM     15  C   UNL     1      51.275   5.059  20.354  0.00  0.00    +0.000 C 
ENDBRANCH  10  11
ENDBRANCH   2   7
ENDBRANCH   1   2
BRANCH   1  16
ATOM     16  O   UNL     1      44.897   3.461  12.787  0.00  0.00    +0.000 OA
BRANCH  16  17
ATOM     17  C   UNL     1      44.754   3.679  11.438  0.00  0.00    +0.000 A 
ATOM     18  C   UNL     1      43.846   4.644  11.052  0.00  0.00    +0.000 A 
ATOM     19  N   UNL     1      43.584   4.965   9.756  0.00  0.00    +0.000 NA
ATOM     20  C   UNL     1      44.271   4.279   8.812  0.00  0.00    +0.000 A 
ATOM     21  C   UNL     1      45.209   3.279   9.068  0.00  0.00    +0.000 A 
ATOM     22  C   UNL     1      45.437   2.994  10.426  0.00  0.00    +0.000 A 
BRANCH  21  23
ATOM     23  C   UNL     1      45.920   2.545   7.997  0.00  0.00    +0.000 A 
ATOM     24  C   UNL     1      46.282   1.192   8.143  0.00  0.00    +0.000 A 
ATOM     25  C   UNL     1      46.973   0.507   7.134  0.00  0.00    +0.000 A 
ATOM     26  C   UNL     1      47.329   1.166   5.961  0.00  0.00    +0.000 A 
ATOM     27  C   UNL     1      46.983   2.497   5.806  0.00  0.00    +0.000 A 
ATOM     28  F   UNL     1      47.334   3.146   4.682  0.00  0.00    +0.000 F 
ATOM     29  C   UNL     1      46.285   3.183   6.795  0.00  0.00    +0.000 A 
ENDBRANCH  21  23
ENDBRANCH  16  17
ENDBRANCH   1  16
TORSDOF 6
ENDMDL
MODEL 5
REMARK VINA RESULT:    -6.902      3.177      4.675
REMARK INTER + INTRA:         -10.585
REMARK INTER:                  -9.570
REMARK INTRA:                  -1.015
REMARK UNBOUND:                -1.263
REMARK  Name = 
REMARK  10 active torsions:
REMARK  status: ('A' for Active; 'I' for Inactive)
REMARK    1  A    between atoms: C_1  and  C_2
REMARK    2  A    between atoms: C_4  and  C_5
REMARK    3  A    between atoms: C_5  and  C_6
REMARK    4  A    between atoms: C_5  and  C_7
REMARK    5  A    between atoms: C_7  and  O_8
REMARK    6  A    between atoms: O_8  and  C_9
REMARK    7  A    between atoms: C_13  and  C_14
REMARK    8  A    between atoms: C_24  and  C_25
REMARK    9  A    between atoms: N_27  and  C_28
REMARK   10  A    between atoms: N_27  and  C_29
REMARK                            x       y       z     vdW  Elec       q    Type
REMARK                         _______ _______ _______ _____ _____    ______ ____
ROOT
ATOM      1  C   UNL     1      46.702   4.268  14.058  0.00  0.00    +0.000 C 
ENDROOT
BRANCH   1   2
ATOM      2  C   UNL     1      47.289   5.628  14.477  0.00  0.00    +0.000 C 
ATOM      3  C   UNL     1      48.170   6.224  13.382  0.00  0.00    +0.000 C 
BRANCH   2   7
ATOM      4  C   UNL     1      50.769   7.450  17.210  0.00  0.00    +0.000 C 
ATOM      5  C   UNL     1      49.772   6.335  17.168  0.00  0.00    +0.000 A 
ATOM      6  N   UNL     1      48.941   6.451  16.086  0.00  0.00    +0.000 NA
ATOM      7  C   UNL     1      48.089   5.453  15.756  0.00  0.00    +0.000 A 
ATOM      8  C   UNL     1      47.970   4.327  16.543  0.00  0.00    +0.000 A 
ATOM      9  C   UNL     1      48.766   4.240  17.687  0.00  0.00    +0.000 A 
ATOM     10  C   UNL     1      49.697   5.246  18.037  0.00  0.00    +0.000 A 
BRANCH  10  11
ATOM     11  C   UNL     1      50.589   4.865  19.180  0.00  0.00    +0.000 C 
ATOM     12  O   UNL     1      50.107   5.085  20.298  0.00  0.00    +0.000 OA
ATOM     13  N   UNL     1      51.900   4.398  19.066  0.00  0.00    +0.000 N 
ATOM     14  C   UNL     1      52.610   4.007  17.865  0.00  0.00    +0.000 C 
ATOM     15  C   UNL     1      52.683   4.259  20.294  0.00  0.00    +0.000 C 
ENDBRANCH  10  11
ENDBRANCH   2   7
ENDBRANCH   1   2
BRANCH   1  16
ATOM     16  O   UNL     1      45.273   4.303  13.974  0.00  0.00    +0.000 OA
BRANCH  16  17
ATOM     17  C   UNL     1      44.767   4.326  12.697  0.00  0.00    +0.000 A 
ATOM     18  C   UNL     1      43.520   4.892  12.526  0.00  0.00    +0.000 A 
ATOM     19  N   UNL     1      42.883   4.977  11.327  0.00  0.00    +0.000 NA
ATOM     20  C   UNL     1      43.536   4.465  10.257  0.00  0.00    +0.000 A 
ATOM     21  C   UNL     1      44.793   3.863  10.294  0.00  0.00    +0.000 A 
ATOM     22  C   UNL     1      45.402   3.807  11.561  0.00  0.00    +0.000 A 
BRANCH  21  23
ATOM     23  C   UNL     1      45.457   3.302   9.096  0.00  0.00    +0.000 A 
ATOM     24  C   UNL     1      45.821   4.115   8.005  0.00  0.00    +0.000 A 
ATOM     25  C   UNL     1      46.432   3.576   6.864  0.00  0.00    +0.000 A 
ATOM     26  C   UNL     1      46.679   2.209   6.785  0.00  0.00    +0.000 A 
ATOM     27  C   UNL     1      46.324   1.399   7.849  0.00  0.00    +0.000 A 
ATOM     28  F   UNL     1      46.548   0.075   7.776  0.00  0.00    +0.000 F 
ATOM     29  C   UNL     1      45.730   1.925   8.992  0.00  0.00    +0.000 A 
ENDBRANCH  21  23
ENDBRANCH  16  17
ENDBRANCH   1  16
TORSDOF 6
ENDMDL
MODEL 6
REMARK VINA RESULT:    -6.548      3.281      8.151
REMARK INTER + INTRA:         -10.107
REMARK INTER:                  -8.492
REMARK INTRA:                  -1.615
REMARK UNBOUND:                -1.263
REMARK  Name = 
REMARK  10 active torsions:
REMARK  status: ('A' for Active; 'I' for Inactive)
REMARK    1  A    between atoms: C_1  and  C_2
REMARK    2  A    between atoms: C_4  and  C_5
REMARK    3  A    between atoms: C_5  and  C_6
REMARK    4  A    between atoms: C_5  and  C_7
REMARK    5  A    between atoms: C_7  and  O_8
REMARK    6  A    between atoms: O_8  and  C_9
REMARK    7  A    between atoms: C_13  and  C_14
REMARK    8  A    between atoms: C_24  and  C_25
REMARK    9  A    between atoms: N_27  and  C_28
REMARK   10  A    between atoms: N_27  and  C_29
REMARK                            x       y       z     vdW  Elec       q    Type
REMARK                         _______ _______ _______ _____ _____    ______ ____
ROOT
ATOM      1  C   UNL     1      49.136   8.850  13.508  0.00  0.00    +0.000 C 
ENDROOT
BRANCH   1   2
ATOM      2  C   UNL     1      48.104   9.044  12.383  0.00  0.00    +0.000 C 
ATOM      3  C   UNL     1      47.470  10.432  12.431  0.00  0.00    +0.000 C 
BRANCH   2   7
ATOM      4  C   UNL     1      47.126   4.616  13.912  0.00  0.00    +0.000 C 
ATOM      5  C   UNL     1      46.481   5.808  13.275  0.00  0.00    +0.000 A 
ATOM      6  N   UNL     1      47.350   6.863  13.201  0.00  0.00    +0.000 NA
ATOM      7  C   UNL     1      47.032   7.975  12.498  0.00  0.00    +0.000 A 
ATOM      8  C   UNL     1      45.795   8.114  11.904  0.00  0.00    +0.000 A 
ATOM      9  C   UNL     1      44.882   7.067  12.040  0.00  0.00    +0.000 A 
ATOM     10  C   UNL     1      45.198   5.874  12.732  0.00  0.00    +0.000 A 
BRANCH  10  11
ATOM     11  C   UNL     1      44.159   4.804  12.586  0.00  0.00    +0.000 C 
ATOM     12  O   UNL     1      43.266   4.839  13.441  0.00  0.00    +0.000 OA
ATOM     13  N   UNL     1      44.191   3.764  11.654  0.00  0.00    +0.000 N 
ATOM     14  C   UNL     1      45.095   3.592  10.535  0.00  0.00    +0.000 C 
ATOM     15  C   UNL     1      43.192   2.703  11.783  0.00  0.00    +0.000 C 
ENDBRANCH  10  11
ENDBRANCH   2   7
ENDBRANCH   1   2
BRANCH   1  16
ATOM     16  O   UNL     1      48.834   9.650  14.657  0.00  0.00    +0.000 OA
BRANCH  16  17
ATOM     17  C   UNL     1      48.638   8.944  15.819  0.00  0.00    +0.000 A 
ATOM     18  C   UNL     1      48.228   9.660  16.926  0.00  0.00    +0.000 A 
ATOM     19  N   UNL     1      48.004   9.106  18.148  0.00  0.00    +0.000 NA
ATOM     20  C   UNL     1      48.205   7.771  18.254  0.00  0.00    +0.000 A 
ATOM     21  C   UNL     1      48.624   6.936  17.218  0.00  0.00    +0.000 A 
ATOM     22  C   UNL     1      48.837   7.567  15.979  0.00  0.00    +0.000 A 
BRANCH  21  23
ATOM     23  C   UNL     1      48.847   5.484  17.391  0.00  0.00    +0.000 A 
ATOM     24  C   UNL     1      50.143   4.932  17.404  0.00  0.00    +0.000 A 
ATOM     25  C   UNL     1      50.348   3.553  17.549  0.00  0.00    +0.000 A 
ATOM     26  C   UNL     1      49.259   2.694  17.670  0.00  0.00    +0.000 A 
ATOM     27  C   UNL     1      47.981   3.222  17.655  0.00  0.00    +0.000 A 
ATOM     28  F   UNL     1      46.923   2.400  17.758  0.00  0.00    +0.000 F 
ATOM     29  C   UNL     1      47.766   4.591  17.526  0.00  0.00    +0.000 A 
ENDBRANCH  21  23
ENDBRANCH  16  17
ENDBRANCH   1  16
TORSDOF 6
ENDMDL
MODEL 7
REMARK VINA RESULT:    -6.341      4.279      8.670
REMARK INTER + INTRA:          -9.828
REMARK INTER:                  -8.925
REMARK INTRA:                  -0.904
REMARK UNBOUND:                -1.263
REMARK  Name = 
REMARK  10 active torsions:
REMARK  status: ('A' for Active; 'I' for Inactive)
REMARK    1  A    between atoms: C_1  and  C_2
REMARK    2  A    between atoms: C_4  and  C_5
REMARK    3  A    between atoms: C_5  and  C_6
REMARK    4  A    between atoms: C_5  and  C_7
REMARK    5  A    between atoms: C_7  and  O_8
REMARK    6  A    between atoms: O_8  and  C_9
REMARK    7  A    between atoms: C_13  and  C_14
REMARK    8  A    between atoms: C_24  and  C_25
REMARK    9  A    between atoms: N_27  and  C_28
REMARK   10  A    between atoms: N_27  and  C_29
REMARK                            x       y       z     vdW  Elec       q    Type
REMARK                         _______ _______ _______ _____ _____    ______ ____
ROOT
ATOM      1  C   UNL     1      50.254   7.620  14.602  0.00  0.00    +0.000 C 
ENDROOT
BRANCH   1   2
ATOM      2  C   UNL     1      49.249   8.110  13.544  0.00  0.00    +0.000 C 
ATOM      3  C   UNL     1      48.631   9.451  13.929  0.00  0.00    +0.000 C 
BRANCH   2   7
ATOM      4  C   UNL     1      47.201   4.217  15.431  0.00  0.00    +0.000 C 
ATOM      5  C   UNL     1      47.083   5.164  14.277  0.00  0.00    +0.000 A 
ATOM      6  N   UNL     1      47.973   6.198  14.389  0.00  0.00    +0.000 NA
ATOM      7  C   UNL     1      48.162   7.064  13.367  0.00  0.00    +0.000 A 
ATOM      8  C   UNL     1      47.408   6.983  12.215  0.00  0.00    +0.000 A 
ATOM      9  C   UNL     1      46.449   5.972  12.129  0.00  0.00    +0.000 A 
ATOM     10  C   UNL     1      46.256   5.025  13.162  0.00  0.00    +0.000 A 
BRANCH  10  11
ATOM     11  C   UNL     1      45.329   3.909  12.786  0.00  0.00    +0.000 C 
ATOM     12  O   UNL     1      45.883   2.813  12.635  0.00  0.00    +0.000 OA
ATOM     13  N   UNL     1      43.966   4.044  12.511  0.00  0.00    +0.000 N 
ATOM     14  C   UNL     1      43.125   5.208  12.702  0.00  0.00    +0.000 C 
ATOM     15  C   UNL     1      43.261   2.880  11.975  0.00  0.00    +0.000 C 
ENDBRANCH  10  11
ENDBRANCH   2   7
ENDBRANCH   1   2
BRANCH   1  16
ATOM     16  O   UNL     1      49.888   8.036  15.923  0.00  0.00    +0.000 OA
BRANCH  16  17
ATOM     17  C   UNL     1      49.810   7.024  16.849  0.00  0.00    +0.000 A 
ATOM     18  C   UNL     1      48.958   7.217  17.918  0.00  0.00    +0.000 A 
ATOM     19  N   UNL     1      48.782   6.315  18.920  0.00  0.00    +0.000 NA
ATOM     20  C   UNL     1      49.500   5.170  18.837  0.00  0.00    +0.000 A 
ATOM     21  C   UNL     1      50.397   4.855  17.816  0.00  0.00    +0.000 A 
ATOM     22  C   UNL     1      50.534   5.826  16.808  0.00  0.00    +0.000 A 
BRANCH  21  23
ATOM     23  C   UNL     1      51.171   3.595  17.781  0.00  0.00    +0.000 A 
ATOM     24  C   UNL     1      50.594   2.384  17.352  0.00  0.00    +0.000 A 
ATOM     25  C   UNL     1      51.327   1.189  17.339  0.00  0.00    +0.000 A 
ATOM     26  C   UNL     1      52.651   1.177  17.769  0.00  0.00    +0.000 A 
ATOM     27  C   UNL     1      53.229   2.359  18.196  0.00  0.00    +0.000 A 
ATOM     28  F   UNL     1      54.503   2.355  18.625  0.00  0.00    +0.000 F 
ATOM     29  C   UNL     1      52.516   3.554  18.200  0.00  0.00    +0.000 A 
ENDBRANCH  21  23
ENDBRANCH  16  17
ENDBRANCH   1  16
TORSDOF 6
ENDMDL
MODEL 8
REMARK VINA RESULT:    -6.303      3.780      7.931
REMARK INTER + INTRA:          -9.776
REMARK INTER:                  -9.700
REMARK INTRA:                  -0.076
REMARK UNBOUND:                -1.263
REMARK  Name = 
REMARK  10 active torsions:
REMARK  status: ('A' for Active; 'I' for Inactive)
REMARK    1  A    between atoms: C_1  and  C_2
REMARK    2  A    between atoms: C_4  and  C_5
REMARK    3  A    between atoms: C_5  and  C_6
REMARK    4  A    between atoms: C_5  and  C_7
REMARK    5  A    between atoms: C_7  and  O_8
REMARK    6  A    between atoms: O_8  and  C_9
REMARK    7  A    between atoms: C_13  and  C_14
REMARK    8  A    between atoms: C_24  and  C_25
REMARK    9  A    between atoms: N_27  and  C_28
REMARK   10  A    between atoms: N_27  and  C_29
REMARK                            x       y       z     vdW  Elec       q    Type
REMARK                         _______ _______ _______ _____ _____    ______ ____
ROOT
ATOM      1  C   UNL     1      45.056   4.472  12.932  0.00  0.00    +0.000 C 
ENDROOT
BRANCH   1   2
ATOM      2  C   UNL     1      44.407   5.304  11.812  0.00  0.00    +0.000 C 
ATOM      3  C   UNL     1      42.882   5.255  11.883  0.00  0.00    +0.000 C 
BRANCH   2   7
ATOM      4  C   UNL     1      44.342   1.605   8.776  0.00  0.00    +0.000 C 
ATOM      5  C   UNL     1      44.850   3.007   8.908  0.00  0.00    +0.000 A 
ATOM      6  N   UNL     1      44.399   3.593  10.060  0.00  0.00    +0.000 NA
ATOM      7  C   UNL     1      44.885   4.789  10.466  0.00  0.00    +0.000 A 
ATOM      8  C   UNL     1      45.785   5.493   9.693  0.00  0.00    +0.000 A 
ATOM      9  C   UNL     1      46.190   4.928   8.482  0.00  0.00    +0.000 A 
ATOM     10  C   UNL     1      45.734   3.661   8.049  0.00  0.00    +0.000 A 
BRANCH  10  11
ATOM     11  C   UNL     1      46.444   3.153   6.831  0.00  0.00    +0.000 C 
ATOM     12  O   UNL     1      46.521   3.971   5.907  0.00  0.00    +0.000 OA
ATOM     13  N   UNL     1      46.909   1.848   6.647  0.00  0.00    +0.000 N 
ATOM     14  C   UNL     1      46.983   0.779   7.621  0.00  0.00    +0.000 C 
ATOM     15  C   UNL     1      47.406   1.483   5.320  0.00  0.00    +0.000 C 
ENDBRANCH  10  11
ENDBRANCH   2   7
ENDBRANCH   1   2
BRANCH   1  16
ATOM     16  O   UNL     1      45.781   5.290  13.857  0.00  0.00    +0.000 OA
BRANCH  16  17
ATOM     17  C   UNL     1      46.570   6.256  13.281  0.00  0.00    +0.000 A 
ATOM     18  C   UNL     1      47.907   5.956  13.114  0.00  0.00    +0.000 A 
ATOM     19  N   UNL     1      48.816   6.811  12.572  0.00  0.00    +0.000 NA
ATOM     20  C   UNL     1      48.350   8.022  12.184  0.00  0.00    +0.000 A 
ATOM     21  C   UNL     1      47.028   8.451  12.302  0.00  0.00    +0.000 A 
ATOM     22  C   UNL     1      46.137   7.522  12.868  0.00  0.00    +0.000 A 
BRANCH  21  23
ATOM     23  C   UNL     1      46.574   9.794  11.879  0.00  0.00    +0.000 A 
ATOM     24  C   UNL     1      45.212  10.151  11.890  0.00  0.00    +0.000 A 
ATOM     25  C   UNL     1      44.784  11.418  11.469  0.00  0.00    +0.000 A 
ATOM     26  C   UNL     1      45.711  12.352  11.014  0.00  0.00    +0.000 A 
ATOM     27  C   UNL     1      47.052  12.013  10.995  0.00  0.00    +0.000 A 
ATOM     28  F   UNL     1      47.953  12.904  10.545  0.00  0.00    +0.000 F 
ATOM     29  C   UNL     1      47.489  10.763  11.424  0.00  0.00    +0.000 A 
ENDBRANCH  21  23
ENDBRANCH  16  17
ENDBRANCH   1  16
TORSDOF 6
ENDMDL
MODEL 9
REMARK VINA RESULT:    -6.240      3.268      5.990
REMARK INTER + INTRA:          -9.692
REMARK INTER:                  -8.773
REMARK INTRA:                  -0.918
REMARK UNBOUND:                -1.263
REMARK  Name = 
REMARK  10 active torsions:
REMARK  status: ('A' for Active; 'I' for Inactive)
REMARK    1  A    between atoms: C_1  and  C_2
REMARK    2  A    between atoms: C_4  and  C_5
REMARK    3  A    between atoms: C_5  and  C_6
REMARK    4  A    between atoms: C_5  and  C_7
REMARK    5  A    between atoms: C_7  and  O_8
REMARK    6  A    between atoms: O_8  and  C_9
REMARK    7  A    between atoms: C_13  and  C_14
REMARK    8  A    between atoms: C_24  and  C_25
REMARK    9  A    between atoms: N_27  and  C_28
REMARK   10  A    between atoms: N_27  and  C_29
REMARK                            x       y       z     vdW  Elec       q    Type
REMARK                         _______ _______ _______ _____ _____    ______ ____
ROOT
ATOM      1  C   UNL     1      49.458   7.388  13.193  0.00  0.00    +0.000 C 
ENDROOT
BRANCH   1   2
ATOM      2  C   UNL     1      50.111   8.094  14.395  0.00  0.00    +0.000 C 
ATOM      3  C   UNL     1      51.635   8.032  14.326  0.00  0.00    +0.000 C 
BRANCH   2   7
ATOM      4  C   UNL     1      47.743   4.382  16.270  0.00  0.00    +0.000 C 
ATOM      5  C   UNL     1      48.495   5.615  16.664  0.00  0.00    +0.000 A 
ATOM      6  N   UNL     1      49.054   6.226  15.574  0.00  0.00    +0.000 NA
ATOM      7  C   UNL     1      49.618   7.451  15.680  0.00  0.00    +0.000 A 
ATOM      8  C   UNL     1      49.724   8.086  16.900  0.00  0.00    +0.000 A 
ATOM      9  C   UNL     1      49.218   7.430  18.024  0.00  0.00    +0.000 A 
ATOM     10  C   UNL     1      48.584   6.168  17.942  0.00  0.00    +0.000 A 
BRANCH  10  11
ATOM     11  C   UNL     1      47.935   5.739  19.222  0.00  0.00    +0.000 C 
ATOM     12  O   UNL     1      46.705   5.867  19.240  0.00  0.00    +0.000 OA
ATOM     13  N   UNL     1      48.608   5.320  20.373  0.00  0.00    +0.000 N 
ATOM     14  C   UNL     1      50.018   5.033  20.530  0.00  0.00    +0.000 C 
ATOM     15  C   UNL     1      47.819   5.123  21.589  0.00  0.00    +0.000 C 
ENDBRANCH  10  11
ENDBRANCH   2   7
ENDBRANCH   1   2
BRANCH   1  16
ATOM     16  O   UNL     1      48.720   8.300  12.372  0.00  0.00    +0.000 OA
BRANCH  16  17
ATOM     17  C   UNL     1      47.422   7.929  12.116  0.00  0.00    +0.000 A 
ATOM     18  C   UNL     1      46.429   8.786  12.548  0.00  0.00    +0.000 A 
ATOM     19  N   UNL     1      45.100   8.553  12.380  0.00  0.00    +0.000 NA
ATOM     20  C   UNL     1      44.761   7.402  11.750  0.00  0.00    +0.000 A 
ATOM     21  C   UNL     1      45.663   6.452  11.272  0.00  0.00    +0.000 A 
ATOM     22  C   UNL     1      47.023   6.751  11.473  0.00  0.00    +0.000 A 
BRANCH  21  23
ATOM     23  C   UNL     1      45.241   5.200  10.606  0.00  0.00    +0.000 A 
ATOM     24  C   UNL     1      45.572   4.930   9.264  0.00  0.00    +0.000 A 
ATOM     25  C   UNL     1      45.153   3.751   8.631  0.00  0.00    +0.000 A 
ATOM     26  C   UNL     1      44.380   2.824   9.324  0.00  0.00    +0.000 A 
ATOM     27  C   UNL     1      44.045   3.079  10.642  0.00  0.00    +0.000 A 
ATOM     28  F   UNL     1      43.288   2.195  11.315  0.00  0.00    +0.000 F 
ATOM     29  C   UNL     1      44.467   4.238  11.285  0.00  0.00    +0.000 A 
ENDBRANCH  21  23
ENDBRANCH  16  17
ENDBRANCH   1  16
TORSDOF 6
ENDMDL
