MODEL 1
REMARK VINA RESULT:    -7.705      0.000      0.000
REMARK INTER + INTRA:          -9.824
REMARK INTER:                  -9.507
REMARK INTRA:                  -0.318
REMARK UNBOUND:                -0.318
REMARK  Name = 
REMARK  4 active torsions:
REMARK  status: ('A' for Active; 'I' for Inactive)
REMARK    1  A    between atoms: C_3  and  C_4
REMARK    2  A    between atoms: C_8  and  C_9
REMARK    3  A    between atoms: C_9  and  O_10
REMARK    4  A    between atoms: O_10  and  C_11
REMARK                            x       y       z     vdW  Elec       q    Type
REMARK                         _______ _______ _______ _____ _____    ______ ____
ROOT
ATOM      1  C   UNL     1      46.935   5.341  13.494  0.00  0.00    +0.000 A 
ATOM      2  C   UNL     1      47.539   6.367  12.756  0.00  0.00    +0.000 A 
ATOM      3  C   UNL     1      46.975   6.761  11.559  0.00  0.00    +0.000 A 
ATOM      4  N   UNL     1      45.872   6.201  11.035  0.00  0.00    +0.000 NA
ATOM      5  C   UNL     1      45.269   5.192  11.716  0.00  0.00    +0.000 A 
ATOM      6  C   UNL     1      45.783   4.754  12.943  0.00  0.00    +0.000 A 
ENDROOT
BRANCH   1   9
ATOM      7  C   UNL     1      48.640   5.215  16.822  0.00  0.00    +0.000 A 
ATOM      8  C   UNL     1      48.150   5.756  15.656  0.00  0.00    +0.000 A 
ATOM      9  C   UNL     1      47.490   4.894  14.791  0.00  0.00    +0.000 A 
ATOM     10  N   UNL     1      47.326   3.586  15.093  0.00  0.00    +0.000 NA
ATOM     11  C   UNL     1      47.846   3.167  16.257  0.00  0.00    +0.000 A 
ATOM     12  N   UNL     1      48.506   3.919  17.149  0.00  0.00    +0.000 NA
ENDBRANCH   1   9
BRANCH   5  13
ATOM     13  C   UNL     1      44.028   4.562  11.088  0.00  0.00    +0.000 C 
ATOM     14  C   UNL     1      42.692   4.848  11.759  0.00  0.00    +0.000 C 
ATOM     15  C   UNL     1      43.271   3.471  11.829  0.00  0.00    +0.000 C 
BRANCH  13  16
ATOM     16  O   UNL     1      43.967   4.526   9.638  0.00  0.00    +0.000 OA
BRANCH  16  17
ATOM     17  C   UNL     1      44.841   3.686   8.992  0.00  0.00    +0.000 A 
ATOM     18  C   UNL     1      44.998   2.331   9.264  0.00  0.00    +0.000 A 
ATOM     19  N   UNL     1      45.877   1.533   8.597  0.00  0.00    +0.000 NA
ATOM     20  C   UNL     1      46.603   2.151   7.644  0.00  0.00    +0.000 A 
ATOM     21  C   UNL     1      46.464   3.502   7.376  0.00  0.00    +0.000 A 
ATOM     22  N   UNL     1      45.591   4.295   8.042  0.00  0.00    +0.000 NA
ENDBRANCH  16  17
ENDBRANCH  13  16
ENDBRANCH   5  13
TORSDOF 4
ENDMDL
MODEL 2
REMARK VINA RESULT:    -7.248      1.885      3.582
REMARK INTER + INTRA:          -9.261
REMARK INTER:                  -8.930
REMARK INTRA:                  -0.331
REMARK UNBOUND:                -0.318
REMARK  Name = 
REMARK  4 active torsions:
REMARK  status: ('A' for Active; 'I' for Inactive)
REMARK    1  A    between atoms: C_3  and  C_4
REMARK    2  A    between atoms: C_8  and  C_9
REMARK    3  A    between atoms: C_9  and  O_10
REMARK    4  A    between atoms: O_10  and  C_11
REMARK                            x       y       z     vdW  Elec       q    Type
REMARK                         _______ _______ _______ _____ _____    ______ ____
ROOT
ATOM      1  C   UNL     1      47.076   6.508  12.336  0.00  0.00    +0.000 A 
ATOM      2  C   UNL     1      47.541   5.663  13.352  0.00  0.00    +0.000 A 
ATOM      3  C   UNL     1      46.914   4.451  13.561  0.00  0.00    +0.000 A 
ATOM      4  N   UNL     1      45.855   4.027  12.853  0.00  0.00    +0.000 NA
ATOM      5  C   UNL     1      45.367   4.829  11.870  0.00  0.00    +0.000 A 
ATOM      6  C   UNL     1      45.965   6.065  11.597  0.00  0.00    +0.000 A 
ENDROOT
BRANCH   1   9
ATOM      7  C   UNL     1      49.554   9.185  11.501  0.00  0.00    +0.000 A 
ATOM      8  C   UNL     1      49.064   7.917  11.713  0.00  0.00    +0.000 A 
ATOM      9  C   UNL     1      47.724   7.810  12.059  0.00  0.00    +0.000 A 
ATOM     10  N   UNL     1      46.938   8.904  12.168  0.00  0.00    +0.000 NA
ATOM     11  C   UNL     1      47.522  10.091  11.942  0.00  0.00    +0.000 A 
ATOM     12  N   UNL     1      48.805  10.294  11.613  0.00  0.00    +0.000 NA
ENDBRANCH   1   9
BRANCH   5  13
ATOM     13  C   UNL     1      44.151   4.330  11.094  0.00  0.00    +0.000 C 
ATOM     14  C   UNL     1      42.784   4.578  11.715  0.00  0.00    +0.000 C 
ATOM     15  C   UNL     1      43.316   3.184  11.642  0.00  0.00    +0.000 C 
BRANCH  13  16
ATOM     16  O   UNL     1      44.182   4.478   9.649  0.00  0.00    +0.000 OA
BRANCH  16  17
ATOM     17  C   UNL     1      45.025   3.650   8.949  0.00  0.00    +0.000 A 
ATOM     18  C   UNL     1      45.171   2.285   9.172  0.00  0.00    +0.000 A 
ATOM     19  N   UNL     1      46.018   1.499   8.451  0.00  0.00    +0.000 NA
ATOM     20  C   UNL     1      46.724   2.139   7.498  0.00  0.00    +0.000 A 
ATOM     21  C   UNL     1      46.596   3.500   7.279  0.00  0.00    +0.000 A 
ATOM     22  N   UNL     1      45.754   4.281   7.998  0.00  0.00    +0.000 NA
ENDBRANCH  16  17
ENDBRANCH  13  16
ENDBRANCH   5  13
TORSDOF 4
ENDMDL
MODEL 3
REMARK VINA RESULT:    -6.727      2.761      4.911
REMARK INTER + INTRA:          -8.617
REMARK INTER:                  -8.293
REMARK INTRA:                  -0.324
REMARK UNBOUND:                -0.318
REMARK  Name = 
REMARK  4 active torsions:
REMARK  status: ('A' for Active; 'I' for Inactive)
REMARK    1  A    between atoms: C_3  and  C_4
REMARK    2  A    between atoms: C_8  and  C_9
REMARK    3  A    between atoms: C_9  and  O_10
REMARK    4  A    between atoms: O_10  and  C_11
REMARK                            x       y       z     vdW  Elec       q    Type
REMARK                         _______ _______ _______ _____ _____    ______ ____
ROOT
ATOM      1  C   UNL     1      44.975   7.972  11.555  0.00  0.00    +0.000 A 
ATOM      2  C   UNL     1      46.225   7.866  12.179  0.00  0.00    +0.000 A 
ATOM      3  C   UNL     1      46.767   6.615  12.398  0.00  0.00    +0.000 A 
ATOM      4  N   UNL     1      46.154   5.469  12.062  0.00  0.00    +0.000 NA
ATOM      5  C   UNL     1      44.933   5.533  11.470  0.00  0.00    +0.000 A 
ATOM      6  C   UNL     1      44.333   6.770  11.208  0.00  0.00    +0.000 A 
ENDROOT
BRANCH   1   9
ATOM      7  C   UNL     1      44.290  11.644  11.333  0.00  0.00    +0.000 A 
ATOM      8  C   UNL     1      44.976  10.486  11.620  0.00  0.00    +0.000 A 
ATOM      9  C   UNL     1      44.358   9.289  11.282  0.00  0.00    +0.000 A 
ATOM     10  N   UNL     1      43.146   9.269  10.684  0.00  0.00    +0.000 NA
ATOM     11  C   UNL     1      42.568  10.459  10.453  0.00  0.00    +0.000 A 
ATOM     12  N   UNL     1      43.080  11.661  10.752  0.00  0.00    +0.000 NA
ENDBRANCH   1   9
BRANCH   5  13
ATOM     13  C   UNL     1      44.252   4.213  11.117  0.00  0.00    +0.000 C 
ATOM     14  C   UNL     1      43.191   3.702  12.080  0.00  0.00    +0.000 C 
ATOM     15  C   UNL     1      44.494   2.979  11.971  0.00  0.00    +0.000 C 
BRANCH  13  16
ATOM     16  O   UNL     1      43.942   3.983   9.717  0.00  0.00    +0.000 OA
BRANCH  16  17
ATOM     17  C   UNL     1      44.931   3.437   8.935  0.00  0.00    +0.000 A 
ATOM     18  C   UNL     1      45.291   2.094   8.922  0.00  0.00    +0.000 A 
ATOM     19  N   UNL     1      46.277   1.594   8.127  0.00  0.00    +0.000 NA
ATOM     20  C   UNL     1      46.899   2.500   7.346  0.00  0.00    +0.000 A 
ATOM     21  C   UNL     1      46.557   3.841   7.362  0.00  0.00    +0.000 A 
ATOM     22  N   UNL     1      45.577   4.338   8.155  0.00  0.00    +0.000 NA
ENDBRANCH  16  17
ENDBRANCH  13  16
ENDBRANCH   5  13
TORSDOF 4
ENDMDL
MODEL 4
REMARK VINA RESULT:    -6.713      2.319      2.893
REMARK INTER + INTRA:          -8.601
REMARK INTER:                  -8.202
REMARK INTRA:                  -0.399
REMARK UNBOUND:                -0.318
REMARK  Name = 
REMARK  4 active torsions:
REMARK  status: ('A' for Active; 'I' for Inactive)
REMARK    1  A    between atoms: C_3  and  C_4
REMARK    2  A    between atoms: C_8  and  C_9
REMARK    3  A    between atoms: C_9  and  O_10
REMARK    4  A    between atoms: O_10  and  C_11
REMARK                            x       y       z     vdW  Elec       q    Type
REMARK                         _______ _______ _______ _____ _____    ______ ____
ROOT
ATOM      1  C   UNL     1      46.632   7.169  12.061  0.00  0.00    +0.000 A 
ATOM      2  C   UNL     1      45.685   8.177  11.836  0.00  0.00    +0.000 A 
ATOM      3  C   UNL     1      44.401   7.828  11.467  0.00  0.00    +0.000 A 
ATOM      4  N   UNL     1      43.996   6.561  11.286  0.00  0.00    +0.000 NA
ATOM      5  C   UNL     1      44.892   5.558  11.480  0.00  0.00    +0.000 A 
ATOM      6  C   UNL     1      46.207   5.842  11.868  0.00  0.00    +0.000 A 
ENDROOT
BRANCH   1   9
ATOM      7  C   UNL     1      50.269   8.046  12.074  0.00  0.00    +0.000 A 
ATOM      8  C   UNL     1      49.018   7.788  11.563  0.00  0.00    +0.000 A 
ATOM      9  C   UNL     1      48.016   7.489  12.476  0.00  0.00    +0.000 A 
ATOM     10  N   UNL     1      48.260   7.468  13.806  0.00  0.00    +0.000 NA
ATOM     11  C   UNL     1      49.519   7.734  14.191  0.00  0.00    +0.000 A 
ATOM     12  N   UNL     1      50.551   8.023  13.386  0.00  0.00    +0.000 NA
ENDBRANCH   1   9
BRANCH   5  13
ATOM     13  C   UNL     1      44.409   4.128  11.250  0.00  0.00    +0.000 C 
ATOM     14  C   UNL     1      43.562   3.499  12.347  0.00  0.00    +0.000 C 
ATOM     15  C   UNL     1      44.949   2.995  12.108  0.00  0.00    +0.000 C 
BRANCH  13  16
ATOM     16  O   UNL     1      43.989   3.780   9.904  0.00  0.00    +0.000 OA
BRANCH  16  17
ATOM     17  C   UNL     1      44.960   3.344   9.035  0.00  0.00    +0.000 A 
ATOM     18  C   UNL     1      45.372   2.024   8.893  0.00  0.00    +0.000 A 
ATOM     19  N   UNL     1      46.338   1.635   8.015  0.00  0.00    +0.000 NA
ATOM     20  C   UNL     1      46.884   2.628   7.286  0.00  0.00    +0.000 A 
ATOM     21  C   UNL     1      46.490   3.947   7.431  0.00  0.00    +0.000 A 
ATOM     22  N   UNL     1      45.531   4.334   8.305  0.00  0.00    +0.000 NA
ENDBRANCH  16  17
ENDBRANCH  13  16
ENDBRANCH   5  13
TORSDOF 4
ENDMDL
MODEL 5
REMARK VINA RESULT:    -6.425      3.154      8.114
REMARK INTER + INTRA:          -8.245
REMARK INTER:                  -7.982
REMARK INTRA:                  -0.262
REMARK UNBOUND:                -0.318
REMARK  Name = 
REMARK  4 active torsions:
REMARK  status: ('A' for Active; 'I' for Inactive)
REMARK    1  A    between atoms: C_3  and  C_4
REMARK    2  A    between atoms: C_8  and  C_9
REMARK    3  A    between atoms: C_9  and  O_10
REMARK    4  A    between atoms: O_10  and  C_11
REMARK                            x       y       z     vdW  Elec       q    Type
REMARK                         _______ _______ _______ _____ _____    ______ ____
ROOT
ATOM      1  C   UNL     1      46.341   5.032  13.464  0.00  0.00    +0.000 A 
ATOM      2  C   UNL     1      47.047   6.206  13.169  0.00  0.00    +0.000 A 
ATOM      3  C   UNL     1      48.075   6.604  14.001  0.00  0.00    +0.000 A 
ATOM      4  N   UNL     1      48.439   5.935  15.107  0.00  0.00    +0.000 NA
ATOM      5  C   UNL     1      47.766   4.801  15.433  0.00  0.00    +0.000 A 
ATOM      6  C   UNL     1      46.722   4.335  14.625  0.00  0.00    +0.000 A 
ENDROOT
BRANCH   1   9
ATOM      7  C   UNL     1      43.850   4.653  10.698  0.00  0.00    +0.000 A 
ATOM      8  C   UNL     1      44.905   5.183  11.406  0.00  0.00    +0.000 A 
ATOM      9  C   UNL     1      45.243   4.552  12.596  0.00  0.00    +0.000 A 
ATOM     10  N   UNL     1      44.573   3.460  13.027  0.00  0.00    +0.000 NA
ATOM     11  C   UNL     1      43.560   3.032  12.257  0.00  0.00    +0.000 A 
ATOM     12  N   UNL     1      43.155   3.578  11.103  0.00  0.00    +0.000 NA
ENDBRANCH   1   9
BRANCH   5  13
ATOM     13  C   UNL     1      48.190   4.072  16.705  0.00  0.00    +0.000 C 
ATOM     14  C   UNL     1      48.417   2.570  16.601  0.00  0.00    +0.000 C 
ATOM     15  C   UNL     1      47.243   3.086  17.369  0.00  0.00    +0.000 C 
BRANCH  13  16
ATOM     16  O   UNL     1      49.133   4.753  17.576  0.00  0.00    +0.000 OA
BRANCH  16  17
ATOM     17  C   UNL     1      48.643   5.271  18.751  0.00  0.00    +0.000 A 
ATOM     18  C   UNL     1      47.856   6.413  18.855  0.00  0.00    +0.000 A 
ATOM     19  N   UNL     1      47.389   6.890  20.042  0.00  0.00    +0.000 NA
ATOM     20  C   UNL     1      47.749   6.178  21.128  0.00  0.00    +0.000 A 
ATOM     21  C   UNL     1      48.544   5.048  21.035  0.00  0.00    +0.000 A 
ATOM     22  N   UNL     1      49.010   4.576  19.854  0.00  0.00    +0.000 NA
ENDBRANCH  16  17
ENDBRANCH  13  16
ENDBRANCH   5  13
TORSDOF 4
ENDMDL
MODEL 6
REMARK VINA RESULT:    -6.174      2.260      6.391
REMARK INTER + INTRA:          -7.936
REMARK INTER:                  -7.557
REMARK INTRA:                  -0.379
REMARK UNBOUND:                -0.318
REMARK  Name = 
REMARK  4 active torsions:
REMARK  status: ('A' for Active; 'I' for Inactive)
REMARK    1  A    between atoms: C_3  and  C_4
REMARK    2  A    between atoms: C_8  and  C_9
REMARK    3  A    between atoms: C_9  and  O_10
REMARK    4  A    between atoms: O_10  and  C_11
REMARK                            x       y       z     vdW  Elec       q    Type
REMARK                         _______ _______ _______ _____ _____    ______ ____
ROOT
ATOM      1  C   UNL     1      44.919   3.152   9.596  0.00  0.00    +0.000 A 
ATOM      2  C   UNL     1      44.142   2.230  10.310  0.00  0.00    +0.000 A 
ATOM      3  C   UNL     1      43.409   2.663  11.396  0.00  0.00    +0.000 A 
ATOM      4  N   UNL     1      43.405   3.932  11.835  0.00  0.00    +0.000 NA
ATOM      5  C   UNL     1      44.160   4.850  11.177  0.00  0.00    +0.000 A 
ATOM      6  C   UNL     1      44.916   4.480  10.059  0.00  0.00    +0.000 A 
ENDROOT
BRANCH   1   9
ATOM      7  C   UNL     1      46.702   3.099   6.307  0.00  0.00    +0.000 A 
ATOM      8  C   UNL     1      45.974   3.606   7.359  0.00  0.00    +0.000 A 
ATOM      9  C   UNL     1      45.710   2.743   8.413  0.00  0.00    +0.000 A 
ATOM     10  N   UNL     1      46.161   1.468   8.408  0.00  0.00    +0.000 NA
ATOM     11  C   UNL     1      46.859   1.081   7.329  0.00  0.00    +0.000 A 
ATOM     12  N   UNL     1      47.155   1.836   6.262  0.00  0.00    +0.000 NA
ENDBRANCH   1   9
BRANCH   5  13
ATOM     13  C   UNL     1      44.150   6.281  11.708  0.00  0.00    +0.000 C 
ATOM     14  C   UNL     1      42.861   7.074  11.540  0.00  0.00    +0.000 C 
ATOM     15  C   UNL     1      44.067   7.452  10.741  0.00  0.00    +0.000 C 
BRANCH  13  16
ATOM     16  O   UNL     1      44.835   6.525  12.965  0.00  0.00    +0.000 OA
BRANCH  16  17
ATOM     17  C   UNL     1      46.205   6.628  12.926  0.00  0.00    +0.000 A 
ATOM     18  C   UNL     1      47.094   5.625  13.296  0.00  0.00    +0.000 A 
ATOM     19  N   UNL     1      48.447   5.770  13.238  0.00  0.00    +0.000 NA
ATOM     20  C   UNL     1      48.877   6.969  12.800  0.00  0.00    +0.000 A 
ATOM     21  C   UNL     1      48.000   7.979  12.443  0.00  0.00    +0.000 A 
ATOM     22  N   UNL     1      46.654   7.835  12.502  0.00  0.00    +0.000 NA
ENDBRANCH  16  17
ENDBRANCH  13  16
ENDBRANCH   5  13
TORSDOF 4
ENDMDL
MODEL 7
REMARK VINA RESULT:    -6.053      2.879      4.401
REMARK INTER + INTRA:          -7.786
REMARK INTER:                  -7.241
REMARK INTRA:                  -0.545
REMARK UNBOUND:                -0.318
REMARK  Name = 
REMARK  4 active torsions:
REMARK  status: ('A' for Active; 'I' for Inactive)
REMARK    1  A    between atoms: C_3  and  C_4
REMARK    2  A    between atoms: C_8  and  C_9
REMARK    3  A    between atoms: C_9  and  O_10
REMARK    4  A    between atoms: O_10  and  C_11
REMARK                            x       y       z     vdW  Elec       q    Type
REMARK                         _______ _______ _______ _____ _____    ______ ____
ROOT
ATOM      1  C   UNL     1      47.773   8.369  11.969  0.00  0.00    +0.000 A 
ATOM      2  C   UNL     1      46.808   9.347  12.245  0.00  0.00    +0.000 A 
ATOM      3  C   UNL     1      45.533   8.955  12.601  0.00  0.00    +0.000 A 
ATOM      4  N   UNL     1      45.143   7.673  12.685  0.00  0.00    +0.000 NA
ATOM      5  C   UNL     1      46.049   6.699  12.408  0.00  0.00    +0.000 A 
ATOM      6  C   UNL     1      47.363   7.027  12.054  0.00  0.00    +0.000 A 
ENDROOT
BRANCH   1   9
ATOM      7  C   UNL     1      50.867  10.262  11.048  0.00  0.00    +0.000 A 
ATOM      8  C   UNL     1      49.556  10.053  11.410  0.00  0.00    +0.000 A 
ATOM      9  C   UNL     1      49.159   8.736  11.600  0.00  0.00    +0.000 A 
ATOM     10  N   UNL     1      50.028   7.712  11.450  0.00  0.00    +0.000 NA
ATOM     11  C   UNL     1      51.282   8.033  11.093  0.00  0.00    +0.000 A 
ATOM     12  N   UNL     1      51.754   9.269  10.877  0.00  0.00    +0.000 NA
ENDBRANCH   1   9
BRANCH   5  13
ATOM     13  C   UNL     1      45.573   5.251  12.494  0.00  0.00    +0.000 C 
ATOM     14  C   UNL     1      45.540   4.613  13.876  0.00  0.00    +0.000 C 
ATOM     15  C   UNL     1      46.550   4.150  12.876  0.00  0.00    +0.000 C 
BRANCH  13  16
ATOM     16  O   UNL     1      44.464   4.867  11.639  0.00  0.00    +0.000 OA
BRANCH  16  17
ATOM     17  C   UNL     1      44.772   4.352  10.402  0.00  0.00    +0.000 A 
ATOM     18  C   UNL     1      45.429   5.041   9.390  0.00  0.00    +0.000 A 
ATOM     19  N   UNL     1      45.718   4.491   8.178  0.00  0.00    +0.000 NA
ATOM     20  C   UNL     1      45.312   3.216   8.016  0.00  0.00    +0.000 A 
ATOM     21  C   UNL     1      44.644   2.526   9.014  0.00  0.00    +0.000 A 
ATOM     22  N   UNL     1      44.356   3.075  10.218  0.00  0.00    +0.000 NA
ENDBRANCH  16  17
ENDBRANCH  13  16
ENDBRANCH   5  13
TORSDOF 4
ENDMDL
MODEL 8
REMARK VINA RESULT:    -5.926      3.049      6.865
REMARK INTER + INTRA:          -7.629
REMARK INTER:                  -7.647
REMARK INTRA:                   0.018
REMARK UNBOUND:                -0.318
REMARK  Name = 
REMARK  4 active torsions:
REMARK  status: ('A' for Active; 'I' for Inactive)
REMARK    1  A    between atoms: C_3  and  C_4
REMARK    2  A    between atoms: C_8  and  C_9
REMARK    3  A    between atoms: C_9  and  O_10
REMARK    4  A    between atoms: O_10  and  C_11
REMARK                            x       y       z     vdW  Elec       q    Type
REMARK                         _______ _______ _______ _____ _____    ______ ____
ROOT
ATOM      1  C   UNL     1      46.481   5.807  12.600  0.00  0.00    +0.000 A 
ATOM      2  C   UNL     1      47.209   6.615  11.717  0.00  0.00    +0.000 A 
ATOM      3  C   UNL     1      48.343   7.259  12.169  0.00  0.00    +0.000 A 
ATOM      4  N   UNL     1      48.794   7.175  13.432  0.00  0.00    +0.000 NA
ATOM      5  C   UNL     1      48.104   6.413  14.320  0.00  0.00    +0.000 A 
ATOM      6  C   UNL     1      46.953   5.723  13.922  0.00  0.00    +0.000 A 
ENDROOT
BRANCH   1   9
ATOM      7  C   UNL     1      43.144   4.926  11.154  0.00  0.00    +0.000 A 
ATOM      8  C   UNL     1      44.227   5.706  11.491  0.00  0.00    +0.000 A 
ATOM      9  C   UNL     1      45.269   5.080  12.160  0.00  0.00    +0.000 A 
ATOM     10  N   UNL     1      45.223   3.761  12.453  0.00  0.00    +0.000 NA
ATOM     11  C   UNL     1      44.117   3.099  12.079  0.00  0.00    +0.000 A 
ATOM     12  N   UNL     1      43.060   3.617  11.440  0.00  0.00    +0.000 NA
ENDBRANCH   1   9
BRANCH   5  13
ATOM     13  C   UNL     1      48.630   6.351  15.751  0.00  0.00    +0.000 C 
ATOM     14  C   UNL     1      48.861   7.677  16.462  0.00  0.00    +0.000 C 
ATOM     15  C   UNL     1      50.034   6.839  16.068  0.00  0.00    +0.000 C 
BRANCH  13  16
ATOM     16  O   UNL     1      48.097   5.305  16.607  0.00  0.00    +0.000 OA
BRANCH  16  17
ATOM     17  C   UNL     1      48.807   4.130  16.680  0.00  0.00    +0.000 A 
ATOM     18  C   UNL     1      48.430   2.930  16.088  0.00  0.00    +0.000 A 
ATOM     19  N   UNL     1      49.165   1.788  16.183  0.00  0.00    +0.000 NA
ATOM     20  C   UNL     1      50.297   1.894  16.907  0.00  0.00    +0.000 A 
ATOM     21  C   UNL     1      50.673   3.081  17.513  0.00  0.00    +0.000 A 
ATOM     22  N   UNL     1      49.940   4.216  17.419  0.00  0.00    +0.000 NA
ENDBRANCH  16  17
ENDBRANCH  13  16
ENDBRANCH   5  13
TORSDOF 4
ENDMDL
MODEL 9
REMARK VINA RESULT:    -5.653      2.989      7.044
REMARK INTER + INTRA:          -7.293
REMARK INTER:                  -7.195
REMARK INTRA:                  -0.098
REMARK UNBOUND:                -0.318
REMARK  Name = 
REMARK  4 active torsions:
REMARK  status: ('A' for Active; 'I' for Inactive)
REMARK    1  A    between atoms: C_3  and  C_4
REMARK    2  A    between atoms: C_8  and  C_9
REMARK    3  A    between atoms: C_9  and  O_10
REMARK    4  A    between atoms: O_10  and  C_11
REMARK                            x       y       z     vdW  Elec       q    Type
REMARK                         _______ _______ _______ _____ _____    ______ ____
ROOT
ATOM      1  C   UNL     1      46.615   6.131  12.696  0.00  0.00    +0.000 A 
ATOM      2  C   UNL     1      47.429   6.758  11.743  0.00  0.00    +0.000 A 
ATOM      3  C   UNL     1      48.640   7.294  12.136  0.00  0.00    +0.000 A 
ATOM      4  N   UNL     1      49.090   7.269  13.401  0.00  0.00    +0.000 NA
ATOM      5  C   UNL     1      48.319   6.683  14.354  0.00  0.00    +0.000 A 
ATOM      6  C   UNL     1      47.087   6.109  14.020  0.00  0.00    +0.000 A 
ENDROOT
BRANCH   1   9
ATOM      7  C   UNL     1      43.841   4.431  10.849  0.00  0.00    +0.000 A 
ATOM      8  C   UNL     1      45.097   4.940  11.083  0.00  0.00    +0.000 A 
ATOM      9  C   UNL     1      45.318   5.525  12.322  0.00  0.00    +0.000 A 
ATOM     10  N   UNL     1      44.343   5.576  13.258  0.00  0.00    +0.000 NA
ATOM     11  C   UNL     1      43.155   5.049  12.921  0.00  0.00    +0.000 A 
ATOM     12  N   UNL     1      42.846   4.475  11.750  0.00  0.00    +0.000 NA
ENDBRANCH   1   9
BRANCH   5  13
ATOM     13  C   UNL     1      48.848   6.686  15.786  0.00  0.00    +0.000 C 
ATOM     14  C   UNL     1      49.167   8.041  16.404  0.00  0.00    +0.000 C 
ATOM     15  C   UNL     1      50.282   7.104  16.067  0.00  0.00    +0.000 C 
BRANCH  13  16
ATOM     16  O   UNL     1      48.254   5.739  16.713  0.00  0.00    +0.000 OA
BRANCH  16  17
ATOM     17  C   UNL     1      48.901   4.539  16.887  0.00  0.00    +0.000 A 
ATOM     18  C   UNL     1      50.084   4.364  17.596  0.00  0.00    +0.000 A 
ATOM     19  N   UNL     1      50.692   3.155  17.746  0.00  0.00    +0.000 NA
ATOM     20  C   UNL     1      50.068   2.121  17.147  0.00  0.00    +0.000 A 
ATOM     21  C   UNL     1      48.898   2.288  16.426  0.00  0.00    +0.000 A 
ATOM     22  N   UNL     1      48.295   3.492  16.276  0.00  0.00    +0.000 NA
ENDBRANCH  16  17
ENDBRANCH  13  16
ENDBRANCH   5  13
TORSDOF 4
ENDMDL
