MODEL 1
REMARK VINA RESULT:    -7.935      0.000      0.000
REMARK INTER + INTRA:         -10.917
REMARK INTER:                 -10.255
REMARK INTRA:                  -0.662
REMARK UNBOUND:                -0.662
REMARK  Name = 
REMARK  6 active torsions:
REMARK  status: ('A' for Active; 'I' for Inactive)
REMARK    1  A    between atoms: C_1  and  O_2
REMARK    2  A    between atoms: O_2  and  C_3
REMARK    3  A    between atoms: C_6  and  C_7
REMARK    4  A    between atoms: C_11  and  O_12
REMARK    5  A    between atoms: O_12  and  C_13
REMARK    6  A    between atoms: C_13  and  C_14
REMARK                            x       y       z     vdW  Elec       q    Type
REMARK                         _______ _______ _______ _____ _____    ______ ____
ROOT
ATOM      1  C   UNL     1      45.244   5.385  12.170  0.00  0.00    +0.000 A 
ATOM      2  C   UNL     1      44.108   5.482  12.953  0.00  0.00    +0.000 A 
ATOM      3  C   UNL     1      42.996   4.805  12.508  0.00  0.00    +0.000 A 
ATOM      4  N   UNL     1      42.971   4.075  11.382  0.00  0.00    +0.000 NA
ATOM      5  C   UNL     1      44.111   4.043  10.687  0.00  0.00    +0.000 A 
ATOM      6  N   UNL     1      45.251   4.660  11.031  0.00  0.00    +0.000 NA
ENDROOT
BRANCH   1  10
ATOM      7  C   UNL     1      48.979   7.340  13.113  0.00  0.00    +0.000 A 
ATOM      8  C   UNL     1      48.368   7.540  11.880  0.00  0.00    +0.000 A 
ATOM      9  C   UNL     1      47.156   6.900  11.584  0.00  0.00    +0.000 A 
ATOM     10  C   UNL     1      46.522   6.045  12.507  0.00  0.00    +0.000 A 
ATOM     11  C   UNL     1      47.153   5.867  13.750  0.00  0.00    +0.000 A 
ATOM     12  C   UNL     1      48.362   6.506  14.046  0.00  0.00    +0.000 A 
BRANCH   7  14
ATOM     13  C   UNL     1      50.551   7.635  14.871  0.00  0.00    +0.000 C 
ATOM     14  O   UNL     1      50.158   7.893  13.529  0.00  0.00    +0.000 OA
ENDBRANCH   7  14
ENDBRANCH   1  10
BRANCH   5  15
ATOM     15  O   UNL     1      44.088   3.259   9.556  0.00  0.00    +0.000 OA
BRANCH  15  16
ATOM     16  C   UNL     1      44.677   3.929   8.447  0.00  0.00    +0.000 C 
BRANCH  16  17
ATOM     17  C   UNL     1      45.711   3.022   7.819  0.00  0.00    +0.000 A 
ATOM     18  C   UNL     1      46.608   3.514   6.859  0.00  0.00    +0.000 A 
ATOM     19  C   UNL     1      47.579   2.680   6.297  0.00  0.00    +0.000 A 
ATOM     20  C   UNL     1      47.663   1.347   6.691  0.00  0.00    +0.000 A 
ATOM     21  C   UNL     1      46.774   0.858   7.641  0.00  0.00    +0.000 A 
ATOM     22  F   UNL     1      46.854  -0.425   8.021  0.00  0.00    +0.000 F 
ATOM     23  C   UNL     1      45.803   1.678   8.207  0.00  0.00    +0.000 A 
ENDBRANCH  16  17
ENDBRANCH  15  16
ENDBRANCH   5  15
TORSDOF 5
ENDMDL
MODEL 2
REMARK VINA RESULT:    -7.826      2.250      2.972
REMARK INTER + INTRA:         -10.777
REMARK INTER:                 -10.086
REMARK INTRA:                  -0.690
REMARK UNBOUND:                -0.662
REMARK  Name = 
REMARK  6 active torsions:
REMARK  status: ('A' for Active; 'I' for Inactive)
REMARK    1  A    between atoms: C_1  and  O_2
REMARK    2  A    between atoms: O_2  and  C_3
REMARK    3  A    between atoms: C_6  and  C_7
REMARK    4  A    between atoms: C_11  and  O_12
REMARK    5  A    between atoms: O_12  and  C_13
REMARK    6  A    between atoms: C_13  and  C_14
REMARK                            x       y       z     vdW  Elec       q    Type
REMARK                         _______ _______ _______ _____ _____    ______ ____
ROOT
ATOM      1  C   UNL     1      46.191   5.836  12.679  0.00  0.00    +0.000 A 
ATOM      2  C   UNL     1      46.990   5.144  13.571  0.00  0.00    +0.000 A 
ATOM      3  C   UNL     1      46.793   3.784  13.644  0.00  0.00    +0.000 A 
ATOM      4  N   UNL     1      45.889   3.122  12.906  0.00  0.00    +0.000 NA
ATOM      5  C   UNL     1      45.159   3.872  12.075  0.00  0.00    +0.000 A 
ATOM      6  N   UNL     1      45.271   5.200  11.922  0.00  0.00    +0.000 NA
ENDROOT
BRANCH   1  10
ATOM      7  C   UNL     1      46.497  10.102  12.071  0.00  0.00    +0.000 A 
ATOM      8  C   UNL     1      47.640   9.312  12.130  0.00  0.00    +0.000 A 
ATOM      9  C   UNL     1      47.529   7.928  12.329  0.00  0.00    +0.000 A 
ATOM     10  C   UNL     1      46.279   7.296  12.474  0.00  0.00    +0.000 A 
ATOM     11  C   UNL     1      45.138   8.112  12.400  0.00  0.00    +0.000 A 
ATOM     12  C   UNL     1      45.248   9.493  12.202  0.00  0.00    +0.000 A 
BRANCH   7  14
ATOM     13  C   UNL     1      45.200  12.025  11.557  0.00  0.00    +0.000 C 
ATOM     14  O   UNL     1      46.460  11.456  11.891  0.00  0.00    +0.000 OA
ENDBRANCH   7  14
ENDBRANCH   1  10
BRANCH   5  15
ATOM     15  O   UNL     1      44.263   3.180  11.292  0.00  0.00    +0.000 OA
BRANCH  15  16
ATOM     16  C   UNL     1      44.053   3.832  10.044  0.00  0.00    +0.000 C 
BRANCH  16  17
ATOM     17  C   UNL     1      45.044   3.293   9.038  0.00  0.00    +0.000 A 
ATOM     18  C   UNL     1      45.751   4.162   8.192  0.00  0.00    +0.000 A 
ATOM     19  C   UNL     1      46.685   3.665   7.278  0.00  0.00    +0.000 A 
ATOM     20  C   UNL     1      46.921   2.294   7.202  0.00  0.00    +0.000 A 
ATOM     21  C   UNL     1      46.221   1.432   8.038  0.00  0.00    +0.000 A 
ATOM     22  F   UNL     1      46.448   0.113   7.965  0.00  0.00    +0.000 F 
ATOM     23  C   UNL     1      45.289   1.915   8.951  0.00  0.00    +0.000 A 
ENDBRANCH  16  17
ENDBRANCH  15  16
ENDBRANCH   5  15
TORSDOF 5
ENDMDL
MODEL 3
REMARK VINA RESULT:    -7.727      1.273      1.597
REMARK INTER + INTRA:         -10.648
REMARK INTER:                 -10.011
REMARK INTRA:                  -0.637
REMARK UNBOUND:                -0.662
REMARK  Name = 
REMARK  6 active torsions:
REMARK  status: ('A' for Active; 'I' for Inactive)
REMARK    1  A    between atoms: C_1  and  O_2
REMARK    2  A    between atoms: O_2  and  C_3
REMARK    3  A    between atoms: C_6  and  C_7
REMARK    4  A    between atoms: C_11  and  O_12
REMARK    5  A    between atoms: O_12  and  C_13
REMARK    6  A    between atoms: C_13  and  C_14
REMARK                            x       y       z     vdW  Elec       q    Type
REMARK                         _______ _______ _______ _____ _____    ______ ____
ROOT
ATOM      1  C   UNL     1      44.983   5.685  12.139  0.00  0.00    +0.000 A 
ATOM      2  C   UNL     1      44.083   5.387  13.146  0.00  0.00    +0.000 A 
ATOM      3  C   UNL     1      43.228   4.334  12.914  0.00  0.00    +0.000 A 
ATOM      4  N   UNL     1      43.234   3.606  11.787  0.00  0.00    +0.000 NA
ATOM      5  C   UNL     1      44.133   3.969  10.867  0.00  0.00    +0.000 A 
ATOM      6  N   UNL     1      45.014   4.972  10.992  0.00  0.00    +0.000 NA
ENDROOT
BRANCH   1  10
ATOM      7  C   UNL     1      47.909   8.854  12.380  0.00  0.00    +0.000 A 
ATOM      8  C   UNL     1      48.244   7.622  11.826  0.00  0.00    +0.000 A 
ATOM      9  C   UNL     1      47.286   6.601  11.754  0.00  0.00    +0.000 A 
ATOM     10  C   UNL     1      45.973   6.778  12.231  0.00  0.00    +0.000 A 
ATOM     11  C   UNL     1      45.655   8.033  12.775  0.00  0.00    +0.000 A 
ATOM     12  C   UNL     1      46.611   9.053  12.848  0.00  0.00    +0.000 A 
BRANCH   7  14
ATOM     13  C   UNL     1      48.414  11.095  11.773  0.00  0.00    +0.000 C 
ATOM     14  O   UNL     1      48.741   9.929  12.519  0.00  0.00    +0.000 OA
ENDBRANCH   7  14
ENDBRANCH   1  10
BRANCH   5  15
ATOM     15  O   UNL     1      44.159   3.190   9.733  0.00  0.00    +0.000 OA
BRANCH  15  16
ATOM     16  C   UNL     1      44.742   3.889   8.638  0.00  0.00    +0.000 C 
BRANCH  16  17
ATOM     17  C   UNL     1      45.725   2.975   7.941  0.00  0.00    +0.000 A 
ATOM     18  C   UNL     1      46.585   3.470   6.948  0.00  0.00    +0.000 A 
ATOM     19  C   UNL     1      47.509   2.630   6.322  0.00  0.00    +0.000 A 
ATOM     20  C   UNL     1      47.584   1.286   6.684  0.00  0.00    +0.000 A 
ATOM     21  C   UNL     1      46.733   0.794   7.666  0.00  0.00    +0.000 A 
ATOM     22  F   UNL     1      46.804  -0.498   8.014  0.00  0.00    +0.000 F 
ATOM     23  C   UNL     1      45.808   1.621   8.295  0.00  0.00    +0.000 A 
ENDBRANCH  16  17
ENDBRANCH  15  16
ENDBRANCH   5  15
TORSDOF 5
ENDMDL
MODEL 4
REMARK VINA RESULT:    -7.640      1.760      2.295
REMARK INTER + INTRA:         -10.535
REMARK INTER:                  -9.938
REMARK INTRA:                  -0.597
REMARK UNBOUND:                -0.662
REMARK  Name = 
REMARK  6 active torsions:
REMARK  status: ('A' for Active; 'I' for Inactive)
REMARK    1  A    between atoms: C_1  and  O_2
REMARK    2  A    between atoms: O_2  and  C_3
REMARK    3  A    between atoms: C_6  and  C_7
REMARK    4  A    between atoms: C_11  and  O_12
REMARK    5  A    between atoms: O_12  and  C_13
REMARK    6  A    between atoms: C_13  and  C_14
REMARK                            x       y       z     vdW  Elec       q    Type
REMARK                         _______ _______ _______ _____ _____    ______ ____
ROOT
ATOM      1  C   UNL     1      44.790   5.759  11.830  0.00  0.00    +0.000 A 
ATOM      2  C   UNL     1      43.950   5.318  12.837  0.00  0.00    +0.000 A 
ATOM      3  C   UNL     1      43.187   4.208  12.558  0.00  0.00    +0.000 A 
ATOM      4  N   UNL     1      43.224   3.554  11.386  0.00  0.00    +0.000 NA
ATOM      5  C   UNL     1      44.059   4.054  10.471  0.00  0.00    +0.000 A 
ATOM      6  N   UNL     1      44.850   5.124  10.639  0.00  0.00    +0.000 NA
ENDROOT
BRANCH   1  10
ATOM      7  C   UNL     1      47.351   9.212  12.244  0.00  0.00    +0.000 A 
ATOM      8  C   UNL     1      45.968   9.347  12.302  0.00  0.00    +0.000 A 
ATOM      9  C   UNL     1      45.146   8.219  12.166  0.00  0.00    +0.000 A 
ATOM     10  C   UNL     1      45.679   6.930  11.968  0.00  0.00    +0.000 A 
ATOM     11  C   UNL     1      47.079   6.818  11.924  0.00  0.00    +0.000 A 
ATOM     12  C   UNL     1      47.900   7.943  12.060  0.00  0.00    +0.000 A 
BRANCH   7  14
ATOM     13  C   UNL     1      47.769  11.551  12.260  0.00  0.00    +0.000 C 
ATOM     14  O   UNL     1      48.266  10.222  12.355  0.00  0.00    +0.000 OA
ENDBRANCH   7  14
ENDBRANCH   1  10
BRANCH   5  15
ATOM     15  O   UNL     1      44.121   3.354   9.288  0.00  0.00    +0.000 OA
BRANCH  15  16
ATOM     16  C   UNL     1      44.970   4.000   8.346  0.00  0.00    +0.000 C 
BRANCH  16  17
ATOM     17  C   UNL     1      45.853   2.962   7.690  0.00  0.00    +0.000 A 
ATOM     18  C   UNL     1      46.032   1.700   8.277  0.00  0.00    +0.000 A 
ATOM     19  C   UNL     1      46.829   0.732   7.658  0.00  0.00    +0.000 A 
ATOM     20  C   UNL     1      47.452   1.017   6.444  0.00  0.00    +0.000 A 
ATOM     21  C   UNL     1      47.275   2.267   5.862  0.00  0.00    +0.000 A 
ATOM     22  F   UNL     1      47.874   2.542   4.696  0.00  0.00    +0.000 F 
ATOM     23  C   UNL     1      46.486   3.238   6.470  0.00  0.00    +0.000 A 
ENDBRANCH  16  17
ENDBRANCH  15  16
ENDBRANCH   5  15
TORSDOF 5
ENDMDL
MODEL 5
REMARK VINA RESULT:    -7.566      2.815      7.021
REMARK INTER + INTRA:         -10.440
REMARK INTER:                  -9.774
REMARK INTRA:                  -0.666
REMARK UNBOUND:                -0.662
REMARK  Name = 
REMARK  6 active torsions:
REMARK  status: ('A' for Active; 'I' for Inactive)
REMARK    1  A    between atoms: C_1  and  O_2
REMARK    2  A    between atoms: O_2  and  C_3
REMARK    3  A    between atoms: C_6  and  C_7
REMARK    4  A    between atoms: C_11  and  O_12
REMARK    5  A    between atoms: O_12  and  C_13
REMARK    6  A    between atoms: C_13  and  C_14
REMARK                            x       y       z     vdW  Elec       q    Type
REMARK                         _______ _______ _______ _____ _____    ______ ____
ROOT
ATOM      1  C   UNL     1      44.881   3.418   9.710  0.00  0.00    +0.000 A 
ATOM      2  C   UNL     1      44.003   2.649  10.452  0.00  0.00    +0.000 A 
ATOM      3  C   UNL     1      43.331   3.291  11.467  0.00  0.00    +0.000 A 
ATOM      4  N   UNL     1      43.486   4.593  11.755  0.00  0.00    +0.000 NA
ATOM      5  C   UNL     1      44.359   5.255  10.990  0.00  0.00    +0.000 A 
ATOM      6  N   UNL     1      45.062   4.730   9.975  0.00  0.00    +0.000 NA
ENDROOT
BRANCH   1  10
ATOM      7  C   UNL     1      47.210   1.909   6.400  0.00  0.00    +0.000 A 
ATOM      8  C   UNL     1      46.892   3.260   6.482  0.00  0.00    +0.000 A 
ATOM      9  C   UNL     1      46.135   3.739   7.561  0.00  0.00    +0.000 A 
ATOM     10  C   UNL     1      45.675   2.886   8.584  0.00  0.00    +0.000 A 
ATOM     11  C   UNL     1      46.019   1.528   8.484  0.00  0.00    +0.000 A 
ATOM     12  C   UNL     1      46.774   1.049   7.408  0.00  0.00    +0.000 A 
BRANCH   7  14
ATOM     13  C   UNL     1      47.196   0.590   4.423  0.00  0.00    +0.000 C 
ATOM     14  O   UNL     1      47.931   1.309   5.405  0.00  0.00    +0.000 OA
ENDBRANCH   7  14
ENDBRANCH   1  10
BRANCH   5  15
ATOM     15  O   UNL     1      44.481   6.598  11.266  0.00  0.00    +0.000 OA
BRANCH  15  16
ATOM     16  C   UNL     1      45.202   6.816  12.474  0.00  0.00    +0.000 C 
BRANCH  16  17
ATOM     17  C   UNL     1      46.393   7.700  12.181  0.00  0.00    +0.000 A 
ATOM     18  C   UNL     1      46.280   9.098  12.239  0.00  0.00    +0.000 A 
ATOM     19  C   UNL     1      47.387   9.914  11.992  0.00  0.00    +0.000 A 
ATOM     20  C   UNL     1      48.619   9.340  11.685  0.00  0.00    +0.000 A 
ATOM     21  C   UNL     1      48.732   7.956  11.625  0.00  0.00    +0.000 A 
ATOM     22  F   UNL     1      49.916   7.403  11.330  0.00  0.00    +0.000 F 
ATOM     23  C   UNL     1      47.637   7.134  11.869  0.00  0.00    +0.000 A 
ENDBRANCH  16  17
ENDBRANCH  15  16
ENDBRANCH   5  15
TORSDOF 5
ENDMDL
MODEL 6
REMARK VINA RESULT:    -7.147      1.486      2.185
REMARK INTER + INTRA:          -9.899
REMARK INTER:                  -9.202
REMARK INTRA:                  -0.697
REMARK UNBOUND:                -0.662
REMARK  Name = 
REMARK  6 active torsions:
REMARK  status: ('A' for Active; 'I' for Inactive)
REMARK    1  A    between atoms: C_1  and  O_2
REMARK    2  A    between atoms: O_2  and  C_3
REMARK    3  A    between atoms: C_6  and  C_7
REMARK    4  A    between atoms: C_11  and  O_12
REMARK    5  A    between atoms: O_12  and  C_13
REMARK    6  A    between atoms: C_13  and  C_14
REMARK                            x       y       z     vdW  Elec       q    Type
REMARK                         _______ _______ _______ _____ _____    ______ ____
ROOT
ATOM      1  C   UNL     1      46.982   5.942  12.601  0.00  0.00    +0.000 A 
ATOM      2  C   UNL     1      46.618   5.122  13.654  0.00  0.00    +0.000 A 
ATOM      3  C   UNL     1      45.499   4.343  13.467  0.00  0.00    +0.000 A 
ATOM      4  N   UNL     1      44.772   4.344  12.339  0.00  0.00    +0.000 NA
ATOM      5  C   UNL     1      45.194   5.171  11.379  0.00  0.00    +0.000 A 
ATOM      6  N   UNL     1      46.271   5.968  11.454  0.00  0.00    +0.000 NA
ENDROOT
BRANCH   1  10
ATOM      7  C   UNL     1      50.432   8.537  12.749  0.00  0.00    +0.000 A 
ATOM      8  C   UNL     1      50.031   7.829  13.877  0.00  0.00    +0.000 A 
ATOM      9  C   UNL     1      48.909   6.990  13.818  0.00  0.00    +0.000 A 
ATOM     10  C   UNL     1      48.158   6.835  12.636  0.00  0.00    +0.000 A 
ATOM     11  C   UNL     1      48.589   7.552  11.507  0.00  0.00    +0.000 A 
ATOM     12  C   UNL     1      49.709   8.390  11.566  0.00  0.00    +0.000 A 
BRANCH   7  14
ATOM     13  C   UNL     1      52.068   9.585  11.380  0.00  0.00    +0.000 C 
ATOM     14  O   UNL     1      51.496   9.391  12.668  0.00  0.00    +0.000 OA
ENDBRANCH   7  14
ENDBRANCH   1  10
BRANCH   5  15
ATOM     15  O   UNL     1      44.467   5.135  10.211  0.00  0.00    +0.000 OA
BRANCH  15  16
ATOM     16  C   UNL     1      44.103   3.802   9.867  0.00  0.00    +0.000 C 
BRANCH  16  17
ATOM     17  C   UNL     1      45.107   3.260   8.876  0.00  0.00    +0.000 A 
ATOM     18  C   UNL     1      45.741   4.114   7.959  0.00  0.00    +0.000 A 
ATOM     19  C   UNL     1      46.688   3.617   7.059  0.00  0.00    +0.000 A 
ATOM     20  C   UNL     1      47.011   2.261   7.067  0.00  0.00    +0.000 A 
ATOM     21  C   UNL     1      46.383   1.415   7.973  0.00  0.00    +0.000 A 
ATOM     22  F   UNL     1      46.693   0.111   7.982  0.00  0.00    +0.000 F 
ATOM     23  C   UNL     1      45.439   1.899   8.874  0.00  0.00    +0.000 A 
ENDBRANCH  16  17
ENDBRANCH  15  16
ENDBRANCH   5  15
TORSDOF 5
ENDMDL
MODEL 7
REMARK VINA RESULT:    -6.961      3.067      7.269
REMARK INTER + INTRA:          -9.659
REMARK INTER:                  -9.075
REMARK INTRA:                  -0.584
REMARK UNBOUND:                -0.662
REMARK  Name = 
REMARK  6 active torsions:
REMARK  status: ('A' for Active; 'I' for Inactive)
REMARK    1  A    between atoms: C_1  and  O_2
REMARK    2  A    between atoms: O_2  and  C_3
REMARK    3  A    between atoms: C_6  and  C_7
REMARK    4  A    between atoms: C_11  and  O_12
REMARK    5  A    between atoms: O_12  and  C_13
REMARK    6  A    between atoms: C_13  and  C_14
REMARK                            x       y       z     vdW  Elec       q    Type
REMARK                         _______ _______ _______ _____ _____    ______ ____
ROOT
ATOM      1  C   UNL     1      44.626   4.337  10.773  0.00  0.00    +0.000 A 
ATOM      2  C   UNL     1      43.270   4.294  11.042  0.00  0.00    +0.000 A 
ATOM      3  C   UNL     1      42.862   4.858  12.229  0.00  0.00    +0.000 A 
ATOM      4  N   UNL     1      43.699   5.432  13.107  0.00  0.00    +0.000 NA
ATOM      5  C   UNL     1      44.991   5.422  12.766  0.00  0.00    +0.000 A 
ATOM      6  N   UNL     1      45.495   4.906  11.635  0.00  0.00    +0.000 NA
ENDROOT
BRANCH   1  10
ATOM      7  C   UNL     1      46.404   2.766   7.163  0.00  0.00    +0.000 A 
ATOM      8  C   UNL     1      46.414   4.133   7.419  0.00  0.00    +0.000 A 
ATOM      9  C   UNL     1      45.834   4.632   8.594  0.00  0.00    +0.000 A 
ATOM     10  C   UNL     1      45.228   3.784   9.542  0.00  0.00    +0.000 A 
ATOM     11  C   UNL     1      45.240   2.407   9.266  0.00  0.00    +0.000 A 
ATOM     12  C   UNL     1      45.819   1.908   8.094  0.00  0.00    +0.000 A 
BRANCH   7  14
ATOM     13  C   UNL     1      47.332   0.793   6.216  0.00  0.00    +0.000 C 
ATOM     14  O   UNL     1      46.925   2.147   6.061  0.00  0.00    +0.000 OA
ENDBRANCH   7  14
ENDBRANCH   1  10
BRANCH   5  15
ATOM     15  O   UNL     1      45.837   6.049  13.653  0.00  0.00    +0.000 OA
BRANCH  15  16
ATOM     16  C   UNL     1      47.136   5.467  13.631  0.00  0.00    +0.000 C 
BRANCH  16  17
ATOM     17  C   UNL     1      47.557   5.157  15.050  0.00  0.00    +0.000 A 
ATOM     18  C   UNL     1      48.458   5.992  15.728  0.00  0.00    +0.000 A 
ATOM     19  C   UNL     1      48.828   5.718  17.048  0.00  0.00    +0.000 A 
ATOM     20  C   UNL     1      48.299   4.607  17.702  0.00  0.00    +0.000 A 
ATOM     21  C   UNL     1      47.407   3.780  17.032  0.00  0.00    +0.000 A 
ATOM     22  F   UNL     1      46.897   2.711  17.660  0.00  0.00    +0.000 F 
ATOM     23  C   UNL     1      47.032   4.042  15.718  0.00  0.00    +0.000 A 
ENDBRANCH  16  17
ENDBRANCH  15  16
ENDBRANCH   5  15
TORSDOF 5
ENDMDL
MODEL 8
REMARK VINA RESULT:    -6.925      2.923      7.215
REMARK INTER + INTRA:          -9.612
REMARK INTER:                  -9.206
REMARK INTRA:                  -0.406
REMARK UNBOUND:                -0.662
REMARK  Name = 
REMARK  6 active torsions:
REMARK  status: ('A' for Active; 'I' for Inactive)
REMARK    1  A    between atoms: C_1  and  O_2
REMARK    2  A    between atoms: O_2  and  C_3
REMARK    3  A    between atoms: C_6  and  C_7
REMARK    4  A    between atoms: C_11  and  O_12
REMARK    5  A    between atoms: O_12  and  C_13
REMARK    6  A    between atoms: C_13  and  C_14
REMARK                            x       y       z     vdW  Elec       q    Type
REMARK                         _______ _______ _______ _____ _____    ______ ____
ROOT
ATOM      1  C   UNL     1      45.104   3.419   9.263  0.00  0.00    +0.000 A 
ATOM      2  C   UNL     1      44.001   4.228   9.059  0.00  0.00    +0.000 A 
ATOM      3  C   UNL     1      43.419   4.767  10.183  0.00  0.00    +0.000 A 
ATOM      4  N   UNL     1      43.866   4.550  11.429  0.00  0.00    +0.000 NA
ATOM      5  C   UNL     1      44.933   3.752  11.531  0.00  0.00    +0.000 A 
ATOM      6  N   UNL     1      45.579   3.180  10.504  0.00  0.00    +0.000 NA
ENDROOT
BRANCH   1  10
ATOM      7  C   UNL     1      47.278   1.473   6.078  0.00  0.00    +0.000 A 
ATOM      8  C   UNL     1      46.965   0.783   7.245  0.00  0.00    +0.000 A 
ATOM      9  C   UNL     1      46.259   1.425   8.272  0.00  0.00    +0.000 A 
ATOM     10  C   UNL     1      45.849   2.769   8.165  0.00  0.00    +0.000 A 
ATOM     11  C   UNL     1      46.168   3.441   6.974  0.00  0.00    +0.000 A 
ATOM     12  C   UNL     1      46.872   2.800   5.948  0.00  0.00    +0.000 A 
BRANCH   7  14
ATOM     13  C   UNL     1      47.191   0.557   3.887  0.00  0.00    +0.000 C 
ATOM     14  O   UNL     1      47.964   0.974   5.006  0.00  0.00    +0.000 OA
ENDBRANCH   7  14
ENDBRANCH   1  10
BRANCH   5  15
ATOM     15  O   UNL     1      45.409   3.568  12.809  0.00  0.00    +0.000 OA
BRANCH  15  16
ATOM     16  C   UNL     1      45.193   4.722  13.615  0.00  0.00    +0.000 C 
BRANCH  16  17
ATOM     17  C   UNL     1      46.183   5.792  13.213  0.00  0.00    +0.000 A 
ATOM     18  C   UNL     1      47.563   5.536  13.237  0.00  0.00    +0.000 A 
ATOM     19  C   UNL     1      48.477   6.517  12.843  0.00  0.00    +0.000 A 
ATOM     20  C   UNL     1      48.020   7.763  12.420  0.00  0.00    +0.000 A 
ATOM     21  C   UNL     1      46.654   8.018  12.396  0.00  0.00    +0.000 A 
ATOM     22  F   UNL     1      46.213   9.217  11.990  0.00  0.00    +0.000 F 
ATOM     23  C   UNL     1      45.735   7.050  12.787  0.00  0.00    +0.000 A 
ENDBRANCH  16  17
ENDBRANCH  15  16
ENDBRANCH   5  15
TORSDOF 5
ENDMDL
MODEL 9
REMARK VINA RESULT:    -6.792      2.721      6.918
REMARK INTER + INTRA:          -9.440
REMARK INTER:                  -8.746
REMARK INTRA:                  -0.694
REMARK UNBOUND:                -0.662
REMARK  Name = 
REMARK  6 active torsions:
REMARK  status: ('A' for Active; 'I' for Inactive)
REMARK    1  A    between atoms: C_1  and  O_2
REMARK    2  A    between atoms: O_2  and  C_3
REMARK    3  A    between atoms: C_6  and  C_7
REMARK    4  A    between atoms: C_11  and  O_12
REMARK    5  A    between atoms: O_12  and  C_13
REMARK    6  A    between atoms: C_13  and  C_14
REMARK                            x       y       z     vdW  Elec       q    Type
REMARK                         _______ _______ _______ _____ _____    ______ ____
ROOT
ATOM      1  C   UNL     1      44.553   4.307  10.881  0.00  0.00    +0.000 A 
ATOM      2  C   UNL     1      43.196   4.527  11.032  0.00  0.00    +0.000 A 
ATOM      3  C   UNL     1      42.789   5.041  12.242  0.00  0.00    +0.000 A 
ATOM      4  N   UNL     1      43.629   5.331  13.248  0.00  0.00    +0.000 NA
ATOM      5  C   UNL     1      44.920   5.080  13.014  0.00  0.00    +0.000 A 
ATOM      6  N   UNL     1      45.424   4.587  11.874  0.00  0.00    +0.000 NA
ENDROOT
BRANCH   1  10
ATOM      7  C   UNL     1      46.332   2.773   7.255  0.00  0.00    +0.000 A 
ATOM      8  C   UNL     1      46.319   4.140   7.513  0.00  0.00    +0.000 A 
ATOM      9  C   UNL     1      45.738   4.627   8.693  0.00  0.00    +0.000 A 
ATOM     10  C   UNL     1      45.156   3.766   9.645  0.00  0.00    +0.000 A 
ATOM     11  C   UNL     1      45.190   2.390   9.367  0.00  0.00    +0.000 A 
ATOM     12  C   UNL     1      45.770   1.904   8.190  0.00  0.00    +0.000 A 
BRANCH   7  14
ATOM     13  C   UNL     1      47.379   0.855   6.322  0.00  0.00    +0.000 C 
ATOM     14  O   UNL     1      46.855   2.166   6.148  0.00  0.00    +0.000 OA
ENDBRANCH   7  14
ENDBRANCH   1  10
BRANCH   5  15
ATOM     15  O   UNL     1      45.778   5.419  14.036  0.00  0.00    +0.000 OA
BRANCH  15  16
ATOM     16  C   UNL     1      47.124   5.079  13.718  0.00  0.00    +0.000 C 
BRANCH  16  17
ATOM     17  C   UNL     1      47.944   6.347  13.640  0.00  0.00    +0.000 A 
ATOM     18  C   UNL     1      48.495   6.915  14.799  0.00  0.00    +0.000 A 
ATOM     19  C   UNL     1      49.273   8.074  14.724  0.00  0.00    +0.000 A 
ATOM     20  C   UNL     1      49.509   8.674  13.488  0.00  0.00    +0.000 A 
ATOM     21  C   UNL     1      48.963   8.113  12.340  0.00  0.00    +0.000 A 
ATOM     22  F   UNL     1      49.188   8.690  11.152  0.00  0.00    +0.000 F 
ATOM     23  C   UNL     1      48.186   6.961  12.404  0.00  0.00    +0.000 A 
ENDBRANCH  16  17
ENDBRANCH  15  16
ENDBRANCH   5  15
TORSDOF 5
ENDMDL
