MODEL 1
REMARK VINA RESULT:    -7.859      0.000      0.000
REMARK INTER + INTRA:         -12.137
REMARK INTER:                 -11.305
REMARK INTRA:                  -0.832
REMARK UNBOUND:                -0.832
REMARK  Name = 
REMARK  8 active torsions:
REMARK  status: ('A' for Active; 'I' for Inactive)
REMARK    1  A    between atoms: C_2  and  C_21
REMARK    2  A    between atoms: N_3  and  C_4
REMARK    3  A    between atoms: C_4  and  C_5
REMARK    4  A    between atoms: C_8  and  C_9
REMARK    5  A    between atoms: C_9  and  C_10
REMARK    6  A    between atoms: C_10  and  N_11
REMARK    7  A    between atoms: C_14  and  C_15
REMARK    8  A    between atoms: C_15  and  O_16
REMARK                            x       y       z     vdW  Elec       q    Type
REMARK                         _______ _______ _______ _____ _____    ______ ____
ROOT
ATOM      1  C   UNL     1      46.027   6.113  11.896  0.00  0.00    +0.000 A 
ATOM      2  C   UNL     1      45.515   4.988  12.547  0.00  0.00    +0.000 A 
ATOM      3  C   UNL     1      44.913   3.964  11.824  0.00  0.00    +0.000 A 
ATOM      4  C   UNL     1      44.825   4.045  10.427  0.00  0.00    +0.000 A 
ATOM      5  C   UNL     1      45.369   5.162   9.776  0.00  0.00    +0.000 A 
ATOM      6  C   UNL     1      45.963   6.192  10.500  0.00  0.00    +0.000 A 
ENDROOT
BRANCH   1   7
ATOM      7  C   UNL     1      46.657   7.212  12.698  0.00  0.00    +0.000 C 
BRANCH   7  10
ATOM      8  O   UNL     1      49.265   6.738  13.578  0.00  0.00    +0.000 OA
ATOM      9  C   UNL     1      48.324   6.615  14.371  0.00  0.00    +0.000 C 
ATOM     10  N   UNL     1      47.015   6.780  14.016  0.00  0.00    +0.000 N 
ATOM     11  H   UNL     1      46.323   6.944  14.734  0.00  0.00    +0.000 HD
BRANCH   9  12
ATOM     12  C   UNL     1      48.538   6.229  15.757  0.00  0.00    +0.000 A 
ATOM     13  C   UNL     1      49.107   7.075  16.695  0.00  0.00    +0.000 A 
ATOM     14  S   UNL     1      49.211   6.365  18.250  0.00  0.00    +0.000 S 
ATOM     15  C   UNL     1      48.495   4.922  17.700  0.00  0.00    +0.000 A 
ATOM     16  N   UNL     1      48.280   3.864  18.531  0.00  0.00    +0.000 NA
ATOM     17  C   UNL     1      47.721   2.849  17.971  0.00  0.00    +0.000 A 
ATOM     18  N   UNL     1      47.347   2.784  16.649  0.00  0.00    +0.000 N 
ATOM     19  C   UNL     1      47.595   3.788  15.770  0.00  0.00    +0.000 A 
ATOM     20  O   UNL     1      47.378   3.618  14.559  0.00  0.00    +0.000 OA
ATOM     21  C   UNL     1      48.195   4.967  16.353  0.00  0.00    +0.000 A 
ATOM     22  H   UNL     1      46.949   1.942  16.258  0.00  0.00    +0.000 HD
ENDBRANCH   9  12
ENDBRANCH   7  10
ENDBRANCH   1   7
BRANCH   4  23
ATOM     23  C   UNL     1      44.259   2.933   9.578  0.00  0.00    +0.000 C 
BRANCH  23  24
ATOM     24  C   UNL     1      45.266   1.863   9.124  0.00  0.00    +0.000 C 
BRANCH  24  25
ATOM     25  N   UNL     1      46.297   2.312   8.167  0.00  0.00    +0.000 NA
ATOM     26  C   UNL     1      47.090   1.202   7.615  0.00  0.00    +0.000 C 
ATOM     27  C   UNL     1      48.129   1.692   6.608  0.00  0.00    +0.000 C 
ATOM     28  C   UNL     1      47.466   2.461   5.460  0.00  0.00    +0.000 C 
ATOM     29  C   UNL     1      46.649   3.609   6.060  0.00  0.00    +0.000 C 
ATOM     30  C   UNL     1      45.651   3.115   7.110  0.00  0.00    +0.000 C 
BRANCH  28  31
ATOM     31  C   UNL     1      46.594   1.552   4.574  0.00  0.00    +0.000 C 
BRANCH  31  32
ATOM     32  O   UNL     1      47.389   0.583   3.905  0.00  0.00    +0.000 OA
ATOM     33  H   UNL     1      47.945   1.054   3.262  0.00  0.00    +0.000 HD
ENDBRANCH  31  32
ENDBRANCH  28  31
ENDBRANCH  24  25
ENDBRANCH  23  24
ENDBRANCH   4  23
TORSDOF 8
ENDMDL
MODEL 2
REMARK VINA RESULT:    -7.196      1.861      2.564
REMARK INTER + INTRA:         -11.183
REMARK INTER:                 -10.334
REMARK INTRA:                  -0.849
REMARK UNBOUND:                -0.832
REMARK  Name = 
REMARK  8 active torsions:
REMARK  status: ('A' for Active; 'I' for Inactive)
REMARK    1  A    between atoms: C_2  and  C_21
REMARK    2  A    between atoms: N_3  and  C_4
REMARK    3  A    between atoms: C_4  and  C_5
REMARK    4  A    between atoms: C_8  and  C_9
REMARK    5  A    between atoms: C_9  and  C_10
REMARK    6  A    between atoms: C_10  and  N_11
REMARK    7  A    between atoms: C_14  and  C_15
REMARK    8  A    between atoms: C_15  and  O_16
REMARK                            x       y       z     vdW  Elec       q    Type
REMARK                         _______ _______ _______ _____ _____    ______ ____
ROOT
ATOM      1  C   UNL     1      46.597   5.785  12.668  0.00  0.00    +0.000 A 
ATOM      2  C   UNL     1      46.269   4.543  13.217  0.00  0.00    +0.000 A 
ATOM      3  C   UNL     1      45.460   3.651  12.520  0.00  0.00    +0.000 A 
ATOM      4  C   UNL     1      44.974   3.986  11.249  0.00  0.00    +0.000 A 
ATOM      5  C   UNL     1      45.333   5.221  10.689  0.00  0.00    +0.000 A 
ATOM      6  C   UNL     1      46.134   6.118  11.389  0.00  0.00    +0.000 A 
ENDROOT
BRANCH   1   7
ATOM      7  C   UNL     1      47.457   6.737  13.444  0.00  0.00    +0.000 C 
BRANCH   7  10
ATOM      8  O   UNL     1      49.843   6.841  14.892  0.00  0.00    +0.000 OA
ATOM      9  C   UNL     1      48.808   6.461  15.452  0.00  0.00    +0.000 C 
ATOM     10  N   UNL     1      47.609   6.333  14.810  0.00  0.00    +0.000 N 
ATOM     11  H   UNL     1      46.758   6.293  15.353  0.00  0.00    +0.000 HD
BRANCH   9  12
ATOM     12  C   UNL     1      48.798   6.065  16.851  0.00  0.00    +0.000 A 
ATOM     13  C   UNL     1      49.042   4.766  17.268  0.00  0.00    +0.000 A 
ATOM     14  S   UNL     1      48.992   4.597  18.971  0.00  0.00    +0.000 S 
ATOM     15  C   UNL     1      48.651   6.251  19.181  0.00  0.00    +0.000 A 
ATOM     16  N   UNL     1      48.479   6.798  20.417  0.00  0.00    +0.000 NA
ATOM     17  C   UNL     1      48.238   8.062  20.413  0.00  0.00    +0.000 A 
ATOM     18  N   UNL     1      48.151   8.845  19.286  0.00  0.00    +0.000 N 
ATOM     19  C   UNL     1      48.256   8.335  18.032  0.00  0.00    +0.000 A 
ATOM     20  O   UNL     1      48.018   9.056  17.050  0.00  0.00    +0.000 OA
ATOM     21  C   UNL     1      48.558   6.922  17.979  0.00  0.00    +0.000 A 
ATOM     22  H   UNL     1      47.918   9.826  19.347  0.00  0.00    +0.000 HD
ENDBRANCH   9  12
ENDBRANCH   7  10
ENDBRANCH   1   7
BRANCH   4  23
ATOM     23  C   UNL     1      44.162   3.032  10.407  0.00  0.00    +0.000 C 
BRANCH  23  24
ATOM     24  C   UNL     1      44.429   3.086   8.893  0.00  0.00    +0.000 C 
BRANCH  24  25
ATOM     25  N   UNL     1      45.787   2.693   8.465  0.00  0.00    +0.000 NA
ATOM     26  C   UNL     1      45.869   1.285   8.044  0.00  0.00    +0.000 C 
ATOM     27  C   UNL     1      47.276   0.912   7.580  0.00  0.00    +0.000 C 
ATOM     28  C   UNL     1      47.735   1.813   6.428  0.00  0.00    +0.000 C 
ATOM     29  C   UNL     1      47.640   3.270   6.891  0.00  0.00    +0.000 C 
ATOM     30  C   UNL     1      46.243   3.617   7.409  0.00  0.00    +0.000 C 
BRANCH  28  31
ATOM     31  C   UNL     1      46.922   1.577   5.142  0.00  0.00    +0.000 C 
BRANCH  31  32
ATOM     32  O   UNL     1      47.411   0.448   4.433  0.00  0.00    +0.000 OA
ATOM     33  H   UNL     1      48.360   0.590   4.274  0.00  0.00    +0.000 HD
ENDBRANCH  31  32
ENDBRANCH  28  31
ENDBRANCH  24  25
ENDBRANCH  23  24
ENDBRANCH   4  23
TORSDOF 8
ENDMDL
MODEL 3
REMARK VINA RESULT:    -7.168      3.628      5.896
REMARK INTER + INTRA:         -11.142
REMARK INTER:                 -10.316
REMARK INTRA:                  -0.826
REMARK UNBOUND:                -0.832
REMARK  Name = 
REMARK  8 active torsions:
REMARK  status: ('A' for Active; 'I' for Inactive)
REMARK    1  A    between atoms: C_2  and  C_21
REMARK    2  A    between atoms: N_3  and  C_4
REMARK    3  A    between atoms: C_4  and  C_5
REMARK    4  A    between atoms: C_8  and  C_9
REMARK    5  A    between atoms: C_9  and  C_10
REMARK    6  A    between atoms: C_10  and  N_11
REMARK    7  A    between atoms: C_14  and  C_15
REMARK    8  A    between atoms: C_15  and  O_16
REMARK                            x       y       z     vdW  Elec       q    Type
REMARK                         _______ _______ _______ _____ _____    ______ ____
ROOT
ATOM      1  C   UNL     1      47.633   4.134  16.131  0.00  0.00    +0.000 A 
ATOM      2  C   UNL     1      48.168   5.424  16.153  0.00  0.00    +0.000 A 
ATOM      3  C   UNL     1      48.096   6.241  15.030  0.00  0.00    +0.000 A 
ATOM      4  C   UNL     1      47.472   5.781  13.862  0.00  0.00    +0.000 A 
ATOM      5  C   UNL     1      46.908   4.497  13.856  0.00  0.00    +0.000 A 
ATOM      6  C   UNL     1      46.987   3.675  14.976  0.00  0.00    +0.000 A 
ENDROOT
BRANCH   1   7
ATOM      7  C   UNL     1      47.736   3.265  17.348  0.00  0.00    +0.000 C 
BRANCH   7  10
ATOM      8  O   UNL     1      49.530   1.668  15.924  0.00  0.00    +0.000 OA
ATOM      9  C   UNL     1      49.916   2.259  16.939  0.00  0.00    +0.000 C 
ATOM     10  N   UNL     1      49.097   3.022  17.722  0.00  0.00    +0.000 N 
ATOM     11  H   UNL     1      49.504   3.693  18.359  0.00  0.00    +0.000 HD
BRANCH   9  12
ATOM     12  C   UNL     1      51.286   2.147  17.414  0.00  0.00    +0.000 A 
ATOM     13  C   UNL     1      51.913   0.928  17.624  0.00  0.00    +0.000 A 
ATOM     14  S   UNL     1      53.530   1.099  18.158  0.00  0.00    +0.000 S 
ATOM     15  C   UNL     1      53.425   2.798  18.114  0.00  0.00    +0.000 A 
ATOM     16  N   UNL     1      54.475   3.592  18.459  0.00  0.00    +0.000 NA
ATOM     17  C   UNL     1      54.245   4.855  18.363  0.00  0.00    +0.000 A 
ATOM     18  N   UNL     1      53.057   5.411  17.951  0.00  0.00    +0.000 N 
ATOM     19  C   UNL     1      51.964   4.662  17.655  0.00  0.00    +0.000 A 
ATOM     20  O   UNL     1      50.875   5.217  17.437  0.00  0.00    +0.000 OA
ATOM     21  C   UNL     1      52.177   3.233  17.716  0.00  0.00    +0.000 A 
ATOM     22  H   UNL     1      52.925   6.412  17.936  0.00  0.00    +0.000 HD
ENDBRANCH   9  12
ENDBRANCH   7  10
ENDBRANCH   1   7
BRANCH   4  23
ATOM     23  C   UNL     1      47.287   6.645  12.639  0.00  0.00    +0.000 C 
BRANCH  23  24
ATOM     24  C   UNL     1      45.894   7.275  12.472  0.00  0.00    +0.000 C 
BRANCH  24  25
ATOM     25  N   UNL     1      44.978   6.575  11.548  0.00  0.00    +0.000 NA
ATOM     26  C   UNL     1      45.664   5.586  10.701  0.00  0.00    +0.000 C 
ATOM     27  C   UNL     1      44.690   4.859   9.775  0.00  0.00    +0.000 C 
ATOM     28  C   UNL     1      43.584   4.162  10.574  0.00  0.00    +0.000 C 
ATOM     29  C   UNL     1      42.887   5.211  11.446  0.00  0.00    +0.000 C 
ATOM     30  C   UNL     1      43.878   5.975  12.327  0.00  0.00    +0.000 C 
BRANCH  28  31
ATOM     31  C   UNL     1      44.122   2.994  11.422  0.00  0.00    +0.000 C 
BRANCH  31  32
ATOM     32  O   UNL     1      43.100   2.043  11.680  0.00  0.00    +0.000 OA
ATOM     33  H   UNL     1      43.531   1.194  11.876  0.00  0.00    +0.000 HD
ENDBRANCH  31  32
ENDBRANCH  28  31
ENDBRANCH  24  25
ENDBRANCH  23  24
ENDBRANCH   4  23
TORSDOF 8
ENDMDL
MODEL 4
REMARK VINA RESULT:    -7.097      3.236      9.098
REMARK INTER + INTRA:         -11.040
REMARK INTER:                  -9.779
REMARK INTRA:                  -1.261
REMARK UNBOUND:                -0.832
REMARK  Name = 
REMARK  8 active torsions:
REMARK  status: ('A' for Active; 'I' for Inactive)
REMARK    1  A    between atoms: C_2  and  C_21
REMARK    2  A    between atoms: N_3  and  C_4
REMARK    3  A    between atoms: C_4  and  C_5
REMARK    4  A    between atoms: C_8  and  C_9
REMARK    5  A    between atoms: C_9  and  C_10
REMARK    6  A    between atoms: C_10  and  N_11
REMARK    7  A    between atoms: C_14  and  C_15
REMARK    8  A    between atoms: C_15  and  O_16
REMARK                            x       y       z     vdW  Elec       q    Type
REMARK                         _______ _______ _______ _____ _____    ______ ____
ROOT
ATOM      1  C   UNL     1      48.313   7.947  13.264  0.00  0.00    +0.000 A 
ATOM      2  C   UNL     1      49.575   7.391  13.485  0.00  0.00    +0.000 A 
ATOM      3  C   UNL     1      50.213   7.547  14.711  0.00  0.00    +0.000 A 
ATOM      4  C   UNL     1      49.588   8.257  15.745  0.00  0.00    +0.000 A 
ATOM      5  C   UNL     1      48.307   8.787  15.528  0.00  0.00    +0.000 A 
ATOM      6  C   UNL     1      47.672   8.639  14.299  0.00  0.00    +0.000 A 
ENDROOT
BRANCH   1   7
ATOM      7  C   UNL     1      47.650   7.780  11.929  0.00  0.00    +0.000 C 
BRANCH   7  10
ATOM      8  O   UNL     1      44.879   7.622  11.623  0.00  0.00    +0.000 OA
ATOM      9  C   UNL     1      45.547   6.582  11.656  0.00  0.00    +0.000 C 
ATOM     10  N   UNL     1      46.899   6.563  11.850  0.00  0.00    +0.000 N 
ATOM     11  H   UNL     1      47.425   5.738  11.595  0.00  0.00    +0.000 HD
BRANCH   9  12
ATOM     12  C   UNL     1      44.927   5.271  11.539  0.00  0.00    +0.000 A 
ATOM     13  C   UNL     1      44.228   4.674  12.576  0.00  0.00    +0.000 A 
ATOM     14  S   UNL     1      43.585   3.146  12.146  0.00  0.00    +0.000 S 
ATOM     15  C   UNL     1      44.222   3.259  10.571  0.00  0.00    +0.000 A 
ATOM     16  N   UNL     1      44.043   2.270   9.652  0.00  0.00    +0.000 NA
ATOM     17  C   UNL     1      44.574   2.506   8.503  0.00  0.00    +0.000 A 
ATOM     18  N   UNL     1      45.273   3.644   8.176  0.00  0.00    +0.000 N 
ATOM     19  C   UNL     1      45.528   4.628   9.075  0.00  0.00    +0.000 A 
ATOM     20  O   UNL     1      46.292   5.559   8.773  0.00  0.00    +0.000 OA
ATOM     21  C   UNL     1      44.927   4.428  10.375  0.00  0.00    +0.000 A 
ATOM     22  H   UNL     1      45.702   3.752   7.268  0.00  0.00    +0.000 HD
ENDBRANCH   9  12
ENDBRANCH   7  10
ENDBRANCH   1   7
BRANCH   4  23
ATOM     23  C   UNL     1      50.189   8.392  17.123  0.00  0.00    +0.000 C 
BRANCH  23  24
ATOM     24  C   UNL     1      51.162   7.276  17.538  0.00  0.00    +0.000 C 
BRANCH  24  25
ATOM     25  N   UNL     1      50.566   6.145  18.278  0.00  0.00    +0.000 NA
ATOM     26  C   UNL     1      49.250   6.466  18.854  0.00  0.00    +0.000 C 
ATOM     27  C   UNL     1      48.645   5.272  19.590  0.00  0.00    +0.000 C 
ATOM     28  C   UNL     1      48.510   4.061  18.660  0.00  0.00    +0.000 C 
ATOM     29  C   UNL     1      49.890   3.748  18.076  0.00  0.00    +0.000 C 
ATOM     30  C   UNL     1      50.513   4.966  17.391  0.00  0.00    +0.000 C 
BRANCH  28  31
ATOM     31  C   UNL     1      47.467   4.290  17.550  0.00  0.00    +0.000 C 
BRANCH  31  32
ATOM     32  O   UNL     1      46.508   3.242  17.532  0.00  0.00    +0.000 OA
ATOM     33  H   UNL     1      45.939   3.352  18.311  0.00  0.00    +0.000 HD
ENDBRANCH  31  32
ENDBRANCH  28  31
ENDBRANCH  24  25
ENDBRANCH  23  24
ENDBRANCH   4  23
TORSDOF 8
ENDMDL
MODEL 5
REMARK VINA RESULT:    -7.082      2.889      4.449
REMARK INTER + INTRA:         -11.019
REMARK INTER:                  -9.983
REMARK INTRA:                  -1.036
REMARK UNBOUND:                -0.832
REMARK  Name = 
REMARK  8 active torsions:
REMARK  status: ('A' for Active; 'I' for Inactive)
REMARK    1  A    between atoms: C_2  and  C_21
REMARK    2  A    between atoms: N_3  and  C_4
REMARK    3  A    between atoms: C_4  and  C_5
REMARK    4  A    between atoms: C_8  and  C_9
REMARK    5  A    between atoms: C_9  and  C_10
REMARK    6  A    between atoms: C_10  and  N_11
REMARK    7  A    between atoms: C_14  and  C_15
REMARK    8  A    between atoms: C_15  and  O_16
REMARK                            x       y       z     vdW  Elec       q    Type
REMARK                         _______ _______ _______ _____ _____    ______ ____
ROOT
ATOM      1  C   UNL     1      46.325   5.201  12.912  0.00  0.00    +0.000 A 
ATOM      2  C   UNL     1      46.075   5.900  11.729  0.00  0.00    +0.000 A 
ATOM      3  C   UNL     1      45.375   5.302  10.687  0.00  0.00    +0.000 A 
ATOM      4  C   UNL     1      44.899   3.990  10.819  0.00  0.00    +0.000 A 
ATOM      5  C   UNL     1      45.126   3.304  12.021  0.00  0.00    +0.000 A 
ATOM      6  C   UNL     1      45.835   3.898  13.061  0.00  0.00    +0.000 A 
ENDROOT
BRANCH   1   7
ATOM      7  C   UNL     1      47.097   5.860  14.016  0.00  0.00    +0.000 C 
BRANCH   7  10
ATOM      8  O   UNL     1      49.536   6.810  13.041  0.00  0.00    +0.000 OA
ATOM      9  C   UNL     1      48.599   7.599  13.208  0.00  0.00    +0.000 C 
ATOM     10  N   UNL     1      47.389   7.232  13.724  0.00  0.00    +0.000 N 
ATOM     11  H   UNL     1      46.586   7.830  13.583  0.00  0.00    +0.000 HD
BRANCH   9  12
ATOM     12  C   UNL     1      48.731   9.017  12.908  0.00  0.00    +0.000 A 
ATOM     13  C   UNL     1      48.776   9.512  11.614  0.00  0.00    +0.000 A 
ATOM     14  S   UNL     1      48.909  11.218  11.563  0.00  0.00    +0.000 S 
ATOM     15  C   UNL     1      48.903  11.325  13.262  0.00  0.00    +0.000 A 
ATOM     16  N   UNL     1      48.992  12.522  13.907  0.00  0.00    +0.000 NA
ATOM     17  C   UNL     1      48.964  12.441  15.190  0.00  0.00    +0.000 A 
ATOM     18  N   UNL     1      48.852  11.271  15.905  0.00  0.00    +0.000 N 
ATOM     19  C   UNL     1      48.821  10.051  15.309  0.00  0.00    +0.000 A 
ATOM     20  O   UNL     1      48.875   9.023  16.002  0.00  0.00    +0.000 OA
ATOM     21  C   UNL     1      48.819  10.086  13.863  0.00  0.00    +0.000 A 
ATOM     22  H   UNL     1      48.877  11.269  16.914  0.00  0.00    +0.000 HD
ENDBRANCH   9  12
ENDBRANCH   7  10
ENDBRANCH   1   7
BRANCH   4  23
ATOM     23  C   UNL     1      44.062   3.314   9.761  0.00  0.00    +0.000 C 
BRANCH  23  24
ATOM     24  C   UNL     1      44.704   2.090   9.085  0.00  0.00    +0.000 C 
BRANCH  24  25
ATOM     25  N   UNL     1      45.952   2.347   8.339  0.00  0.00    +0.000 NA
ATOM     26  C   UNL     1      46.568   1.118   7.813  0.00  0.00    +0.000 C 
ATOM     27  C   UNL     1      47.842   1.414   7.024  0.00  0.00    +0.000 C 
ATOM     28  C   UNL     1      47.563   2.377   5.865  0.00  0.00    +0.000 C 
ATOM     29  C   UNL     1      46.923   3.646   6.438  0.00  0.00    +0.000 C 
ATOM     30  C   UNL     1      45.681   3.333   7.276  0.00  0.00    +0.000 C 
BRANCH  28  31
ATOM     31  C   UNL     1      46.676   1.743   4.777  0.00  0.00    +0.000 C 
BRANCH  31  32
ATOM     32  O   UNL     1      47.455   0.965   3.879  0.00  0.00    +0.000 OA
ATOM     33  H   UNL     1      47.762   0.180   4.362  0.00  0.00    +0.000 HD
ENDBRANCH  31  32
ENDBRANCH  28  31
ENDBRANCH  24  25
ENDBRANCH  23  24
ENDBRANCH   4  23
TORSDOF 8
ENDMDL
MODEL 6
REMARK VINA RESULT:    -7.069      3.932      8.681
REMARK INTER + INTRA:         -11.000
REMARK INTER:                  -9.911
REMARK INTRA:                  -1.089
REMARK UNBOUND:                -0.832
REMARK  Name = 
REMARK  8 active torsions:
REMARK  status: ('A' for Active; 'I' for Inactive)
REMARK    1  A    between atoms: C_2  and  C_21
REMARK    2  A    between atoms: N_3  and  C_4
REMARK    3  A    between atoms: C_4  and  C_5
REMARK    4  A    between atoms: C_8  and  C_9
REMARK    5  A    between atoms: C_9  and  C_10
REMARK    6  A    between atoms: C_10  and  N_11
REMARK    7  A    between atoms: C_14  and  C_15
REMARK    8  A    between atoms: C_15  and  O_16
REMARK                            x       y       z     vdW  Elec       q    Type
REMARK                         _______ _______ _______ _____ _____    ______ ____
ROOT
ATOM      1  C   UNL     1      48.266   8.038  13.413  0.00  0.00    +0.000 A 
ATOM      2  C   UNL     1      48.480   6.790  14.003  0.00  0.00    +0.000 A 
ATOM      3  C   UNL     1      48.716   6.684  15.370  0.00  0.00    +0.000 A 
ATOM      4  C   UNL     1      48.729   7.832  16.174  0.00  0.00    +0.000 A 
ATOM      5  C   UNL     1      48.482   9.079  15.582  0.00  0.00    +0.000 A 
ATOM      6  C   UNL     1      48.255   9.187  14.213  0.00  0.00    +0.000 A 
ENDROOT
BRANCH   1   7
ATOM      7  C   UNL     1      48.029   8.130  11.936  0.00  0.00    +0.000 C 
BRANCH   7  10
ATOM      8  O   UNL     1      45.280   7.884  11.507  0.00  0.00    +0.000 OA
ATOM      9  C   UNL     1      46.029   6.948  11.203  0.00  0.00    +0.000 C 
ATOM     10  N   UNL     1      47.377   6.963  11.421  0.00  0.00    +0.000 N 
ATOM     11  H   UNL     1      47.968   6.317  10.916  0.00  0.00    +0.000 HD
BRANCH   9  12
ATOM     12  C   UNL     1      45.516   5.716  10.625  0.00  0.00    +0.000 A 
ATOM     13  C   UNL     1      45.742   5.351   9.307  0.00  0.00    +0.000 A 
ATOM     14  S   UNL     1      45.043   3.840   8.909  0.00  0.00    +0.000 S 
ATOM     15  C   UNL     1      44.432   3.644  10.486  0.00  0.00    +0.000 A 
ATOM     16  N   UNL     1      43.714   2.545  10.847  0.00  0.00    +0.000 NA
ATOM     17  C   UNL     1      43.330   2.536  12.075  0.00  0.00    +0.000 A 
ATOM     18  N   UNL     1      43.597   3.527  12.992  0.00  0.00    +0.000 N 
ATOM     19  C   UNL     1      44.256   4.667  12.664  0.00  0.00    +0.000 A 
ATOM     20  O   UNL     1      44.336   5.594  13.486  0.00  0.00    +0.000 OA
ATOM     21  C   UNL     1      44.737   4.715  11.301  0.00  0.00    +0.000 A 
ATOM     22  H   UNL     1      43.232   3.482  13.932  0.00  0.00    +0.000 HD
ENDBRANCH   9  12
ENDBRANCH   7  10
ENDBRANCH   1   7
BRANCH   4  23
ATOM     23  C   UNL     1      48.897   7.777  17.673  0.00  0.00    +0.000 C 
BRANCH  23  24
ATOM     24  C   UNL     1      50.163   7.065  18.177  0.00  0.00    +0.000 C 
BRANCH  24  25
ATOM     25  N   UNL     1      50.000   5.643  18.543  0.00  0.00    +0.000 NA
ATOM     26  C   UNL     1      48.631   5.317  18.977  0.00  0.00    +0.000 C 
ATOM     27  C   UNL     1      48.483   3.837  19.324  0.00  0.00    +0.000 C 
ATOM     28  C   UNL     1      48.862   2.950  18.133  0.00  0.00    +0.000 C 
ATOM     29  C   UNL     1      50.288   3.308  17.702  0.00  0.00    +0.000 C 
ATOM     30  C   UNL     1      50.441   4.803  17.413  0.00  0.00    +0.000 C 
BRANCH  28  31
ATOM     31  C   UNL     1      47.870   3.085  16.963  0.00  0.00    +0.000 C 
BRANCH  31  32
ATOM     32  O   UNL     1      46.530   3.087  17.433  0.00  0.00    +0.000 OA
ATOM     33  H   UNL     1      46.285   4.009  17.619  0.00  0.00    +0.000 HD
ENDBRANCH  31  32
ENDBRANCH  28  31
ENDBRANCH  24  25
ENDBRANCH  23  24
ENDBRANCH   4  23
TORSDOF 8
ENDMDL
MODEL 7
REMARK VINA RESULT:    -6.678      3.538      4.641
REMARK INTER + INTRA:         -10.437
REMARK INTER:                  -9.385
REMARK INTRA:                  -1.053
REMARK UNBOUND:                -0.832
REMARK  Name = 
REMARK  8 active torsions:
REMARK  status: ('A' for Active; 'I' for Inactive)
REMARK    1  A    between atoms: C_2  and  C_21
REMARK    2  A    between atoms: N_3  and  C_4
REMARK    3  A    between atoms: C_4  and  C_5
REMARK    4  A    between atoms: C_8  and  C_9
REMARK    5  A    between atoms: C_9  and  C_10
REMARK    6  A    between atoms: C_10  and  N_11
REMARK    7  A    between atoms: C_14  and  C_15
REMARK    8  A    between atoms: C_15  and  O_16
REMARK                            x       y       z     vdW  Elec       q    Type
REMARK                         _______ _______ _______ _____ _____    ______ ____
ROOT
ATOM      1  C   UNL     1      45.418   6.430  12.363  0.00  0.00    +0.000 A 
ATOM      2  C   UNL     1      45.258   5.275  13.133  0.00  0.00    +0.000 A 
ATOM      3  C   UNL     1      44.937   4.063  12.532  0.00  0.00    +0.000 A 
ATOM      4  C   UNL     1      44.782   3.984  11.141  0.00  0.00    +0.000 A 
ATOM      5  C   UNL     1      44.975   5.140  10.370  0.00  0.00    +0.000 A 
ATOM      6  C   UNL     1      45.287   6.356  10.971  0.00  0.00    +0.000 A 
ENDROOT
BRANCH   1   7
ATOM      7  C   UNL     1      45.748   7.730  13.034  0.00  0.00    +0.000 C 
BRANCH   7  10
ATOM      8  O   UNL     1      47.617   9.392  14.277  0.00  0.00    +0.000 OA
ATOM      9  C   UNL     1      47.700   9.187  13.061  0.00  0.00    +0.000 C 
ATOM     10  N   UNL     1      46.804   8.428  12.363  0.00  0.00    +0.000 N 
ATOM     11  H   UNL     1      47.061   8.067  11.455  0.00  0.00    +0.000 HD
BRANCH   9  12
ATOM     12  C   UNL     1      48.750   9.790  12.255  0.00  0.00    +0.000 A 
ATOM     13  C   UNL     1      48.795  11.145  11.967  0.00  0.00    +0.000 A 
ATOM     14  S   UNL     1      50.155  11.577  11.022  0.00  0.00    +0.000 S 
ATOM     15  C   UNL     1      50.710   9.968  10.985  0.00  0.00    +0.000 A 
ATOM     16  N   UNL     1      51.851   9.616  10.330  0.00  0.00    +0.000 NA
ATOM     17  C   UNL     1      52.145   8.366  10.402  0.00  0.00    +0.000 A 
ATOM     18  N   UNL     1      51.407   7.419  11.072  0.00  0.00    +0.000 N 
ATOM     19  C   UNL     1      50.233   7.710  11.688  0.00  0.00    +0.000 A 
ATOM     20  O   UNL     1      49.530   6.794  12.145  0.00  0.00    +0.000 OA
ATOM     21  C   UNL     1      49.869   9.110  11.664  0.00  0.00    +0.000 A 
ATOM     22  H   UNL     1      51.668   6.444  11.057  0.00  0.00    +0.000 HD
ENDBRANCH   9  12
ENDBRANCH   7  10
ENDBRANCH   1   7
BRANCH   4  23
ATOM     23  C   UNL     1      44.516   2.685  10.421  0.00  0.00    +0.000 C 
BRANCH  23  24
ATOM     24  C   UNL     1      44.586   2.747   8.886  0.00  0.00    +0.000 C 
BRANCH  24  25
ATOM     25  N   UNL     1      45.933   2.611   8.296  0.00  0.00    +0.000 NA
ATOM     26  C   UNL     1      46.244   1.231   7.891  0.00  0.00    +0.000 C 
ATOM     27  C   UNL     1      47.631   1.124   7.260  0.00  0.00    +0.000 C 
ATOM     28  C   UNL     1      47.760   2.050   6.046  0.00  0.00    +0.000 C 
ATOM     29  C   UNL     1      47.432   3.477   6.495  0.00  0.00    +0.000 C 
ATOM     30  C   UNL     1      46.065   3.564   7.177  0.00  0.00    +0.000 C 
BRANCH  28  31
ATOM     31  C   UNL     1      46.863   1.608   4.875  0.00  0.00    +0.000 C 
BRANCH  31  32
ATOM     32  O   UNL     1      47.355   0.415   4.282  0.00  0.00    +0.000 OA
ATOM     33  H   UNL     1      46.673  -0.268   4.387  0.00  0.00    +0.000 HD
ENDBRANCH  31  32
ENDBRANCH  28  31
ENDBRANCH  24  25
ENDBRANCH  23  24
ENDBRANCH   4  23
TORSDOF 8
ENDMDL
MODEL 8
REMARK VINA RESULT:    -6.655      2.297      3.284
REMARK INTER + INTRA:         -10.405
REMARK INTER:                  -9.597
REMARK INTRA:                  -0.808
REMARK UNBOUND:                -0.832
REMARK  Name = 
REMARK  8 active torsions:
REMARK  status: ('A' for Active; 'I' for Inactive)
REMARK    1  A    between atoms: C_2  and  C_21
REMARK    2  A    between atoms: N_3  and  C_4
REMARK    3  A    between atoms: C_4  and  C_5
REMARK    4  A    between atoms: C_8  and  C_9
REMARK    5  A    between atoms: C_9  and  C_10
REMARK    6  A    between atoms: C_10  and  N_11
REMARK    7  A    between atoms: C_14  and  C_15
REMARK    8  A    between atoms: C_15  and  O_16
REMARK                            x       y       z     vdW  Elec       q    Type
REMARK                         _______ _______ _______ _____ _____    ______ ____
ROOT
ATOM      1  C   UNL     1      46.113   4.538  13.255  0.00  0.00    +0.000 A 
ATOM      2  C   UNL     1      46.136   5.657  12.420  0.00  0.00    +0.000 A 
ATOM      3  C   UNL     1      45.619   5.590  11.131  0.00  0.00    +0.000 A 
ATOM      4  C   UNL     1      45.057   4.396  10.658  0.00  0.00    +0.000 A 
ATOM      5  C   UNL     1      45.008   3.284  11.512  0.00  0.00    +0.000 A 
ATOM      6  C   UNL     1      45.533   3.348  12.799  0.00  0.00    +0.000 A 
ENDROOT
BRANCH   1   7
ATOM      7  C   UNL     1      46.690   4.629  14.636  0.00  0.00    +0.000 C 
BRANCH   7  10
ATOM      8  O   UNL     1      48.935   4.934  16.270  0.00  0.00    +0.000 OA
ATOM      9  C   UNL     1      48.513   5.903  15.630  0.00  0.00    +0.000 C 
ATOM     10  N   UNL     1      47.396   5.858  14.845  0.00  0.00    +0.000 N 
ATOM     11  H   UNL     1      47.255   6.569  14.141  0.00  0.00    +0.000 HD
BRANCH   9  12
ATOM     12  C   UNL     1      49.156   7.206  15.703  0.00  0.00    +0.000 A 
ATOM     13  C   UNL     1      49.920   7.727  14.671  0.00  0.00    +0.000 A 
ATOM     14  S   UNL     1      50.532   9.287  15.023  0.00  0.00    +0.000 S 
ATOM     15  C   UNL     1      49.784   9.296  16.553  0.00  0.00    +0.000 A 
ATOM     16  N   UNL     1      49.901  10.353  17.403  0.00  0.00    +0.000 NA
ATOM     17  C   UNL     1      49.270  10.216  18.516  0.00  0.00    +0.000 A 
ATOM     18  N   UNL     1      48.525   9.116  18.870  0.00  0.00    +0.000 N 
ATOM     19  C   UNL     1      48.429   8.014  18.083  0.00  0.00    +0.000 A 
ATOM     20  O   UNL     1      47.873   6.991  18.514  0.00  0.00    +0.000 OA
ATOM     21  C   UNL     1      49.095   8.127  16.804  0.00  0.00    +0.000 A 
ATOM     22  H   UNL     1      48.086   9.050  19.778  0.00  0.00    +0.000 HD
ENDBRANCH   9  12
ENDBRANCH   7  10
ENDBRANCH   1   7
BRANCH   4  23
ATOM     23  C   UNL     1      44.406   4.280   9.301  0.00  0.00    +0.000 C 
BRANCH  23  24
ATOM     24  C   UNL     1      44.591   2.932   8.586  0.00  0.00    +0.000 C 
BRANCH  24  25
ATOM     25  N   UNL     1      45.942   2.666   8.052  0.00  0.00    +0.000 NA
ATOM     26  C   UNL     1      46.195   1.235   7.818  0.00  0.00    +0.000 C 
ATOM     27  C   UNL     1      47.588   0.991   7.240  0.00  0.00    +0.000 C 
ATOM     28  C   UNL     1      47.785   1.761   5.930  0.00  0.00    +0.000 C 
ATOM     29  C   UNL     1      47.517   3.245   6.201  0.00  0.00    +0.000 C 
ATOM     30  C   UNL     1      46.143   3.473   6.833  0.00  0.00    +0.000 C 
BRANCH  28  31
ATOM     31  C   UNL     1      46.892   1.225   4.796  0.00  0.00    +0.000 C 
BRANCH  31  32
ATOM     32  O   UNL     1      47.606   0.310   3.978  0.00  0.00    +0.000 OA
ATOM     33  H   UNL     1      48.274   0.816   3.487  0.00  0.00    +0.000 HD
ENDBRANCH  31  32
ENDBRANCH  28  31
ENDBRANCH  24  25
ENDBRANCH  23  24
ENDBRANCH   4  23
TORSDOF 8
ENDMDL
MODEL 9
REMARK VINA RESULT:    -6.522      4.500      8.473
REMARK INTER + INTRA:         -10.214
REMARK INTER:                  -8.292
REMARK INTRA:                  -1.922
REMARK UNBOUND:                -0.832
REMARK  Name = 
REMARK  8 active torsions:
REMARK  status: ('A' for Active; 'I' for Inactive)
REMARK    1  A    between atoms: C_2  and  C_21
REMARK    2  A    between atoms: N_3  and  C_4
REMARK    3  A    between atoms: C_4  and  C_5
REMARK    4  A    between atoms: C_8  and  C_9
REMARK    5  A    between atoms: C_9  and  C_10
REMARK    6  A    between atoms: C_10  and  N_11
REMARK    7  A    between atoms: C_14  and  C_15
REMARK    8  A    between atoms: C_15  and  O_16
REMARK                            x       y       z     vdW  Elec       q    Type
REMARK                         _______ _______ _______ _____ _____    ______ ____
ROOT
ATOM      1  C   UNL     1      48.958   8.630  15.367  0.00  0.00    +0.000 A 
ATOM      2  C   UNL     1      50.011   7.964  14.736  0.00  0.00    +0.000 A 
ATOM      3  C   UNL     1      50.940   7.244  15.480  0.00  0.00    +0.000 A 
ATOM      4  C   UNL     1      50.820   7.168  16.875  0.00  0.00    +0.000 A 
ATOM      5  C   UNL     1      49.743   7.812  17.499  0.00  0.00    +0.000 A 
ATOM      6  C   UNL     1      48.818   8.541  16.758  0.00  0.00    +0.000 A 
ENDROOT
BRANCH   1   7
ATOM      7  C   UNL     1      47.977   9.414  14.547  0.00  0.00    +0.000 C 
BRANCH   7  10
ATOM      8  O   UNL     1      47.795   8.601  11.882  0.00  0.00    +0.000 OA
ATOM      9  C   UNL     1      46.957   8.201  12.698  0.00  0.00    +0.000 C 
ATOM     10  N   UNL     1      46.941   8.585  14.009  0.00  0.00    +0.000 N 
ATOM     11  H   UNL     1      46.428   8.032  14.682  0.00  0.00    +0.000 HD
BRANCH   9  12
ATOM     12  C   UNL     1      45.873   7.313  12.307  0.00  0.00    +0.000 A 
ATOM     13  C   UNL     1      44.767   7.744  11.591  0.00  0.00    +0.000 A 
ATOM     14  S   UNL     1      43.666   6.479  11.249  0.00  0.00    +0.000 S 
ATOM     15  C   UNL     1      44.646   5.336  12.043  0.00  0.00    +0.000 A 
ATOM     16  N   UNL     1      44.292   4.023  12.131  0.00  0.00    +0.000 NA
ATOM     17  C   UNL     1      45.141   3.281  12.752  0.00  0.00    +0.000 A 
ATOM     18  N   UNL     1      46.322   3.723  13.299  0.00  0.00    +0.000 N 
ATOM     19  C   UNL     1      46.689   5.030  13.290  0.00  0.00    +0.000 A 
ATOM     20  O   UNL     1      47.687   5.397  13.931  0.00  0.00    +0.000 OA
ATOM     21  C   UNL     1      45.784   5.904  12.577  0.00  0.00    +0.000 A 
ATOM     22  H   UNL     1      46.928   3.097  13.812  0.00  0.00    +0.000 HD
ENDBRANCH   9  12
ENDBRANCH   7  10
ENDBRANCH   1   7
BRANCH   4  23
ATOM     23  C   UNL     1      51.745   6.336  17.730  0.00  0.00    +0.000 C 
BRANCH  23  24
ATOM     24  C   UNL     1      51.128   5.766  19.018  0.00  0.00    +0.000 C 
BRANCH  24  25
ATOM     25  N   UNL     1      50.471   4.449  18.889  0.00  0.00    +0.000 NA
ATOM     26  C   UNL     1      49.002   4.535  18.941  0.00  0.00    +0.000 C 
ATOM     27  C   UNL     1      48.348   3.164  18.779  0.00  0.00    +0.000 C 
ATOM     28  C   UNL     1      48.771   2.503  17.462  0.00  0.00    +0.000 C 
ATOM     29  C   UNL     1      50.300   2.426  17.433  0.00  0.00    +0.000 C 
ATOM     30  C   UNL     1      50.947   3.794  17.656  0.00  0.00    +0.000 C 
BRANCH  28  31
ATOM     31  C   UNL     1      48.221   3.246  16.231  0.00  0.00    +0.000 C 
BRANCH  31  32
ATOM     32  O   UNL     1      46.845   3.554  16.397  0.00  0.00    +0.000 OA
ATOM     33  H   UNL     1      46.351   3.068  15.716  0.00  0.00    +0.000 HD
ENDBRANCH  31  32
ENDBRANCH  28  31
ENDBRANCH  24  25
ENDBRANCH  23  24
ENDBRANCH   4  23
TORSDOF 8
ENDMDL
