MODEL 1
REMARK VINA RESULT:    -7.857      0.000      0.000
REMARK INTER + INTRA:         -10.764
REMARK INTER:                 -10.154
REMARK INTRA:                  -0.610
REMARK UNBOUND:                -0.610
REMARK  Name = 
REMARK  5 active torsions:
REMARK  status: ('A' for Active; 'I' for Inactive)
REMARK    1  A    between atoms: C_2  and  C_5
REMARK    2  A    between atoms: C_9  and  N_10
REMARK    3  A    between atoms: N_10  and  C_11
REMARK    4  A    between atoms: C_11  and  C_12
REMARK    5  A    between atoms: C_16  and  C_17
REMARK                            x       y       z     vdW  Elec       q    Type
REMARK                         _______ _______ _______ _____ _____    ______ ____
ROOT
ATOM      1  C   UNL     1      43.741   3.342  11.637  0.00  0.00    +0.000 C 
ENDROOT
BRANCH   1   2
ATOM      2  C   UNL     1      44.925   3.950  12.350  0.00  0.00    +0.000 A 
ATOM      3  C   UNL     1      45.804   3.155  13.075  0.00  0.00    +0.000 A 
ATOM      4  N   UNL     1      46.913   3.647  13.673  0.00  0.00    +0.000 NA
ATOM      5  C   UNL     1      47.112   4.980  13.518  0.00  0.00    +0.000 A 
ATOM      6  C   UNL     1      46.249   5.807  12.801  0.00  0.00    +0.000 A 
ATOM      7  N   UNL     1      45.132   5.291  12.223  0.00  0.00    +0.000 NA
BRANCH   6   8
ATOM      8  C   UNL     1      46.483   7.239  12.579  0.00  0.00    +0.000 A 
ATOM      9  C   UNL     1      45.447   8.170  12.704  0.00  0.00    +0.000 A 
ATOM     10  N   UNL     1      45.571   9.507  12.496  0.00  0.00    +0.000 NA
ATOM     11  C   UNL     1      46.792   9.951  12.125  0.00  0.00    +0.000 A 
ATOM     12  C   UNL     1      47.889   9.121  11.963  0.00  0.00    +0.000 A 
ATOM     13 CL   UNL     1      49.407   9.750  11.472  0.00  0.00    +0.000 Cl
ATOM     14  C   UNL     1      47.732   7.755  12.196  0.00  0.00    +0.000 A 
ENDBRANCH   6   8
ENDBRANCH   1   2
BRANCH   1  15
ATOM     15  N   UNL     1      44.137   2.397  10.616  0.00  0.00    +0.000 N 
ATOM     16  H   UNL     1      43.626   1.527  10.513  0.00  0.00    +0.000 HD
BRANCH  15  21
ATOM     17  C   UNL     1      46.265   2.045   7.777  0.00  0.00    +0.000 A 
ATOM     18  C   UNL     1      46.320   3.323   7.233  0.00  0.00    +0.000 A 
ATOM     19  C   UNL     1      45.594   4.339   7.835  0.00  0.00    +0.000 A 
ATOM     20  C   UNL     1      44.840   4.053   8.971  0.00  0.00    +0.000 A 
ATOM     21  C   UNL     1      44.804   2.756   9.470  0.00  0.00    +0.000 A 
ATOM     22  N   UNL     1      45.495   1.764   8.877  0.00  0.00    +0.000 NA
BRANCH  17  24
ATOM     23  F   UNL     1      48.444   1.137   7.276  0.00  0.00    +0.000 F 
ATOM     24  C   UNL     1      47.095   0.927   7.163  0.00  0.00    +0.000 C 
ATOM     25  F   UNL     1      46.871   0.754   5.829  0.00  0.00    +0.000 F 
ATOM     26  F   UNL     1      46.876  -0.287   7.745  0.00  0.00    +0.000 F 
ENDBRANCH  17  24
ENDBRANCH  15  21
ENDBRANCH   1  15
TORSDOF 5
ENDMDL
MODEL 2
REMARK VINA RESULT:    -7.439      3.897      6.777
REMARK INTER + INTRA:         -10.223
REMARK INTER:                  -9.395
REMARK INTRA:                  -0.828
REMARK UNBOUND:                -0.610
REMARK  Name = 
REMARK  5 active torsions:
REMARK  status: ('A' for Active; 'I' for Inactive)
REMARK    1  A    between atoms: C_2  and  C_5
REMARK    2  A    between atoms: C_9  and  N_10
REMARK    3  A    between atoms: N_10  and  C_11
REMARK    4  A    between atoms: C_11  and  C_12
REMARK    5  A    between atoms: C_16  and  C_17
REMARK                            x       y       z     vdW  Elec       q    Type
REMARK                         _______ _______ _______ _____ _____    ______ ____
ROOT
ATOM      1  C   UNL     1      44.789   5.626  13.150  0.00  0.00    +0.000 C 
ENDROOT
BRANCH   1   2
ATOM      2  C   UNL     1      44.451   4.452  12.264  0.00  0.00    +0.000 A 
ATOM      3  C   UNL     1      43.415   3.587  12.592  0.00  0.00    +0.000 A 
ATOM      4  N   UNL     1      43.036   2.563  11.794  0.00  0.00    +0.000 NA
ATOM      5  C   UNL     1      43.741   2.432  10.643  0.00  0.00    +0.000 A 
ATOM      6  C   UNL     1      44.789   3.278  10.286  0.00  0.00    +0.000 A 
ATOM      7  N   UNL     1      45.162   4.291  11.112  0.00  0.00    +0.000 NA
BRANCH   6   8
ATOM      8  C   UNL     1      45.523   3.182   9.017  0.00  0.00    +0.000 A 
ATOM      9  C   UNL     1      45.766   4.315   8.234  0.00  0.00    +0.000 A 
ATOM     10  N   UNL     1      46.416   4.313   7.041  0.00  0.00    +0.000 NA
ATOM     11  C   UNL     1      46.839   3.113   6.585  0.00  0.00    +0.000 A 
ATOM     12  C   UNL     1      46.649   1.926   7.271  0.00  0.00    +0.000 A 
ATOM     13 CL   UNL     1      47.196   0.435   6.623  0.00  0.00    +0.000 Cl
ATOM     14  C   UNL     1      45.989   1.963   8.498  0.00  0.00    +0.000 A 
ENDBRANCH   6   8
ENDBRANCH   1   2
BRANCH   1  15
ATOM     15  N   UNL     1      44.510   6.895  12.514  0.00  0.00    +0.000 N 
ATOM     16  H   UNL     1      43.575   7.286  12.565  0.00  0.00    +0.000 HD
BRANCH  15  21
ATOM     17  C   UNL     1      47.765   8.272  12.041  0.00  0.00    +0.000 A 
ATOM     18  C   UNL     1      47.543   9.640  11.935  0.00  0.00    +0.000 A 
ATOM     19  C   UNL     1      46.242  10.115  12.004  0.00  0.00    +0.000 A 
ATOM     20  C   UNL     1      45.199   9.211  12.188  0.00  0.00    +0.000 A 
ATOM     21  C   UNL     1      45.468   7.849  12.274  0.00  0.00    +0.000 A 
ATOM     22  N   UNL     1      46.729   7.385  12.190  0.00  0.00    +0.000 NA
BRANCH  17  24
ATOM     23  F   UNL     1      50.063   8.506  12.738  0.00  0.00    +0.000 F 
ATOM     24  C   UNL     1      49.188   7.734  12.020  0.00  0.00    +0.000 C 
ATOM     25  F   UNL     1      49.722   7.660  10.767  0.00  0.00    +0.000 F 
ATOM     26  F   UNL     1      49.299   6.484  12.554  0.00  0.00    +0.000 F 
ENDBRANCH  17  24
ENDBRANCH  15  21
ENDBRANCH   1  15
TORSDOF 5
ENDMDL
MODEL 3
REMARK VINA RESULT:    -7.418      2.118      2.653
REMARK INTER + INTRA:         -10.196
REMARK INTER:                  -9.553
REMARK INTRA:                  -0.643
REMARK UNBOUND:                -0.610
REMARK  Name = 
REMARK  5 active torsions:
REMARK  status: ('A' for Active; 'I' for Inactive)
REMARK    1  A    between atoms: C_2  and  C_5
REMARK    2  A    between atoms: C_9  and  N_10
REMARK    3  A    between atoms: N_10  and  C_11
REMARK    4  A    between atoms: C_11  and  C_12
REMARK    5  A    between atoms: C_16  and  C_17
REMARK                            x       y       z     vdW  Elec       q    Type
REMARK                         _______ _______ _______ _____ _____    ______ ____
ROOT
ATOM      1  C   UNL     1      44.436   5.918  11.043  0.00  0.00    +0.000 C 
ENDROOT
BRANCH   1   2
ATOM      2  C   UNL     1      45.378   5.624  12.187  0.00  0.00    +0.000 A 
ATOM      3  C   UNL     1      45.122   4.582  13.069  0.00  0.00    +0.000 A 
ATOM      4  N   UNL     1      45.971   4.242  14.066  0.00  0.00    +0.000 NA
ATOM      5  C   UNL     1      47.096   4.993  14.150  0.00  0.00    +0.000 A 
ATOM      6  C   UNL     1      47.381   6.048  13.286  0.00  0.00    +0.000 A 
ATOM      7  N   UNL     1      46.505   6.381  12.301  0.00  0.00    +0.000 NA
BRANCH   6   8
ATOM      8  C   UNL     1      48.622   6.833  13.331  0.00  0.00    +0.000 A 
ATOM      9  C   UNL     1      49.206   7.194  14.549  0.00  0.00    +0.000 A 
ATOM     10  N   UNL     1      50.338   7.934  14.683  0.00  0.00    +0.000 NA
ATOM     11  C   UNL     1      50.921   8.357  13.540  0.00  0.00    +0.000 A 
ATOM     12  C   UNL     1      50.430   8.066  12.279  0.00  0.00    +0.000 A 
ATOM     13 CL   UNL     1      51.212   8.653  10.869  0.00  0.00    +0.000 Cl
ATOM     14  C   UNL     1      49.273   7.295  12.175  0.00  0.00    +0.000 A 
ENDBRANCH   6   8
ENDBRANCH   1   2
BRANCH   1  15
ATOM     15  N   UNL     1      45.014   5.593   9.757  0.00  0.00    +0.000 N 
ATOM     16  H   UNL     1      45.660   6.242   9.320  0.00  0.00    +0.000 HD
BRANCH  15  21
ATOM     17  C   UNL     1      46.159   2.936   7.674  0.00  0.00    +0.000 A 
ATOM     18  C   UNL     1      45.488   1.816   8.150  0.00  0.00    +0.000 A 
ATOM     19  C   UNL     1      44.630   1.959   9.231  0.00  0.00    +0.000 A 
ATOM     20  C   UNL     1      44.459   3.219   9.799  0.00  0.00    +0.000 A 
ATOM     21  C   UNL     1      45.165   4.307   9.297  0.00  0.00    +0.000 A 
ATOM     22  N   UNL     1      46.011   4.167   8.260  0.00  0.00    +0.000 NA
BRANCH  17  24
ATOM     23  F   UNL     1      46.875   3.813   5.543  0.00  0.00    +0.000 F 
ATOM     24  C   UNL     1      47.065   2.811   6.457  0.00  0.00    +0.000 C 
ATOM     25  F   UNL     1      46.883   1.653   5.761  0.00  0.00    +0.000 F 
ATOM     26  F   UNL     1      48.393   2.862   6.767  0.00  0.00    +0.000 F 
ENDBRANCH  17  24
ENDBRANCH  15  21
ENDBRANCH   1  15
TORSDOF 5
ENDMDL
MODEL 4
REMARK VINA RESULT:    -7.325      4.608      7.565
REMARK INTER + INTRA:         -10.075
REMARK INTER:                  -9.463
REMARK INTRA:                  -0.613
REMARK UNBOUND:                -0.610
REMARK  Name = 
REMARK  5 active torsions:
REMARK  status: ('A' for Active; 'I' for Inactive)
REMARK    1  A    between atoms: C_2  and  C_5
REMARK    2  A    between atoms: C_9  and  N_10
REMARK    3  A    between atoms: N_10  and  C_11
REMARK    4  A    between atoms: C_11  and  C_12
REMARK    5  A    between atoms: C_16  and  C_17
REMARK                            x       y       z     vdW  Elec       q    Type
REMARK                         _______ _______ _______ _____ _____    ______ ____
ROOT
ATOM      1  C   UNL     1      45.477   5.773  13.277  0.00  0.00    +0.000 C 
ENDROOT
BRANCH   1   2
ATOM      2  C   UNL     1      44.837   4.748  12.371  0.00  0.00    +0.000 A 
ATOM      3  C   UNL     1      43.606   4.188  12.689  0.00  0.00    +0.000 A 
ATOM      4  N   UNL     1      42.967   3.317  11.875  0.00  0.00    +0.000 NA
ATOM      5  C   UNL     1      43.612   3.022  10.719  0.00  0.00    +0.000 A 
ATOM      6  C   UNL     1      44.849   3.562  10.372  0.00  0.00    +0.000 A 
ATOM      7  N   UNL     1      45.479   4.423  11.214  0.00  0.00    +0.000 NA
BRANCH   6   8
ATOM      8  C   UNL     1      45.531   3.295   9.099  0.00  0.00    +0.000 A 
ATOM      9  C   UNL     1      45.793   4.323   8.188  0.00  0.00    +0.000 A 
ATOM     10  N   UNL     1      46.397   4.162   6.982  0.00  0.00    +0.000 NA
ATOM     11  C   UNL     1      46.752   2.902   6.648  0.00  0.00    +0.000 A 
ATOM     12  C   UNL     1      46.538   1.806   7.467  0.00  0.00    +0.000 A 
ATOM     13 CL   UNL     1      46.999   0.229   6.971  0.00  0.00    +0.000 Cl
ATOM     14  C   UNL     1      45.926   2.006   8.703  0.00  0.00    +0.000 A 
ENDBRANCH   6   8
ENDBRANCH   1   2
BRANCH   1  15
ATOM     15  N   UNL     1      46.918   5.651  13.316  0.00  0.00    +0.000 N 
ATOM     16  H   UNL     1      47.468   5.953  12.519  0.00  0.00    +0.000 HD
BRANCH  15  21
ATOM     17  C   UNL     1      48.202   4.389  16.394  0.00  0.00    +0.000 A 
ATOM     18  C   UNL     1      48.929   5.451  16.920  0.00  0.00    +0.000 A 
ATOM     19  C   UNL     1      49.007   6.632  16.197  0.00  0.00    +0.000 A 
ATOM     20  C   UNL     1      48.347   6.724  14.974  0.00  0.00    +0.000 A 
ATOM     21  C   UNL     1      47.644   5.630  14.482  0.00  0.00    +0.000 A 
ATOM     22  N   UNL     1      47.582   4.476  15.174  0.00  0.00    +0.000 NA
BRANCH  17  24
ATOM     23  F   UNL     1      48.551   2.006  16.536  0.00  0.00    +0.000 F 
ATOM     24  C   UNL     1      48.061   3.102  17.194  0.00  0.00    +0.000 C 
ATOM     25  F   UNL     1      46.768   2.790  17.496  0.00  0.00    +0.000 F 
ATOM     26  F   UNL     1      48.731   3.131  18.382  0.00  0.00    +0.000 F 
ENDBRANCH  17  24
ENDBRANCH  15  21
ENDBRANCH   1  15
TORSDOF 5
ENDMDL
MODEL 5
REMARK VINA RESULT:    -7.300      2.835      4.303
REMARK INTER + INTRA:         -10.043
REMARK INTER:                  -9.295
REMARK INTRA:                  -0.748
REMARK UNBOUND:                -0.610
REMARK  Name = 
REMARK  5 active torsions:
REMARK  status: ('A' for Active; 'I' for Inactive)
REMARK    1  A    between atoms: C_2  and  C_5
REMARK    2  A    between atoms: C_9  and  N_10
REMARK    3  A    between atoms: N_10  and  C_11
REMARK    4  A    between atoms: C_11  and  C_12
REMARK    5  A    between atoms: C_16  and  C_17
REMARK                            x       y       z     vdW  Elec       q    Type
REMARK                         _______ _______ _______ _____ _____    ______ ____
ROOT
ATOM      1  C   UNL     1      44.360   6.394  12.008  0.00  0.00    +0.000 C 
ENDROOT
BRANCH   1   2
ATOM      2  C   UNL     1      45.803   6.393  12.454  0.00  0.00    +0.000 A 
ATOM      3  C   UNL     1      46.769   7.089  11.739  0.00  0.00    +0.000 A 
ATOM      4  N   UNL     1      48.059   7.169  12.138  0.00  0.00    +0.000 NA
ATOM      5  C   UNL     1      48.350   6.519  13.292  0.00  0.00    +0.000 A 
ATOM      6  C   UNL     1      47.407   5.808  14.031  0.00  0.00    +0.000 A 
ATOM      7  N   UNL     1      46.120   5.729  13.600  0.00  0.00    +0.000 NA
BRANCH   6   8
ATOM      8  C   UNL     1      47.697   5.148  15.311  0.00  0.00    +0.000 A 
ATOM      9  C   UNL     1      47.139   3.905  15.627  0.00  0.00    +0.000 A 
ATOM     10  N   UNL     1      47.337   3.235  16.792  0.00  0.00    +0.000 NA
ATOM     11  C   UNL     1      48.122   3.840  17.711  0.00  0.00    +0.000 A 
ATOM     12  C   UNL     1      48.721   5.071  17.511  0.00  0.00    +0.000 A 
ATOM     13 CL   UNL     1      49.692   5.789  18.729  0.00  0.00    +0.000 Cl
ATOM     14  C   UNL     1      48.508   5.728  16.299  0.00  0.00    +0.000 A 
ENDBRANCH   6   8
ENDBRANCH   1   2
BRANCH   1  15
ATOM     15  N   UNL     1      44.209   5.976  10.631  0.00  0.00    +0.000 N 
ATOM     16  H   UNL     1      44.271   6.664   9.889  0.00  0.00    +0.000 HD
BRANCH  15  21
ATOM     17  C   UNL     1      45.604   3.396   8.603  0.00  0.00    +0.000 A 
ATOM     18  C   UNL     1      45.026   2.230   9.089  0.00  0.00    +0.000 A 
ATOM     19  C   UNL     1      44.145   2.315  10.158  0.00  0.00    +0.000 A 
ATOM     20  C   UNL     1      43.860   3.564  10.704  0.00  0.00    +0.000 A 
ATOM     21  C   UNL     1      44.475   4.701  10.193  0.00  0.00    +0.000 A 
ATOM     22  N   UNL     1      45.343   4.619   9.168  0.00  0.00    +0.000 NA
BRANCH  17  24
ATOM     23  F   UNL     1      47.417   2.289   7.458  0.00  0.00    +0.000 F 
ATOM     24  C   UNL     1      46.532   3.332   7.398  0.00  0.00    +0.000 C 
ATOM     25  F   UNL     1      47.304   4.447   7.247  0.00  0.00    +0.000 F 
ATOM     26  F   UNL     1      45.869   3.168   6.217  0.00  0.00    +0.000 F 
ENDBRANCH  17  24
ENDBRANCH  15  21
ENDBRANCH   1  15
TORSDOF 5
ENDMDL
MODEL 6
REMARK VINA RESULT:    -7.165      4.577      7.716
REMARK INTER + INTRA:          -9.869
REMARK INTER:                  -9.043
REMARK INTRA:                  -0.826
REMARK UNBOUND:                -0.610
REMARK  Name = 
REMARK  5 active torsions:
REMARK  status: ('A' for Active; 'I' for Inactive)
REMARK    1  A    between atoms: C_2  and  C_5
REMARK    2  A    between atoms: C_9  and  N_10
REMARK    3  A    between atoms: N_10  and  C_11
REMARK    4  A    between atoms: C_11  and  C_12
REMARK    5  A    between atoms: C_16  and  C_17
REMARK                            x       y       z     vdW  Elec       q    Type
REMARK                         _______ _______ _______ _____ _____    ______ ____
ROOT
ATOM      1  C   UNL     1      49.136   7.045  13.915  0.00  0.00    +0.000 C 
ENDROOT
BRANCH   1   2
ATOM      2  C   UNL     1      47.716   7.243  13.442  0.00  0.00    +0.000 A 
ATOM      3  C   UNL     1      47.187   8.519  13.291  0.00  0.00    +0.000 A 
ATOM      4  N   UNL     1      45.944   8.744  12.808  0.00  0.00    +0.000 NA
ATOM      5  C   UNL     1      45.240   7.632  12.479  0.00  0.00    +0.000 A 
ATOM      6  C   UNL     1      45.738   6.339  12.621  0.00  0.00    +0.000 A 
ATOM      7  N   UNL     1      46.985   6.138  13.125  0.00  0.00    +0.000 NA
BRANCH   6   8
ATOM      8  C   UNL     1      45.008   5.131  12.215  0.00  0.00    +0.000 A 
ATOM      9  C   UNL     1      44.264   4.390  13.139  0.00  0.00    +0.000 A 
ATOM     10  N   UNL     1      43.579   3.252  12.854  0.00  0.00    +0.000 NA
ATOM     11  C   UNL     1      43.645   2.809  11.579  0.00  0.00    +0.000 A 
ATOM     12  C   UNL     1      44.355   3.456  10.583  0.00  0.00    +0.000 A 
ATOM     13 CL   UNL     1      44.411   2.827   8.988  0.00  0.00    +0.000 Cl
ATOM     14  C   UNL     1      45.039   4.628  10.904  0.00  0.00    +0.000 A 
ENDBRANCH   6   8
ENDBRANCH   1   2
BRANCH   1  15
ATOM     15  N   UNL     1      49.309   7.408  15.305  0.00  0.00    +0.000 N 
ATOM     16  H   UNL     1      49.410   8.386  15.559  0.00  0.00    +0.000 HD
BRANCH  15  21
ATOM     17  C   UNL     1      48.237   4.480  17.034  0.00  0.00    +0.000 A 
ATOM     18  C   UNL     1      47.865   4.944  18.290  0.00  0.00    +0.000 A 
ATOM     19  C   UNL     1      48.000   6.296  18.572  0.00  0.00    +0.000 A 
ATOM     20  C   UNL     1      48.494   7.148  17.588  0.00  0.00    +0.000 A 
ATOM     21  C   UNL     1      48.869   6.635  16.351  0.00  0.00    +0.000 A 
ATOM     22  N   UNL     1      48.755   5.320  16.081  0.00  0.00    +0.000 NA
BRANCH  17  24
ATOM     23  F   UNL     1      47.099   2.395  17.458  0.00  0.00    +0.000 F 
ATOM     24  C   UNL     1      48.049   3.011  16.687  0.00  0.00    +0.000 C 
ATOM     25  F   UNL     1      49.179   2.265  16.849  0.00  0.00    +0.000 F 
ATOM     26  F   UNL     1      47.644   2.810  15.399  0.00  0.00    +0.000 F 
ENDBRANCH  17  24
ENDBRANCH  15  21
ENDBRANCH   1  15
TORSDOF 5
ENDMDL
MODEL 7
REMARK VINA RESULT:    -7.038      1.442      2.228
REMARK INTER + INTRA:          -9.705
REMARK INTER:                  -9.772
REMARK INTRA:                   0.067
REMARK UNBOUND:                -0.610
REMARK  Name = 
REMARK  5 active torsions:
REMARK  status: ('A' for Active; 'I' for Inactive)
REMARK    1  A    between atoms: C_2  and  C_5
REMARK    2  A    between atoms: C_9  and  N_10
REMARK    3  A    between atoms: N_10  and  C_11
REMARK    4  A    between atoms: C_11  and  C_12
REMARK    5  A    between atoms: C_16  and  C_17
REMARK                            x       y       z     vdW  Elec       q    Type
REMARK                         _______ _______ _______ _____ _____    ______ ____
ROOT
ATOM      1  C   UNL     1      43.934   2.388  11.652  0.00  0.00    +0.000 C 
ENDROOT
BRANCH   1   2
ATOM      2  C   UNL     1      44.070   3.876  11.876  0.00  0.00    +0.000 A 
ATOM      3  C   UNL     1      42.953   4.701  11.865  0.00  0.00    +0.000 A 
ATOM      4  N   UNL     1      43.019   6.027  12.126  0.00  0.00    +0.000 NA
ATOM      5  C   UNL     1      44.260   6.501  12.402  0.00  0.00    +0.000 A 
ATOM      6  C   UNL     1      45.401   5.702  12.417  0.00  0.00    +0.000 A 
ATOM      7  N   UNL     1      45.310   4.376  12.135  0.00  0.00    +0.000 NA
BRANCH   6   8
ATOM      8  C   UNL     1      46.740   6.193  12.769  0.00  0.00    +0.000 A 
ATOM      9  C   UNL     1      47.400   5.737  13.914  0.00  0.00    +0.000 A 
ATOM     10  N   UNL     1      48.627   6.152  14.324  0.00  0.00    +0.000 NA
ATOM     11  C   UNL     1      49.233   7.090  13.564  0.00  0.00    +0.000 A 
ATOM     12  C   UNL     1      48.673   7.619  12.414  0.00  0.00    +0.000 A 
ATOM     13 CL   UNL     1      49.492   8.822  11.505  0.00  0.00    +0.000 Cl
ATOM     14  C   UNL     1      47.417   7.163  12.013  0.00  0.00    +0.000 A 
ENDBRANCH   6   8
ENDBRANCH   1   2
BRANCH   1  15
ATOM     15  N   UNL     1      43.838   2.049  10.249  0.00  0.00    +0.000 N 
ATOM     16  H   UNL     1      42.952   1.730   9.870  0.00  0.00    +0.000 HD
BRANCH  15  21
ATOM     17  C   UNL     1      46.378   2.113   7.747  0.00  0.00    +0.000 A 
ATOM     18  C   UNL     1      46.495   3.457   7.414  0.00  0.00    +0.000 A 
ATOM     19  C   UNL     1      45.669   4.377   8.044  0.00  0.00    +0.000 A 
ATOM     20  C   UNL     1      44.756   3.929   8.996  0.00  0.00    +0.000 A 
ATOM     21  C   UNL     1      44.665   2.571   9.285  0.00  0.00    +0.000 A 
ATOM     22  N   UNL     1      45.454   1.675   8.662  0.00  0.00    +0.000 NA
BRANCH  17  24
ATOM     23  F   UNL     1      46.965   0.789   5.816  0.00  0.00    +0.000 F 
ATOM     24  C   UNL     1      47.309   1.094   7.107  0.00  0.00    +0.000 C 
ATOM     25  F   UNL     1      47.337  -0.103   7.761  0.00  0.00    +0.000 F 
ATOM     26  F   UNL     1      48.604   1.518   7.036  0.00  0.00    +0.000 F 
ENDBRANCH  17  24
ENDBRANCH  15  21
ENDBRANCH   1  15
TORSDOF 5
ENDMDL
MODEL 8
REMARK VINA RESULT:    -6.997      4.664      7.355
REMARK INTER + INTRA:          -9.651
REMARK INTER:                  -8.979
REMARK INTRA:                  -0.672
REMARK UNBOUND:                -0.610
REMARK  Name = 
REMARK  5 active torsions:
REMARK  status: ('A' for Active; 'I' for Inactive)
REMARK    1  A    between atoms: C_2  and  C_5
REMARK    2  A    between atoms: C_9  and  N_10
REMARK    3  A    between atoms: N_10  and  C_11
REMARK    4  A    between atoms: C_11  and  C_12
REMARK    5  A    between atoms: C_16  and  C_17
REMARK                            x       y       z     vdW  Elec       q    Type
REMARK                         _______ _______ _______ _____ _____    ______ ____
ROOT
ATOM      1  C   UNL     1      45.165   5.366  13.288  0.00  0.00    +0.000 C 
ENDROOT
BRANCH   1   2
ATOM      2  C   UNL     1      44.696   4.284  12.345  0.00  0.00    +0.000 A 
ATOM      3  C   UNL     1      43.593   3.500  12.654  0.00  0.00    +0.000 A 
ATOM      4  N   UNL     1      43.099   2.565  11.809  0.00  0.00    +0.000 NA
ATOM      5  C   UNL     1      43.759   2.442  10.631  0.00  0.00    +0.000 A 
ATOM      6  C   UNL     1      44.872   3.209  10.291  0.00  0.00    +0.000 A 
ATOM      7  N   UNL     1      45.358   4.131  11.164  0.00  0.00    +0.000 NA
BRANCH   6   8
ATOM      8  C   UNL     1      45.560   3.125   8.997  0.00  0.00    +0.000 A 
ATOM      9  C   UNL     1      45.787   4.267   8.222  0.00  0.00    +0.000 A 
ATOM     10  N   UNL     1      46.395   4.277   7.007  0.00  0.00    +0.000 NA
ATOM     11  C   UNL     1      46.790   3.080   6.519  0.00  0.00    +0.000 A 
ATOM     12  C   UNL     1      46.612   1.884   7.194  0.00  0.00    +0.000 A 
ATOM     13 CL   UNL     1      47.122   0.398   6.506  0.00  0.00    +0.000 Cl
ATOM     14  C   UNL     1      45.995   1.909   8.444  0.00  0.00    +0.000 A 
ENDBRANCH   6   8
ENDBRANCH   1   2
BRANCH   1  15
ATOM     15  N   UNL     1      45.793   6.468  12.594  0.00  0.00    +0.000 N 
ATOM     16  H   UNL     1      45.226   7.243  12.266  0.00  0.00    +0.000 HD
BRANCH  15  21
ATOM     17  C   UNL     1      48.891   6.997  14.278  0.00  0.00    +0.000 A 
ATOM     18  C   UNL     1      49.708   7.578  13.315  0.00  0.00    +0.000 A 
ATOM     19  C   UNL     1      49.199   7.781  12.041  0.00  0.00    +0.000 A 
ATOM     20  C   UNL     1      47.886   7.406  11.767  0.00  0.00    +0.000 A 
ATOM     21  C   UNL     1      47.113   6.814  12.759  0.00  0.00    +0.000 A 
ATOM     22  N   UNL     1      47.610   6.601  13.992  0.00  0.00    +0.000 NA
BRANCH  17  24
ATOM     23  F   UNL     1      49.292   7.943  16.462  0.00  0.00    +0.000 F 
ATOM     24  C   UNL     1      49.412   6.813  15.697  0.00  0.00    +0.000 C 
ATOM     25  F   UNL     1      50.734   6.483  15.752  0.00  0.00    +0.000 F 
ATOM     26  F   UNL     1      48.749   5.844  16.391  0.00  0.00    +0.000 F 
ENDBRANCH  17  24
ENDBRANCH  15  21
ENDBRANCH   1  15
TORSDOF 5
ENDMDL
MODEL 9
REMARK VINA RESULT:    -6.936      5.338      7.294
REMARK INTER + INTRA:          -9.574
REMARK INTER:                  -9.077
REMARK INTRA:                  -0.497
REMARK UNBOUND:                -0.610
REMARK  Name = 
REMARK  5 active torsions:
REMARK  status: ('A' for Active; 'I' for Inactive)
REMARK    1  A    between atoms: C_2  and  C_5
REMARK    2  A    between atoms: C_9  and  N_10
REMARK    3  A    between atoms: N_10  and  C_11
REMARK    4  A    between atoms: C_11  and  C_12
REMARK    5  A    between atoms: C_16  and  C_17
REMARK                            x       y       z     vdW  Elec       q    Type
REMARK                         _______ _______ _______ _____ _____    ______ ____
ROOT
ATOM      1  C   UNL     1      47.036   4.058  15.388  0.00  0.00    +0.000 C 
ENDROOT
BRANCH   1   2
ATOM      2  C   UNL     1      47.894   4.191  16.624  0.00  0.00    +0.000 A 
ATOM      3  C   UNL     1      47.418   4.845  17.753  0.00  0.00    +0.000 A 
ATOM      4  N   UNL     1      48.126   4.930  18.902  0.00  0.00    +0.000 NA
ATOM      5  C   UNL     1      49.342   4.331  18.880  0.00  0.00    +0.000 A 
ATOM      6  C   UNL     1      49.851   3.671  17.764  0.00  0.00    +0.000 A 
ATOM      7  N   UNL     1      49.128   3.613  16.615  0.00  0.00    +0.000 NA
BRANCH   6   8
ATOM      8  C   UNL     1      51.142   2.969  17.745  0.00  0.00    +0.000 A 
ATOM      9  C   UNL     1      51.232   1.630  17.355  0.00  0.00    +0.000 A 
ATOM     10  N   UNL     1      52.378   0.900  17.329  0.00  0.00    +0.000 NA
ATOM     11  C   UNL     1      53.505   1.531  17.729  0.00  0.00    +0.000 A 
ATOM     12  C   UNL     1      53.534   2.852  18.142  0.00  0.00    +0.000 A 
ATOM     13 CL   UNL     1      54.999   3.584  18.655  0.00  0.00    +0.000 Cl
ATOM     14  C   UNL     1      52.343   3.576  18.146  0.00  0.00    +0.000 A 
ENDBRANCH   6   8
ENDBRANCH   1   2
BRANCH   1  15
ATOM     15  N   UNL     1      46.917   5.304  14.663  0.00  0.00    +0.000 N 
ATOM     16  H   UNL     1      47.550   6.069  14.874  0.00  0.00    +0.000 HD
BRANCH  15  21
ATOM     17  C   UNL     1      44.832   4.494  11.886  0.00  0.00    +0.000 A 
ATOM     18  C   UNL     1      45.260   5.350  10.878  0.00  0.00    +0.000 A 
ATOM     19  C   UNL     1      46.278   6.251  11.153  0.00  0.00    +0.000 A 
ATOM     20  C   UNL     1      46.848   6.264  12.423  0.00  0.00    +0.000 A 
ATOM     21  C   UNL     1      46.376   5.399  13.404  0.00  0.00    +0.000 A 
ATOM     22  N   UNL     1      45.376   4.536  13.145  0.00  0.00    +0.000 NA
BRANCH  17  24
ATOM     23  F   UNL     1      42.523   4.023  11.368  0.00  0.00    +0.000 F 
ATOM     24  C   UNL     1      43.752   3.463  11.592  0.00  0.00    +0.000 C 
ATOM     25  F   UNL     1      43.559   2.574  12.608  0.00  0.00    +0.000 F 
ATOM     26  F   UNL     1      44.009   2.717  10.479  0.00  0.00    +0.000 F 
ENDBRANCH  17  24
ENDBRANCH  15  21
ENDBRANCH   1  15
TORSDOF 5
ENDMDL
