MODEL 1
REMARK VINA RESULT:    -7.273      0.000      0.000
REMARK INTER + INTRA:          -9.943
REMARK INTER:                  -8.974
REMARK INTRA:                  -0.970
REMARK UNBOUND:                -0.970
REMARK  Name = 
REMARK  4 active torsions:
REMARK  status: ('A' for Active; 'I' for Inactive)
REMARK    1  A    between atoms: C_5  and  O_6
REMARK    2  A    between atoms: O_6  and  C_7
REMARK    3  A    between atoms: C_7  and  C_8
REMARK    4  A    between atoms: C_12  and  N_13
REMARK                            x       y       z     vdW  Elec       q    Type
REMARK                         _______ _______ _______ _____ _____    ______ ____
ROOT
ATOM      1  C   UNL     1      44.933   4.760  12.185  0.00  0.00    +0.000 A 
ATOM      2  C   UNL     1      45.322   3.572  12.821  0.00  0.00    +0.000 A 
ATOM      3  C   UNL     1      46.534   3.467  13.505  0.00  0.00    +0.000 A 
ATOM      4  C   UNL     1      47.404   4.551  13.543  0.00  0.00    +0.000 A 
ATOM      5  C   UNL     1      47.059   5.768  12.943  0.00  0.00    +0.000 A 
ATOM      6  C   UNL     1      45.796   5.865  12.326  0.00  0.00    +0.000 A 
ENDROOT
BRANCH   5   7
ATOM      7  N   UNL     1      47.985   6.849  12.874  0.00  0.00    +0.000 N 
ATOM      8  C   UNL     1      48.110   7.641  11.749  0.00  0.00    +0.000 C 
ATOM      9  C   UNL     1      49.211   8.565  11.693  0.00  0.00    +0.000 C 
ATOM     10  C   UNL     1      50.060   8.620  12.733  0.00  0.00    +0.000 C 
ATOM     11  N   UNL     1      49.955   7.844  13.868  0.00  0.00    +0.000 NA
ATOM     12  C   UNL     1      48.951   7.017  13.867  0.00  0.00    +0.000 C 
ENDBRANCH   5   7
BRANCH   1  13
ATOM     13  C   UNL     1      43.694   4.835  11.295  0.00  0.00    +0.000 C 
ATOM     14  C   UNL     1      42.394   5.341  11.926  0.00  0.00    +0.000 C 
ATOM     15  C   UNL     1      43.126   6.213  10.967  0.00  0.00    +0.000 C 
BRANCH  13  16
ATOM     16  O   UNL     1      43.483   3.728  10.367  0.00  0.00    +0.000 OA
BRANCH  16  21
ATOM     17 CL   UNL     1      47.553   2.268   6.398  0.00  0.00    +0.000 Cl
ATOM     18  C   UNL     1      46.441   2.714   7.631  0.00  0.00    +0.000 A 
ATOM     19  C   UNL     1      46.122   4.060   7.807  0.00  0.00    +0.000 A 
ATOM     20  C   UNL     1      45.171   4.420   8.760  0.00  0.00    +0.000 A 
ATOM     21  C   UNL     1      44.517   3.442   9.509  0.00  0.00    +0.000 A 
ATOM     22  C   UNL     1      44.889   2.104   9.379  0.00  0.00    +0.000 A 
ATOM     23  C   UNL     1      45.850   1.740   8.430  0.00  0.00    +0.000 A 
ENDBRANCH  16  21
ENDBRANCH  13  16
ENDBRANCH   1  13
TORSDOF 4
ENDMDL
MODEL 2
REMARK VINA RESULT:    -7.255      1.956      3.000
REMARK INTER + INTRA:          -9.921
REMARK INTER:                  -9.484
REMARK INTRA:                  -0.438
REMARK UNBOUND:                -0.970
REMARK  Name = 
REMARK  4 active torsions:
REMARK  status: ('A' for Active; 'I' for Inactive)
REMARK    1  A    between atoms: C_5  and  O_6
REMARK    2  A    between atoms: O_6  and  C_7
REMARK    3  A    between atoms: C_7  and  C_8
REMARK    4  A    between atoms: C_12  and  N_13
REMARK                            x       y       z     vdW  Elec       q    Type
REMARK                         _______ _______ _______ _____ _____    ______ ____
ROOT
ATOM      1  C   UNL     1      45.347   5.314  11.989  0.00  0.00    +0.000 A 
ATOM      2  C   UNL     1      46.072   6.342  11.369  0.00  0.00    +0.000 A 
ATOM      3  C   UNL     1      47.249   6.849  11.919  0.00  0.00    +0.000 A 
ATOM      4  C   UNL     1      47.718   6.351  13.130  0.00  0.00    +0.000 A 
ATOM      5  C   UNL     1      47.047   5.311  13.785  0.00  0.00    +0.000 A 
ATOM      6  C   UNL     1      45.903   4.771  13.165  0.00  0.00    +0.000 A 
ENDROOT
BRANCH   5   7
ATOM      7  N   UNL     1      47.448   4.870  15.080  0.00  0.00    +0.000 N 
ATOM      8  C   UNL     1      48.199   5.661  15.927  0.00  0.00    +0.000 C 
ATOM      9  C   UNL     1      48.732   5.055  17.118  0.00  0.00    +0.000 C 
ATOM     10  C   UNL     1      48.474   3.758  17.354  0.00  0.00    +0.000 C 
ATOM     11  N   UNL     1      47.725   2.949  16.527  0.00  0.00    +0.000 NA
ATOM     12  C   UNL     1      47.273   3.538  15.458  0.00  0.00    +0.000 C 
ENDBRANCH   5   7
BRANCH   1  13
ATOM     13  C   UNL     1      43.975   4.870  11.487  0.00  0.00    +0.000 C 
ATOM     14  C   UNL     1      42.767   5.134  12.390  0.00  0.00    +0.000 C 
ATOM     15  C   UNL     1      42.947   5.948  11.156  0.00  0.00    +0.000 C 
BRANCH  13  16
ATOM     16  O   UNL     1      43.910   3.578  10.812  0.00  0.00    +0.000 OA
BRANCH  16  21
ATOM     17 CL   UNL     1      47.117   2.565   6.002  0.00  0.00    +0.000 Cl
ATOM     18  C   UNL     1      46.269   2.886   7.462  0.00  0.00    +0.000 A 
ATOM     19  C   UNL     1      45.878   4.194   7.750  0.00  0.00    +0.000 A 
ATOM     20  C   UNL     1      45.132   4.448   8.899  0.00  0.00    +0.000 A 
ATOM     21  C   UNL     1      44.750   3.403   9.739  0.00  0.00    +0.000 A 
ATOM     22  C   UNL     1      45.202   2.108   9.485  0.00  0.00    +0.000 A 
ATOM     23  C   UNL     1      45.959   1.850   8.338  0.00  0.00    +0.000 A 
ENDBRANCH  16  21
ENDBRANCH  13  16
ENDBRANCH   1  13
TORSDOF 4
ENDMDL
MODEL 3
REMARK VINA RESULT:    -6.628      3.915      6.640
REMARK INTER + INTRA:          -9.148
REMARK INTER:                  -8.207
REMARK INTRA:                  -0.941
REMARK UNBOUND:                -0.970
REMARK  Name = 
REMARK  4 active torsions:
REMARK  status: ('A' for Active; 'I' for Inactive)
REMARK    1  A    between atoms: C_5  and  O_6
REMARK    2  A    between atoms: O_6  and  C_7
REMARK    3  A    between atoms: C_7  and  C_8
REMARK    4  A    between atoms: C_12  and  N_13
REMARK                            x       y       z     vdW  Elec       q    Type
REMARK                         _______ _______ _______ _____ _____    ______ ____
ROOT
ATOM      1  C   UNL     1      45.170   6.412  12.232  0.00  0.00    +0.000 A 
ATOM      2  C   UNL     1      43.919   6.158  12.813  0.00  0.00    +0.000 A 
ATOM      3  C   UNL     1      43.098   5.121  12.369  0.00  0.00    +0.000 A 
ATOM      4  C   UNL     1      43.504   4.324  11.303  0.00  0.00    +0.000 A 
ATOM      5  C   UNL     1      44.752   4.519  10.698  0.00  0.00    +0.000 A 
ATOM      6  C   UNL     1      45.588   5.526  11.219  0.00  0.00    +0.000 A 
ENDROOT
BRANCH   5   7
ATOM      7  N   UNL     1      45.132   3.790   9.534  0.00  0.00    +0.000 N 
ATOM      8  C   UNL     1      45.186   2.409   9.515  0.00  0.00    +0.000 C 
ATOM      9  C   UNL     1      45.782   1.774   8.370  0.00  0.00    +0.000 C 
ATOM     10  C   UNL     1      46.252   2.545   7.376  0.00  0.00    +0.000 C 
ATOM     11  N   UNL     1      46.207   3.923   7.369  0.00  0.00    +0.000 NA
ATOM     12  C   UNL     1      45.670   4.452   8.430  0.00  0.00    +0.000 C 
ENDBRANCH   5   7
BRANCH   1  13
ATOM     13  C   UNL     1      45.998   7.643  12.595  0.00  0.00    +0.000 C 
ATOM     14  C   UNL     1      47.246   7.432  13.456  0.00  0.00    +0.000 C 
ATOM     15  C   UNL     1      47.404   7.762  12.012  0.00  0.00    +0.000 C 
BRANCH  13  16
ATOM     16  O   UNL     1      45.259   8.850  12.950  0.00  0.00    +0.000 OA
BRANCH  16  21
ATOM     17 CL   UNL     1      44.420  12.383   8.339  0.00  0.00    +0.000 Cl
ATOM     18  C   UNL     1      44.590  11.405   9.742  0.00  0.00    +0.000 A 
ATOM     19  C   UNL     1      43.744  10.310   9.916  0.00  0.00    +0.000 A 
ATOM     20  C   UNL     1      43.922   9.475  11.018  0.00  0.00    +0.000 A 
ATOM     21  C   UNL     1      44.957   9.710  11.921  0.00  0.00    +0.000 A 
ATOM     22  C   UNL     1      45.757  10.845  11.782  0.00  0.00    +0.000 A 
ATOM     23  C   UNL     1      45.575  11.690  10.683  0.00  0.00    +0.000 A 
ENDBRANCH  16  21
ENDBRANCH  13  16
ENDBRANCH   1  13
TORSDOF 4
ENDMDL
MODEL 4
REMARK VINA RESULT:    -6.552      3.676      6.732
REMARK INTER + INTRA:          -9.054
REMARK INTER:                  -8.210
REMARK INTRA:                  -0.844
REMARK UNBOUND:                -0.970
REMARK  Name = 
REMARK  4 active torsions:
REMARK  status: ('A' for Active; 'I' for Inactive)
REMARK    1  A    between atoms: C_5  and  O_6
REMARK    2  A    between atoms: O_6  and  C_7
REMARK    3  A    between atoms: C_7  and  C_8
REMARK    4  A    between atoms: C_12  and  N_13
REMARK                            x       y       z     vdW  Elec       q    Type
REMARK                         _______ _______ _______ _____ _____    ______ ____
ROOT
ATOM      1  C   UNL     1      45.517   6.363  12.018  0.00  0.00    +0.000 A 
ATOM      2  C   UNL     1      44.152   6.532  12.294  0.00  0.00    +0.000 A 
ATOM      3  C   UNL     1      43.169   5.808  11.619  0.00  0.00    +0.000 A 
ATOM      4  C   UNL     1      43.534   4.909  10.623  0.00  0.00    +0.000 A 
ATOM      5  C   UNL     1      44.882   4.684  10.318  0.00  0.00    +0.000 A 
ATOM      6  C   UNL     1      45.852   5.376  11.070  0.00  0.00    +0.000 A 
ENDROOT
BRANCH   5   7
ATOM      7  N   UNL     1      45.267   3.855   9.225  0.00  0.00    +0.000 N 
ATOM      8  C   UNL     1      45.274   2.476   9.313  0.00  0.00    +0.000 C 
ATOM      9  C   UNL     1      45.877   1.735   8.236  0.00  0.00    +0.000 C 
ATOM     10  C   UNL     1      46.397   2.412   7.199  0.00  0.00    +0.000 C 
ATOM     11  N   UNL     1      46.399   3.786   7.086  0.00  0.00    +0.000 NA
ATOM     12  C   UNL     1      45.853   4.412   8.088  0.00  0.00    +0.000 C 
ENDBRANCH   5   7
BRANCH   1  13
ATOM     13  C   UNL     1      46.587   7.268  12.627  0.00  0.00    +0.000 C 
ATOM     14  C   UNL     1      46.793   8.648  11.999  0.00  0.00    +0.000 C 
ATOM     15  C   UNL     1      46.135   8.544  13.330  0.00  0.00    +0.000 C 
BRANCH  13  16
ATOM     16  O   UNL     1      47.838   6.629  13.023  0.00  0.00    +0.000 OA
BRANCH  16  21
ATOM     17 CL   UNL     1      48.279   3.934  18.219  0.00  0.00    +0.000 Cl
ATOM     18  C   UNL     1      48.070   4.784  16.739  0.00  0.00    +0.000 A 
ATOM     19  C   UNL     1      48.739   5.993  16.547  0.00  0.00    +0.000 A 
ATOM     20  C   UNL     1      48.626   6.650  15.323  0.00  0.00    +0.000 A 
ATOM     21  C   UNL     1      47.879   6.091  14.287  0.00  0.00    +0.000 A 
ATOM     22  C   UNL     1      47.157   4.919  14.506  0.00  0.00    +0.000 A 
ATOM     23  C   UNL     1      47.259   4.261  15.736  0.00  0.00    +0.000 A 
ENDBRANCH  16  21
ENDBRANCH  13  16
ENDBRANCH   1  13
TORSDOF 4
ENDMDL
MODEL 5
REMARK VINA RESULT:    -6.472      2.470      3.197
REMARK INTER + INTRA:          -8.955
REMARK INTER:                  -8.946
REMARK INTRA:                  -0.009
REMARK UNBOUND:                -0.970
REMARK  Name = 
REMARK  4 active torsions:
REMARK  status: ('A' for Active; 'I' for Inactive)
REMARK    1  A    between atoms: C_5  and  O_6
REMARK    2  A    between atoms: O_6  and  C_7
REMARK    3  A    between atoms: C_7  and  C_8
REMARK    4  A    between atoms: C_12  and  N_13
REMARK                            x       y       z     vdW  Elec       q    Type
REMARK                         _______ _______ _______ _____ _____    ______ ____
ROOT
ATOM      1  C   UNL     1      45.133   5.894  12.088  0.00  0.00    +0.000 A 
ATOM      2  C   UNL     1      46.433   5.415  12.308  0.00  0.00    +0.000 A 
ATOM      3  C   UNL     1      47.525   6.276  12.423  0.00  0.00    +0.000 A 
ATOM      4  C   UNL     1      47.342   7.648  12.290  0.00  0.00    +0.000 A 
ATOM      5  C   UNL     1      46.064   8.185  12.090  0.00  0.00    +0.000 A 
ATOM      6  C   UNL     1      44.973   7.294  12.054  0.00  0.00    +0.000 A 
ENDROOT
BRANCH   5   7
ATOM      7  N   UNL     1      45.875   9.575  11.838  0.00  0.00    +0.000 N 
ATOM      8  C   UNL     1      46.929  10.466  11.799  0.00  0.00    +0.000 C 
ATOM      9  C   UNL     1      46.622  11.871  11.751  0.00  0.00    +0.000 C 
ATOM     10  C   UNL     1      45.334  12.251  11.739  0.00  0.00    +0.000 C 
ATOM     11  N   UNL     1      44.264  11.381  11.772  0.00  0.00    +0.000 NA
ATOM     12  C   UNL     1      44.591  10.122  11.827  0.00  0.00    +0.000 C 
ENDBRANCH   5   7
BRANCH   1  13
ATOM     13  C   UNL     1      43.962   4.959  11.794  0.00  0.00    +0.000 C 
ATOM     14  C   UNL     1      43.900   3.635  12.559  0.00  0.00    +0.000 C 
ATOM     15  C   UNL     1      42.937   4.719  12.899  0.00  0.00    +0.000 C 
BRANCH  13  16
ATOM     16  O   UNL     1      43.562   4.828  10.396  0.00  0.00    +0.000 OA
BRANCH  16  21
ATOM     17 CL   UNL     1      47.390   1.663   7.269  0.00  0.00    +0.000 Cl
ATOM     18  C   UNL     1      46.197   2.576   8.105  0.00  0.00    +0.000 A 
ATOM     19  C   UNL     1      45.267   1.913   8.904  0.00  0.00    +0.000 A 
ATOM     20  C   UNL     1      44.341   2.654   9.637  0.00  0.00    +0.000 A 
ATOM     21  C   UNL     1      44.364   4.047   9.599  0.00  0.00    +0.000 A 
ATOM     22  C   UNL     1      45.250   4.705   8.746  0.00  0.00    +0.000 A 
ATOM     23  C   UNL     1      46.174   3.964   8.001  0.00  0.00    +0.000 A 
ENDBRANCH  16  21
ENDBRANCH  13  16
ENDBRANCH   1  13
TORSDOF 4
ENDMDL
MODEL 6
REMARK VINA RESULT:    -6.034      4.321      7.748
REMARK INTER + INTRA:          -8.415
REMARK INTER:                  -7.438
REMARK INTRA:                  -0.977
REMARK UNBOUND:                -0.970
REMARK  Name = 
REMARK  4 active torsions:
REMARK  status: ('A' for Active; 'I' for Inactive)
REMARK    1  A    between atoms: C_5  and  O_6
REMARK    2  A    between atoms: O_6  and  C_7
REMARK    3  A    between atoms: C_7  and  C_8
REMARK    4  A    between atoms: C_12  and  N_13
REMARK                            x       y       z     vdW  Elec       q    Type
REMARK                         _______ _______ _______ _____ _____    ______ ____
ROOT
ATOM      1  C   UNL     1      47.658   7.559  13.507  0.00  0.00    +0.000 A 
ATOM      2  C   UNL     1      46.926   8.750  13.404  0.00  0.00    +0.000 A 
ATOM      3  C   UNL     1      45.619   8.771  12.916  0.00  0.00    +0.000 A 
ATOM      4  C   UNL     1      45.020   7.590  12.490  0.00  0.00    +0.000 A 
ATOM      5  C   UNL     1      45.697   6.368  12.589  0.00  0.00    +0.000 A 
ATOM      6  C   UNL     1      46.987   6.372  13.156  0.00  0.00    +0.000 A 
ENDROOT
BRANCH   5   7
ATOM      7  N   UNL     1      45.143   5.169  12.051  0.00  0.00    +0.000 N 
ATOM      8  C   UNL     1      44.864   5.026  10.706  0.00  0.00    +0.000 C 
ATOM      9  C   UNL     1      44.115   3.869  10.293  0.00  0.00    +0.000 C 
ATOM     10  C   UNL     1      43.728   2.983  11.225  0.00  0.00    +0.000 C 
ATOM     11  N   UNL     1      43.997   3.102  12.572  0.00  0.00    +0.000 NA
ATOM     12  C   UNL     1      44.667   4.169  12.899  0.00  0.00    +0.000 C 
ENDBRANCH   5   7
BRANCH   1  13
ATOM     13  C   UNL     1      49.140   7.547  13.879  0.00  0.00    +0.000 C 
ATOM     14  C   UNL     1      50.156   7.798  12.762  0.00  0.00    +0.000 C 
ATOM     15  C   UNL     1      49.917   8.856  13.781  0.00  0.00    +0.000 C 
BRANCH  13  16
ATOM     16  O   UNL     1      49.572   6.519  14.821  0.00  0.00    +0.000 OA
BRANCH  16  21
ATOM     17 CL   UNL     1      47.335   6.198  20.238  0.00  0.00    +0.000 Cl
ATOM     18  C   UNL     1      47.895   6.330  18.618  0.00  0.00    +0.000 A 
ATOM     19  C   UNL     1      48.411   7.546  18.171  0.00  0.00    +0.000 A 
ATOM     20  C   UNL     1      48.928   7.638  16.880  0.00  0.00    +0.000 A 
ATOM     21  C   UNL     1      48.960   6.518  16.051  0.00  0.00    +0.000 A 
ATOM     22  C   UNL     1      48.380   5.323  16.476  0.00  0.00    +0.000 A 
ATOM     23  C   UNL     1      47.852   5.229  17.767  0.00  0.00    +0.000 A 
ENDBRANCH  16  21
ENDBRANCH  13  16
ENDBRANCH   1  13
TORSDOF 4
ENDMDL
MODEL 7
REMARK VINA RESULT:    -5.748      3.140      6.362
REMARK INTER + INTRA:          -8.062
REMARK INTER:                  -7.113
REMARK INTRA:                  -0.949
REMARK UNBOUND:                -0.970
REMARK  Name = 
REMARK  4 active torsions:
REMARK  status: ('A' for Active; 'I' for Inactive)
REMARK    1  A    between atoms: C_5  and  O_6
REMARK    2  A    between atoms: O_6  and  C_7
REMARK    3  A    between atoms: C_7  and  C_8
REMARK    4  A    between atoms: C_12  and  N_13
REMARK                            x       y       z     vdW  Elec       q    Type
REMARK                         _______ _______ _______ _____ _____    ______ ____
ROOT
ATOM      1  C   UNL     1      45.398   4.900  12.781  0.00  0.00    +0.000 A 
ATOM      2  C   UNL     1      44.109   5.443  12.886  0.00  0.00    +0.000 A 
ATOM      3  C   UNL     1      43.173   5.321  11.858  0.00  0.00    +0.000 A 
ATOM      4  C   UNL     1      43.521   4.670  10.679  0.00  0.00    +0.000 A 
ATOM      5  C   UNL     1      44.786   4.091  10.527  0.00  0.00    +0.000 A 
ATOM      6  C   UNL     1      45.682   4.167  11.612  0.00  0.00    +0.000 A 
ENDROOT
BRANCH   5   7
ATOM      7  N   UNL     1      45.197   3.523   9.286  0.00  0.00    +0.000 N 
ATOM      8  C   UNL     1      45.363   2.162   9.118  0.00  0.00    +0.000 C 
ATOM      9  C   UNL     1      45.981   1.703   7.902  0.00  0.00    +0.000 C 
ATOM     10  C   UNL     1      46.361   2.612   6.988  0.00  0.00    +0.000 C 
ATOM     11  N   UNL     1      46.204   3.974   7.131  0.00  0.00    +0.000 NA
ATOM     12  C   UNL     1      45.651   4.341   8.250  0.00  0.00    +0.000 C 
ENDBRANCH   5   7
BRANCH   1  13
ATOM     13  C   UNL     1      46.480   5.171  13.824  0.00  0.00    +0.000 C 
ATOM     14  C   UNL     1      46.454   4.341  15.110  0.00  0.00    +0.000 C 
ATOM     15  C   UNL     1      47.510   4.078  14.094  0.00  0.00    +0.000 C 
BRANCH  13  16
ATOM     16  O   UNL     1      46.832   6.569  14.056  0.00  0.00    +0.000 OA
BRANCH  16  21
ATOM     17 CL   UNL     1      51.471   8.945  11.357  0.00  0.00    +0.000 Cl
ATOM     18  C   UNL     1      50.160   8.153  12.136  0.00  0.00    +0.000 A 
ATOM     19  C   UNL     1      50.231   7.901  13.506  0.00  0.00    +0.000 A 
ATOM     20  C   UNL     1      49.143   7.320  14.154  0.00  0.00    +0.000 A 
ATOM     21  C   UNL     1      47.978   7.022  13.447  0.00  0.00    +0.000 A 
ATOM     22  C   UNL     1      47.936   7.211  12.066  0.00  0.00    +0.000 A 
ATOM     23  C   UNL     1      49.030   7.785  11.411  0.00  0.00    +0.000 A 
ENDBRANCH  16  21
ENDBRANCH  13  16
ENDBRANCH   1  13
TORSDOF 4
ENDMDL
MODEL 8
REMARK VINA RESULT:    -5.686      3.290      5.555
REMARK INTER + INTRA:          -7.985
REMARK INTER:                  -7.160
REMARK INTRA:                  -0.825
REMARK UNBOUND:                -0.970
REMARK  Name = 
REMARK  4 active torsions:
REMARK  status: ('A' for Active; 'I' for Inactive)
REMARK    1  A    between atoms: C_5  and  O_6
REMARK    2  A    between atoms: O_6  and  C_7
REMARK    3  A    between atoms: C_7  and  C_8
REMARK    4  A    between atoms: C_12  and  N_13
REMARK                            x       y       z     vdW  Elec       q    Type
REMARK                         _______ _______ _______ _____ _____    ______ ____
ROOT
ATOM      1  C   UNL     1      48.197   7.976  14.322  0.00  0.00    +0.000 A 
ATOM      2  C   UNL     1      48.152   9.107  15.151  0.00  0.00    +0.000 A 
ATOM      3  C   UNL     1      48.468   9.038  16.508  0.00  0.00    +0.000 A 
ATOM      4  C   UNL     1      48.813   7.816  17.077  0.00  0.00    +0.000 A 
ATOM      5  C   UNL     1      48.895   6.658  16.294  0.00  0.00    +0.000 A 
ATOM      6  C   UNL     1      48.642   6.777  14.913  0.00  0.00    +0.000 A 
ENDROOT
BRANCH   5   7
ATOM      7  N   UNL     1      49.133   5.382  16.881  0.00  0.00    +0.000 N 
ATOM      8  C   UNL     1      50.350   5.045  17.441  0.00  0.00    +0.000 C 
ATOM      9  C   UNL     1      50.562   3.672  17.815  0.00  0.00    +0.000 C 
ATOM     10  C   UNL     1      49.574   2.786  17.609  0.00  0.00    +0.000 C 
ATOM     11  N   UNL     1      48.350   3.098  17.056  0.00  0.00    +0.000 NA
ATOM     12  C   UNL     1      48.209   4.348  16.724  0.00  0.00    +0.000 C 
ENDBRANCH   5   7
BRANCH   1  13
ATOM     13  C   UNL     1      47.692   8.006  12.881  0.00  0.00    +0.000 C 
ATOM     14  C   UNL     1      48.374   8.970  11.907  0.00  0.00    +0.000 C 
ATOM     15  C   UNL     1      48.625   7.508  11.781  0.00  0.00    +0.000 C 
BRANCH  13  16
ATOM     16  O   UNL     1      46.247   7.933  12.690  0.00  0.00    +0.000 OA
BRANCH  16  21
ATOM     17 CL   UNL     1      43.646   2.839  11.371  0.00  0.00    +0.000 Cl
ATOM     18  C   UNL     1      44.501   4.287  11.728  0.00  0.00    +0.000 A 
ATOM     19  C   UNL     1      44.746   5.204  10.707  0.00  0.00    +0.000 A 
ATOM     20  C   UNL     1      45.379   6.409  11.006  0.00  0.00    +0.000 A 
ATOM     21  C   UNL     1      45.737   6.712  12.319  0.00  0.00    +0.000 A 
ATOM     22  C   UNL     1      45.555   5.763  13.325  0.00  0.00    +0.000 A 
ATOM     23  C   UNL     1      44.928   4.549  13.027  0.00  0.00    +0.000 A 
ENDBRANCH  16  21
ENDBRANCH  13  16
ENDBRANCH   1  13
TORSDOF 4
ENDMDL
MODEL 9
REMARK VINA RESULT:    -4.964      3.431      6.972
REMARK INTER + INTRA:          -7.095
REMARK INTER:                  -6.121
REMARK INTRA:                  -0.973
REMARK UNBOUND:                -0.970
REMARK  Name = 
REMARK  4 active torsions:
REMARK  status: ('A' for Active; 'I' for Inactive)
REMARK    1  A    between atoms: C_5  and  O_6
REMARK    2  A    between atoms: O_6  and  C_7
REMARK    3  A    between atoms: C_7  and  C_8
REMARK    4  A    between atoms: C_12  and  N_13
REMARK                            x       y       z     vdW  Elec       q    Type
REMARK                         _______ _______ _______ _____ _____    ______ ____
ROOT
ATOM      1  C   UNL     1      47.755   8.103  13.634  0.00  0.00    +0.000 A 
ATOM      2  C   UNL     1      47.050   9.247  13.235  0.00  0.00    +0.000 A 
ATOM      3  C   UNL     1      45.865   9.164  12.502  0.00  0.00    +0.000 A 
ATOM      4  C   UNL     1      45.371   7.920  12.125  0.00  0.00    +0.000 A 
ATOM      5  C   UNL     1      46.022   6.742  12.513  0.00  0.00    +0.000 A 
ATOM      6  C   UNL     1      47.175   6.859  13.316  0.00  0.00    +0.000 A 
ENDROOT
BRANCH   5   7
ATOM      7  N   UNL     1      45.595   5.468  12.039  0.00  0.00    +0.000 N 
ATOM      8  C   UNL     1      44.894   5.319  10.857  0.00  0.00    +0.000 C 
ATOM      9  C   UNL     1      44.324   4.030  10.570  0.00  0.00    +0.000 C 
ATOM     10  C   UNL     1      44.501   3.034  11.453  0.00  0.00    +0.000 C 
ATOM     11  N   UNL     1      45.198   3.156  12.636  0.00  0.00    +0.000 NA
ATOM     12  C   UNL     1      45.686   4.342  12.858  0.00  0.00    +0.000 C 
ENDBRANCH   5   7
BRANCH   1  13
ATOM     13  C   UNL     1      49.134   8.186  14.286  0.00  0.00    +0.000 C 
ATOM     14  C   UNL     1      49.206   8.092  15.812  0.00  0.00    +0.000 C 
ATOM     15  C   UNL     1      49.674   6.943  14.989  0.00  0.00    +0.000 C 
BRANCH  13  16
ATOM     16  O   UNL     1      50.065   9.164  13.731  0.00  0.00    +0.000 OA
BRANCH  16  21
ATOM     17 CL   UNL     1      53.754   6.902   9.766  0.00  0.00    +0.000 Cl
ATOM     18  C   UNL     1      52.671   7.655  10.868  0.00  0.00    +0.000 A 
ATOM     19  C   UNL     1      51.299   7.588  10.629  0.00  0.00    +0.000 A 
ATOM     20  C   UNL     1      50.415   8.139  11.555  0.00  0.00    +0.000 A 
ATOM     21  C   UNL     1      50.893   8.722  12.727  0.00  0.00    +0.000 A 
ATOM     22  C   UNL     1      52.267   8.848  12.930  0.00  0.00    +0.000 A 
ATOM     23  C   UNL     1      53.158   8.306  11.999  0.00  0.00    +0.000 A 
ENDBRANCH  16  21
ENDBRANCH  13  16
ENDBRANCH   1  13
TORSDOF 4
ENDMDL
