MODEL 1
REMARK VINA RESULT:    -7.537      0.000      0.000
REMARK INTER + INTRA:         -10.121
REMARK INTER:                  -9.300
REMARK INTRA:                  -0.821
REMARK UNBOUND:                -0.821
REMARK  Name = 
REMARK  4 active torsions:
REMARK  status: ('A' for Active; 'I' for Inactive)
REMARK    1  A    between atoms: C_5  and  O_6
REMARK    2  A    between atoms: O_6  and  C_7
REMARK    3  A    between atoms: C_7  and  C_8
REMARK    4  A    between atoms: C_12  and  C_13
REMARK                            x       y       z     vdW  Elec       q    Type
REMARK                         _______ _______ _______ _____ _____    ______ ____
ROOT
ATOM      1  C   UNL     1      45.058   4.770  12.081  0.00  0.00    +0.000 A 
ATOM      2  C   UNL     1      45.410   3.629  12.804  0.00  0.00    +0.000 A 
ATOM      3  C   UNL     1      46.626   3.596  13.466  0.00  0.00    +0.000 A 
ATOM      4  N   UNL     1      47.520   4.608  13.460  0.00  0.00    +0.000 NA
ATOM      5  C   UNL     1      47.186   5.735  12.788  0.00  0.00    +0.000 A 
ATOM      6  C   UNL     1      45.971   5.840  12.109  0.00  0.00    +0.000 A 
ENDROOT
BRANCH   5   7
ATOM      7  C   UNL     1      48.195   6.816  12.788  0.00  0.00    +0.000 A 
ATOM      8  C   UNL     1      48.966   7.080  13.930  0.00  0.00    +0.000 A 
ATOM      9  C   UNL     1      49.924   8.082  13.891  0.00  0.00    +0.000 A 
ATOM     10  N   UNL     1      50.172   8.841  12.805  0.00  0.00    +0.000 NA
ATOM     11  C   UNL     1      49.419   8.592  11.715  0.00  0.00    +0.000 A 
ATOM     12  C   UNL     1      48.440   7.610  11.660  0.00  0.00    +0.000 A 
ENDBRANCH   5   7
BRANCH   1  13
ATOM     13  C   UNL     1      43.770   4.849  11.276  0.00  0.00    +0.000 C 
ATOM     14  C   UNL     1      42.499   5.238  12.035  0.00  0.00    +0.000 C 
ATOM     15  C   UNL     1      43.098   6.189  11.054  0.00  0.00    +0.000 C 
BRANCH  13  16
ATOM     16  O   UNL     1      43.496   3.756  10.370  0.00  0.00    +0.000 OA
BRANCH  16  21
ATOM     17 CL   UNL     1      47.743   2.360   6.633  0.00  0.00    +0.000 Cl
ATOM     18  C   UNL     1      46.450   2.754   7.689  0.00  0.00    +0.000 A 
ATOM     19  C   UNL     1      45.847   1.766   8.462  0.00  0.00    +0.000 A 
ATOM     20  C   UNL     1      44.830   2.130   9.339  0.00  0.00    +0.000 A 
ATOM     21  C   UNL     1      44.442   3.463   9.403  0.00  0.00    +0.000 A 
ATOM     22  N   UNL     1      44.987   4.443   8.648  0.00  0.00    +0.000 NA
ATOM     23  C   UNL     1      45.983   4.058   7.806  0.00  0.00    +0.000 A 
ENDBRANCH  16  21
ENDBRANCH  13  16
ENDBRANCH   1  13
TORSDOF 4
ENDMDL
MODEL 2
REMARK VINA RESULT:    -6.850      1.995      3.197
REMARK INTER + INTRA:          -9.273
REMARK INTER:                  -8.970
REMARK INTRA:                  -0.303
REMARK UNBOUND:                -0.821
REMARK  Name = 
REMARK  4 active torsions:
REMARK  status: ('A' for Active; 'I' for Inactive)
REMARK    1  A    between atoms: C_5  and  O_6
REMARK    2  A    between atoms: O_6  and  C_7
REMARK    3  A    between atoms: C_7  and  C_8
REMARK    4  A    between atoms: C_12  and  C_13
REMARK                            x       y       z     vdW  Elec       q    Type
REMARK                         _______ _______ _______ _____ _____    ______ ____
ROOT
ATOM      1  C   UNL     1      45.511   5.323  12.411  0.00  0.00    +0.000 A 
ATOM      2  C   UNL     1      46.300   6.315  11.827  0.00  0.00    +0.000 A 
ATOM      3  C   UNL     1      47.450   6.735  12.475  0.00  0.00    +0.000 A 
ATOM      4  N   UNL     1      47.872   6.245  13.661  0.00  0.00    +0.000 NA
ATOM      5  C   UNL     1      47.137   5.261  14.231  0.00  0.00    +0.000 A 
ATOM      6  C   UNL     1      45.972   4.784  13.626  0.00  0.00    +0.000 A 
ENDROOT
BRANCH   5   7
ATOM      7  C   UNL     1      47.618   4.762  15.536  0.00  0.00    +0.000 A 
ATOM      8  C   UNL     1      48.390   5.578  16.378  0.00  0.00    +0.000 A 
ATOM      9  C   UNL     1      48.805   5.092  17.609  0.00  0.00    +0.000 A 
ATOM     10  N   UNL     1      48.512   3.857  18.065  0.00  0.00    +0.000 NA
ATOM     11  C   UNL     1      47.782   3.074  17.247  0.00  0.00    +0.000 A 
ATOM     12  C   UNL     1      47.321   3.474  16.001  0.00  0.00    +0.000 A 
ENDBRANCH   5   7
BRANCH   1  13
ATOM     13  C   UNL     1      44.201   4.863  11.788  0.00  0.00    +0.000 C 
ATOM     14  C   UNL     1      42.932   5.055  12.621  0.00  0.00    +0.000 C 
ATOM     15  C   UNL     1      43.150   5.883  11.399  0.00  0.00    +0.000 C 
BRANCH  13  16
ATOM     16  O   UNL     1      44.197   3.560  11.161  0.00  0.00    +0.000 OA
BRANCH  16  21
ATOM     17 CL   UNL     1      47.030   2.843   6.121  0.00  0.00    +0.000 Cl
ATOM     18  C   UNL     1      46.140   3.042   7.574  0.00  0.00    +0.000 A 
ATOM     19  C   UNL     1      45.789   1.935   8.341  0.00  0.00    +0.000 A 
ATOM     20  C   UNL     1      45.105   2.139   9.536  0.00  0.00    +0.000 A 
ATOM     21  C   UNL     1      44.786   3.438   9.915  0.00  0.00    +0.000 A 
ATOM     22  N   UNL     1      45.088   4.532   9.182  0.00  0.00    +0.000 NA
ATOM     23  C   UNL     1      45.762   4.302   8.024  0.00  0.00    +0.000 A 
ENDBRANCH  16  21
ENDBRANCH  13  16
ENDBRANCH   1  13
TORSDOF 4
ENDMDL
MODEL 3
REMARK VINA RESULT:    -6.605      3.172      6.662
REMARK INTER + INTRA:          -8.970
REMARK INTER:                  -8.412
REMARK INTRA:                  -0.559
REMARK UNBOUND:                -0.821
REMARK  Name = 
REMARK  4 active torsions:
REMARK  status: ('A' for Active; 'I' for Inactive)
REMARK    1  A    between atoms: C_5  and  O_6
REMARK    2  A    between atoms: O_6  and  C_7
REMARK    3  A    between atoms: C_7  and  C_8
REMARK    4  A    between atoms: C_12  and  C_13
REMARK                            x       y       z     vdW  Elec       q    Type
REMARK                         _______ _______ _______ _____ _____    ______ ____
ROOT
ATOM      1  C   UNL     1      45.345   6.303  11.568  0.00  0.00    +0.000 A 
ATOM      2  C   UNL     1      43.959   6.294  11.733  0.00  0.00    +0.000 A 
ATOM      3  C   UNL     1      43.191   5.427  10.974  0.00  0.00    +0.000 A 
ATOM      4  N   UNL     1      43.697   4.569  10.061  0.00  0.00    +0.000 NA
ATOM      5  C   UNL     1      45.041   4.541   9.904  0.00  0.00    +0.000 A 
ATOM      6  C   UNL     1      45.875   5.381  10.646  0.00  0.00    +0.000 A 
ENDROOT
BRANCH   5   7
ATOM      7  C   UNL     1      45.558   3.605   8.884  0.00  0.00    +0.000 A 
ATOM      8  C   UNL     1      46.124   4.082   7.692  0.00  0.00    +0.000 A 
ATOM      9  C   UNL     1      46.625   3.181   6.765  0.00  0.00    +0.000 A 
ATOM     10  N   UNL     1      46.605   1.843   6.932  0.00  0.00    +0.000 NA
ATOM     11  C   UNL     1      46.049   1.390   8.073  0.00  0.00    +0.000 A 
ATOM     12  C   UNL     1      45.524   2.215   9.058  0.00  0.00    +0.000 A 
ENDBRANCH   5   7
BRANCH   1  13
ATOM     13  C   UNL     1      46.241   7.276  12.318  0.00  0.00    +0.000 C 
ATOM     14  C   UNL     1      46.283   8.717  11.806  0.00  0.00    +0.000 C 
ATOM     15  C   UNL     1      45.627   8.412  13.111  0.00  0.00    +0.000 C 
BRANCH  13  16
ATOM     16  O   UNL     1      47.575   6.820  12.642  0.00  0.00    +0.000 OA
BRANCH  16  21
ATOM     17 CL   UNL     1      47.911   4.082  17.773  0.00  0.00    +0.000 Cl
ATOM     18  C   UNL     1      47.856   4.847  16.239  0.00  0.00    +0.000 A 
ATOM     19  C   UNL     1      47.041   4.342  15.230  0.00  0.00    +0.000 A 
ATOM     20  C   UNL     1      46.989   5.014  14.012  0.00  0.00    +0.000 A 
ATOM     21  C   UNL     1      47.761   6.157  13.842  0.00  0.00    +0.000 A 
ATOM     22  N   UNL     1      48.582   6.660  14.790  0.00  0.00    +0.000 NA
ATOM     23  C   UNL     1      48.607   5.986  15.971  0.00  0.00    +0.000 A 
ENDBRANCH  16  21
ENDBRANCH  13  16
ENDBRANCH   1  13
TORSDOF 4
ENDMDL
MODEL 4
REMARK VINA RESULT:    -6.258      3.611      6.745
REMARK INTER + INTRA:          -8.542
REMARK INTER:                  -7.915
REMARK INTRA:                  -0.627
REMARK UNBOUND:                -0.821
REMARK  Name = 
REMARK  4 active torsions:
REMARK  status: ('A' for Active; 'I' for Inactive)
REMARK    1  A    between atoms: C_5  and  O_6
REMARK    2  A    between atoms: O_6  and  C_7
REMARK    3  A    between atoms: C_7  and  C_8
REMARK    4  A    between atoms: C_12  and  C_13
REMARK                            x       y       z     vdW  Elec       q    Type
REMARK                         _______ _______ _______ _____ _____    ______ ____
ROOT
ATOM      1  C   UNL     1      45.165   5.978  11.463  0.00  0.00    +0.000 A 
ATOM      2  C   UNL     1      43.826   5.698  11.738  0.00  0.00    +0.000 A 
ATOM      3  C   UNL     1      43.183   4.698  11.028  0.00  0.00    +0.000 A 
ATOM      4  N   UNL     1      43.770   3.958  10.063  0.00  0.00    +0.000 NA
ATOM      5  C   UNL     1      45.077   4.193   9.799  0.00  0.00    +0.000 A 
ATOM      6  C   UNL     1      45.788   5.180  10.486  0.00  0.00    +0.000 A 
ENDROOT
BRANCH   5   7
ATOM      7  C   UNL     1      45.682   3.378   8.725  0.00  0.00    +0.000 A 
ATOM      8  C   UNL     1      45.766   1.982   8.843  0.00  0.00    +0.000 A 
ATOM      9  C   UNL     1      46.313   1.241   7.807  0.00  0.00    +0.000 A 
ATOM     10  N   UNL     1      46.785   1.782   6.665  0.00  0.00    +0.000 NA
ATOM     11  C   UNL     1      46.714   3.124   6.564  0.00  0.00    +0.000 A 
ATOM     12  C   UNL     1      46.182   3.946   7.546  0.00  0.00    +0.000 A 
ENDBRANCH   5   7
BRANCH   1  13
ATOM     13  C   UNL     1      45.912   7.107  12.156  0.00  0.00    +0.000 C 
ATOM     14  C   UNL     1      46.988   6.709  13.169  0.00  0.00    +0.000 C 
ATOM     15  C   UNL     1      47.384   7.328  11.870  0.00  0.00    +0.000 C 
BRANCH  13  16
ATOM     16  O   UNL     1      45.116   8.198  12.674  0.00  0.00    +0.000 OA
BRANCH  16  21
ATOM     17 CL   UNL     1      44.756  12.782   9.097  0.00  0.00    +0.000 Cl
ATOM     18  C   UNL     1      44.818  11.460  10.188  0.00  0.00    +0.000 A 
ATOM     19  C   UNL     1      43.895  10.423  10.089  0.00  0.00    +0.000 A 
ATOM     20  C   UNL     1      44.002   9.345  10.964  0.00  0.00    +0.000 A 
ATOM     21  C   UNL     1      45.018   9.349  11.912  0.00  0.00    +0.000 A 
ATOM     22  N   UNL     1      45.914  10.351  12.053  0.00  0.00    +0.000 NA
ATOM     23  C   UNL     1      45.789  11.385  11.181  0.00  0.00    +0.000 A 
ENDBRANCH  16  21
ENDBRANCH  13  16
ENDBRANCH   1  13
TORSDOF 4
ENDMDL
MODEL 5
REMARK VINA RESULT:    -5.995      3.869      7.635
REMARK INTER + INTRA:          -8.218
REMARK INTER:                  -7.446
REMARK INTRA:                  -0.773
REMARK UNBOUND:                -0.821
REMARK  Name = 
REMARK  4 active torsions:
REMARK  status: ('A' for Active; 'I' for Inactive)
REMARK    1  A    between atoms: C_5  and  O_6
REMARK    2  A    between atoms: O_6  and  C_7
REMARK    3  A    between atoms: C_7  and  C_8
REMARK    4  A    between atoms: C_12  and  C_13
REMARK                            x       y       z     vdW  Elec       q    Type
REMARK                         _______ _______ _______ _____ _____    ______ ____
ROOT
ATOM      1  C   UNL     1      47.580   7.656  12.535  0.00  0.00    +0.000 A 
ATOM      2  C   UNL     1      46.740   8.760  12.691  0.00  0.00    +0.000 A 
ATOM      3  C   UNL     1      45.380   8.611  12.481  0.00  0.00    +0.000 A 
ATOM      4  N   UNL     1      44.791   7.448  12.125  0.00  0.00    +0.000 NA
ATOM      5  C   UNL     1      45.583   6.358  11.996  0.00  0.00    +0.000 A 
ATOM      6  C   UNL     1      46.962   6.436  12.204  0.00  0.00    +0.000 A 
ENDROOT
BRANCH   5   7
ATOM      7  C   UNL     1      44.909   5.108  11.587  0.00  0.00    +0.000 A 
ATOM      8  C   UNL     1      44.145   4.371  12.505  0.00  0.00    +0.000 A 
ATOM      9  C   UNL     1      43.501   3.216  12.085  0.00  0.00    +0.000 A 
ATOM     10  N   UNL     1      43.561   2.739  10.826  0.00  0.00    +0.000 NA
ATOM     11  C   UNL     1      44.307   3.444   9.953  0.00  0.00    +0.000 A 
ATOM     12  C   UNL     1      44.984   4.610  10.280  0.00  0.00    +0.000 A 
ENDBRANCH   5   7
BRANCH   1  13
ATOM     13  C   UNL     1      49.090   7.763  12.683  0.00  0.00    +0.000 C 
ATOM     14  C   UNL     1      49.915   7.773  11.394  0.00  0.00    +0.000 C 
ATOM     15  C   UNL     1      49.809   9.013  12.217  0.00  0.00    +0.000 C 
BRANCH  13  16
ATOM     16  O   UNL     1      49.713   6.909  13.670  0.00  0.00    +0.000 OA
BRANCH  16  21
ATOM     17 CL   UNL     1      48.171   7.354  19.271  0.00  0.00    +0.000 Cl
ATOM     18  C   UNL     1      48.566   7.241  17.605  0.00  0.00    +0.000 A 
ATOM     19  C   UNL     1      48.965   8.372  16.899  0.00  0.00    +0.000 A 
ATOM     20  C   UNL     1      49.320   8.235  15.560  0.00  0.00    +0.000 A 
ATOM     21  C   UNL     1      49.250   6.977  14.972  0.00  0.00    +0.000 A 
ATOM     22  N   UNL     1      48.841   5.864  15.620  0.00  0.00    +0.000 NA
ATOM     23  C   UNL     1      48.508   6.028  16.928  0.00  0.00    +0.000 A 
ENDBRANCH  16  21
ENDBRANCH  13  16
ENDBRANCH   1  13
TORSDOF 4
ENDMDL
MODEL 6
REMARK VINA RESULT:    -5.847      4.790      7.921
REMARK INTER + INTRA:          -8.036
REMARK INTER:                  -8.153
REMARK INTRA:                   0.117
REMARK UNBOUND:                -0.821
REMARK  Name = 
REMARK  4 active torsions:
REMARK  status: ('A' for Active; 'I' for Inactive)
REMARK    1  A    between atoms: C_5  and  O_6
REMARK    2  A    between atoms: O_6  and  C_7
REMARK    3  A    between atoms: C_7  and  C_8
REMARK    4  A    between atoms: C_12  and  C_13
REMARK                            x       y       z     vdW  Elec       q    Type
REMARK                         _______ _______ _______ _____ _____    ______ ____
ROOT
ATOM      1  C   UNL     1      47.726   5.236  15.287  0.00  0.00    +0.000 A 
ATOM      2  C   UNL     1      48.388   6.332  14.731  0.00  0.00    +0.000 A 
ATOM      3  C   UNL     1      48.025   6.775  13.470  0.00  0.00    +0.000 A 
ATOM      4  N   UNL     1      47.056   6.208  12.719  0.00  0.00    +0.000 NA
ATOM      5  C   UNL     1      46.382   5.161  13.250  0.00  0.00    +0.000 A 
ATOM      6  C   UNL     1      46.689   4.671  14.521  0.00  0.00    +0.000 A 
ENDROOT
BRANCH   5   7
ATOM      7  C   UNL     1      45.342   4.554  12.393  0.00  0.00    +0.000 A 
ATOM      8  C   UNL     1      45.124   5.021  11.087  0.00  0.00    +0.000 A 
ATOM      9  C   UNL     1      44.160   4.414  10.297  0.00  0.00    +0.000 A 
ATOM     10  N   UNL     1      43.396   3.381  10.705  0.00  0.00    +0.000 NA
ATOM     11  C   UNL     1      43.601   2.946  11.964  0.00  0.00    +0.000 A 
ATOM     12  C   UNL     1      44.543   3.489  12.827  0.00  0.00    +0.000 A 
ENDBRANCH   5   7
BRANCH   1  13
ATOM     13  C   UNL     1      48.118   4.656  16.637  0.00  0.00    +0.000 C 
ATOM     14  C   UNL     1      47.149   4.883  17.799  0.00  0.00    +0.000 C 
ATOM     15  C   UNL     1      47.318   3.514  17.231  0.00  0.00    +0.000 C 
BRANCH  13  16
ATOM     16  O   UNL     1      49.480   4.874  17.072  0.00  0.00    +0.000 OA
BRANCH  16  21
ATOM     17 CL   UNL     1      53.163   0.417  17.792  0.00  0.00    +0.000 Cl
ATOM     18  C   UNL     1      52.054   1.717  17.638  0.00  0.00    +0.000 A 
ATOM     19  C   UNL     1      52.356   2.966  18.175  0.00  0.00    +0.000 A 
ATOM     20  C   UNL     1      51.452   4.008  17.993  0.00  0.00    +0.000 A 
ATOM     21  C   UNL     1      50.275   3.763  17.295  0.00  0.00    +0.000 A 
ATOM     22  N   UNL     1      49.939   2.558  16.784  0.00  0.00    +0.000 NA
ATOM     23  C   UNL     1      50.844   1.561  16.971  0.00  0.00    +0.000 A 
ENDBRANCH  16  21
ENDBRANCH  13  16
ENDBRANCH   1  13
TORSDOF 4
ENDMDL
MODEL 7
REMARK VINA RESULT:    -5.615      4.488      8.004
REMARK INTER + INTRA:          -7.749
REMARK INTER:                  -7.206
REMARK INTRA:                  -0.544
REMARK UNBOUND:                -0.821
REMARK  Name = 
REMARK  4 active torsions:
REMARK  status: ('A' for Active; 'I' for Inactive)
REMARK    1  A    between atoms: C_5  and  O_6
REMARK    2  A    between atoms: O_6  and  C_7
REMARK    3  A    between atoms: C_7  and  C_8
REMARK    4  A    between atoms: C_12  and  C_13
REMARK                            x       y       z     vdW  Elec       q    Type
REMARK                         _______ _______ _______ _____ _____    ______ ____
ROOT
ATOM      1  C   UNL     1      47.587   7.275  14.046  0.00  0.00    +0.000 A 
ATOM      2  C   UNL     1      47.131   8.552  13.713  0.00  0.00    +0.000 A 
ATOM      3  C   UNL     1      46.031   8.684  12.883  0.00  0.00    +0.000 A 
ATOM      4  N   UNL     1      45.351   7.642  12.356  0.00  0.00    +0.000 NA
ATOM      5  C   UNL     1      45.758   6.395  12.688  0.00  0.00    +0.000 A 
ATOM      6  C   UNL     1      46.854   6.190  13.529  0.00  0.00    +0.000 A 
ENDROOT
BRANCH   5   7
ATOM      7  C   UNL     1      45.003   5.280  12.078  0.00  0.00    +0.000 A 
ATOM      8  C   UNL     1      44.584   4.187  12.853  0.00  0.00    +0.000 A 
ATOM      9  C   UNL     1      43.854   3.169  12.259  0.00  0.00    +0.000 A 
ATOM     10  N   UNL     1      43.511   3.154  10.955  0.00  0.00    +0.000 NA
ATOM     11  C   UNL     1      43.928   4.199  10.213  0.00  0.00    +0.000 A 
ATOM     12  C   UNL     1      44.660   5.263  10.720  0.00  0.00    +0.000 A 
ENDBRANCH   5   7
BRANCH   1  13
ATOM     13  C   UNL     1      48.829   7.057  14.896  0.00  0.00    +0.000 C 
ATOM     14  C   UNL     1      50.142   7.638  14.369  0.00  0.00    +0.000 C 
ATOM     15  C   UNL     1      49.498   8.236  15.574  0.00  0.00    +0.000 C 
BRANCH  13  16
ATOM     16  O   UNL     1      49.043   5.723  15.412  0.00  0.00    +0.000 OA
BRANCH  16  21
ATOM     17 CL   UNL     1      48.665   4.476  21.091  0.00  0.00    +0.000 Cl
ATOM     18  C   UNL     1      48.794   4.903  19.434  0.00  0.00    +0.000 A 
ATOM     19  C   UNL     1      50.025   4.848  18.788  0.00  0.00    +0.000 A 
ATOM     20  C   UNL     1      50.084   5.159  17.433  0.00  0.00    +0.000 A 
ATOM     21  C   UNL     1      48.915   5.527  16.776  0.00  0.00    +0.000 A 
ATOM     22  N   UNL     1      47.709   5.616  17.378  0.00  0.00    +0.000 NA
ATOM     23  C   UNL     1      47.681   5.299  18.700  0.00  0.00    +0.000 A 
ENDBRANCH  16  21
ENDBRANCH  13  16
ENDBRANCH   1  13
TORSDOF 4
ENDMDL
MODEL 8
REMARK VINA RESULT:    -5.430      5.433      8.859
REMARK INTER + INTRA:          -7.522
REMARK INTER:                  -6.961
REMARK INTRA:                  -0.560
REMARK UNBOUND:                -0.821
REMARK  Name = 
REMARK  4 active torsions:
REMARK  status: ('A' for Active; 'I' for Inactive)
REMARK    1  A    between atoms: C_5  and  O_6
REMARK    2  A    between atoms: O_6  and  C_7
REMARK    3  A    between atoms: C_7  and  C_8
REMARK    4  A    between atoms: C_12  and  C_13
REMARK                            x       y       z     vdW  Elec       q    Type
REMARK                         _______ _______ _______ _____ _____    ______ ____
ROOT
ATOM      1  C   UNL     1      47.711   4.839  15.693  0.00  0.00    +0.000 A 
ATOM      2  C   UNL     1      48.409   5.950  15.216  0.00  0.00    +0.000 A 
ATOM      3  C   UNL     1      48.004   6.548  14.034  0.00  0.00    +0.000 A 
ATOM      4  N   UNL     1      46.961   6.123  13.289  0.00  0.00    +0.000 NA
ATOM      5  C   UNL     1      46.252   5.065  13.748  0.00  0.00    +0.000 A 
ATOM      6  C   UNL     1      46.599   4.422  14.938  0.00  0.00    +0.000 A 
ENDROOT
BRANCH   5   7
ATOM      7  C   UNL     1      45.129   4.616  12.899  0.00  0.00    +0.000 A 
ATOM      8  C   UNL     1      45.195   3.398  12.205  0.00  0.00    +0.000 A 
ATOM      9  C   UNL     1      44.114   2.990  11.437  0.00  0.00    +0.000 A 
ATOM     10  N   UNL     1      42.976   3.701  11.305  0.00  0.00    +0.000 NA
ATOM     11  C   UNL     1      42.925   4.876  11.962  0.00  0.00    +0.000 A 
ATOM     12  C   UNL     1      43.954   5.365  12.755  0.00  0.00    +0.000 A 
ENDBRANCH   5   7
BRANCH   1  13
ATOM     13  C   UNL     1      48.141   4.093  16.947  0.00  0.00    +0.000 C 
ATOM     14  C   UNL     1      48.549   2.628  16.778  0.00  0.00    +0.000 C 
ATOM     15  C   UNL     1      49.582   3.653  17.108  0.00  0.00    +0.000 C 
BRANCH  13  16
ATOM     16  O   UNL     1      47.308   4.248  18.119  0.00  0.00    +0.000 OA
BRANCH  16  21
ATOM     17 CL   UNL     1      49.357   8.098  21.983  0.00  0.00    +0.000 Cl
ATOM     18  C   UNL     1      48.698   6.962  20.878  0.00  0.00    +0.000 A 
ATOM     19  C   UNL     1      47.905   7.392  19.818  0.00  0.00    +0.000 A 
ATOM     20  C   UNL     1      47.423   6.447  18.917  0.00  0.00    +0.000 A 
ATOM     21  C   UNL     1      47.740   5.108  19.113  0.00  0.00    +0.000 A 
ATOM     22  N   UNL     1      48.486   4.654  20.145  0.00  0.00    +0.000 NA
ATOM     23  C   UNL     1      48.947   5.600  21.005  0.00  0.00    +0.000 A 
ENDBRANCH  16  21
ENDBRANCH  13  16
ENDBRANCH   1  13
TORSDOF 4
ENDMDL
MODEL 9
REMARK VINA RESULT:    -5.335      3.182      6.728
REMARK INTER + INTRA:          -7.404
REMARK INTER:                  -6.846
REMARK INTRA:                  -0.558
REMARK UNBOUND:                -0.821
REMARK  Name = 
REMARK  4 active torsions:
REMARK  status: ('A' for Active; 'I' for Inactive)
REMARK    1  A    between atoms: C_5  and  O_6
REMARK    2  A    between atoms: O_6  and  C_7
REMARK    3  A    between atoms: C_7  and  C_8
REMARK    4  A    between atoms: C_12  and  C_13
REMARK                            x       y       z     vdW  Elec       q    Type
REMARK                         _______ _______ _______ _____ _____    ______ ____
ROOT
ATOM      1  C   UNL     1      47.979   6.665  14.247  0.00  0.00    +0.000 A 
ATOM      2  C   UNL     1      48.304   5.849  15.332  0.00  0.00    +0.000 A 
ATOM      3  C   UNL     1      47.580   4.688  15.547  0.00  0.00    +0.000 A 
ATOM      4  N   UNL     1      46.555   4.280  14.768  0.00  0.00    +0.000 NA
ATOM      5  C   UNL     1      46.241   5.041  13.694  0.00  0.00    +0.000 A 
ATOM      6  C   UNL     1      46.938   6.218  13.412  0.00  0.00    +0.000 A 
ENDROOT
BRANCH   5   7
ATOM      7  C   UNL     1      45.104   4.574  12.874  0.00  0.00    +0.000 A 
ATOM      8  C   UNL     1      43.916   5.318  12.803  0.00  0.00    +0.000 A 
ATOM      9  C   UNL     1      42.875   4.868  12.004  0.00  0.00    +0.000 A 
ATOM     10  N   UNL     1      42.925   3.735  11.274  0.00  0.00    +0.000 NA
ATOM     11  C   UNL     1      44.063   3.018  11.358  0.00  0.00    +0.000 A 
ATOM     12  C   UNL     1      45.156   3.390  12.127  0.00  0.00    +0.000 A 
ENDBRANCH   5   7
BRANCH   1  13
ATOM     13  C   UNL     1      48.687   7.986  13.990  0.00  0.00    +0.000 C 
ATOM     14  C   UNL     1      48.557   9.065  15.068  0.00  0.00    +0.000 C 
ATOM     15  C   UNL     1      49.870   8.390  14.848  0.00  0.00    +0.000 C 
BRANCH  13  16
ATOM     16  O   UNL     1      48.528   8.570  12.677  0.00  0.00    +0.000 OA
BRANCH  16  21
ATOM     17 CL   UNL     1      53.494   8.877   9.645  0.00  0.00    +0.000 Cl
ATOM     18  C   UNL     1      51.999   8.787  10.482  0.00  0.00    +0.000 A 
ATOM     19  C   UNL     1      51.379   7.558  10.684  0.00  0.00    +0.000 A 
ATOM     20  C   UNL     1      50.189   7.518  11.405  0.00  0.00    +0.000 A 
ATOM     21  C   UNL     1      49.656   8.708  11.887  0.00  0.00    +0.000 A 
ATOM     22  N   UNL     1      50.217   9.921  11.687  0.00  0.00    +0.000 NA
ATOM     23  C   UNL     1      51.381   9.927  10.985  0.00  0.00    +0.000 A 
ENDBRANCH  16  21
ENDBRANCH  13  16
ENDBRANCH   1  13
TORSDOF 4
ENDMDL
