MODEL 1
REMARK VINA RESULT:    -5.977      0.000      0.000
REMARK INTER + INTRA:          -7.832
REMARK INTER:                  -7.549
REMARK INTRA:                  -0.283
REMARK UNBOUND:                -0.283
REMARK  Name = 
REMARK  6 active torsions:
REMARK  status: ('A' for Active; 'I' for Inactive)
REMARK    1  A    between atoms: C_1  and  O_2
REMARK    2  A    between atoms: O_2  and  C_3
REMARK    3  A    between atoms: C_7  and  C_8
REMARK    4  A    between atoms: C_9  and  C_10
REMARK    5  A    between atoms: CA_13  and  C_14
REMARK    6  A    between atoms: C_14  and  OXT_16
REMARK                            x       y       z     vdW  Elec       q    Type
REMARK                         _______ _______ _______ _____ _____    ______ ____
ROOT
ATOM      1  C   UNL     1      46.233   4.956  13.853  0.00  0.00    +0.000 C 
ATOM      2  C   UNL     1      47.064   4.077  14.441  0.00  0.00    +0.000 C 
ENDROOT
BRANCH   1   7
ATOM      3  C   UNL     1      44.794   3.684  10.605  0.00  0.00    +0.000 A 
ATOM      4  C   UNL     1      45.010   4.768   9.756  0.00  0.00    +0.000 A 
ATOM      5  C   UNL     1      45.667   5.905  10.227  0.00  0.00    +0.000 A 
ATOM      6  C   UNL     1      46.094   5.972  11.554  0.00  0.00    +0.000 A 
ATOM      7  C   UNL     1      45.851   4.911  12.432  0.00  0.00    +0.000 A 
ATOM      8  C   UNL     1      45.227   3.757  11.934  0.00  0.00    +0.000 A 
BRANCH   3  10
ATOM      9  C   UNL     1      44.635   1.864   9.086  0.00  0.00    +0.000 C 
ATOM     10  O   UNL     1      44.168   2.516  10.262  0.00  0.00    +0.000 OA
ENDBRANCH   3  10
ENDBRANCH   1   7
BRANCH   2  11
ATOM     11  C   UNL     1      47.507   4.185  15.837  0.00  0.00    +0.000 A 
ATOM     12  C   UNL     1      48.184   5.318  16.300  0.00  0.00    +0.000 A 
ATOM     13  N   UNL     1      48.585   5.480  17.590  0.00  0.00    +0.000 NA
ATOM     14  CA  UNL     1      48.265   4.436  18.409  0.00  0.00    +0.000 A 
ATOM     15  C   UNL     1      47.598   3.307  17.970  0.00  0.00    +0.000 A 
ATOM     16  N   UNL     1      47.210   3.161  16.678  0.00  0.00    +0.000 NA
BRANCH  14  17
ATOM     17  C   UNL     1      48.668   4.561  19.831  0.00  0.00    +0.000 C 
ATOM     18  O   UNL     1      49.198   5.543  20.319  0.00  0.00    +0.000 OA
BRANCH  17  19
ATOM     19  OXT UNL     1      48.368   3.430  20.513  0.00  0.00    +0.000 OA
ATOM     20  HXT UNL     1      48.216   2.694  19.874  0.00  0.00    +0.000 HD
ENDBRANCH  17  19
ENDBRANCH  14  17
ENDBRANCH   2  11
TORSDOF 5
ENDMDL
MODEL 2
REMARK VINA RESULT:    -5.868      2.369      8.013
REMARK INTER + INTRA:          -7.694
REMARK INTER:                  -7.384
REMARK INTRA:                  -0.311
REMARK UNBOUND:                -0.283
REMARK  Name = 
REMARK  6 active torsions:
REMARK  status: ('A' for Active; 'I' for Inactive)
REMARK    1  A    between atoms: C_1  and  O_2
REMARK    2  A    between atoms: O_2  and  C_3
REMARK    3  A    between atoms: C_7  and  C_8
REMARK    4  A    between atoms: C_9  and  C_10
REMARK    5  A    between atoms: CA_13  and  C_14
REMARK    6  A    between atoms: C_14  and  OXT_16
REMARK                            x       y       z     vdW  Elec       q    Type
REMARK                         _______ _______ _______ _____ _____    ______ ____
ROOT
ATOM      1  C   UNL     1      47.198   4.125  15.949  0.00  0.00    +0.000 C 
ATOM      2  C   UNL     1      47.232   4.893  14.846  0.00  0.00    +0.000 C 
ENDROOT
BRANCH   1   7
ATOM      3  C   UNL     1      50.281   3.705  18.085  0.00  0.00    +0.000 A 
ATOM      4  C   UNL     1      49.991   4.537  19.166  0.00  0.00    +0.000 A 
ATOM      5  C   UNL     1      48.769   5.207  19.225  0.00  0.00    +0.000 A 
ATOM      6  C   UNL     1      47.838   5.064  18.196  0.00  0.00    +0.000 A 
ATOM      7  C   UNL     1      48.125   4.264  17.084  0.00  0.00    +0.000 A 
ATOM      8  C   UNL     1      49.341   3.564  17.058  0.00  0.00    +0.000 A 
BRANCH   3  10
ATOM      9  C   UNL     1      51.309   1.691  17.356  0.00  0.00    +0.000 C 
ATOM     10  O   UNL     1      51.438   2.994  17.915  0.00  0.00    +0.000 OA
ENDBRANCH   3  10
ENDBRANCH   1   7
BRANCH   2  11
ATOM     11  C   UNL     1      46.360   4.686  13.683  0.00  0.00    +0.000 A 
ATOM     12  C   UNL     1      45.839   5.766  12.963  0.00  0.00    +0.000 A 
ATOM     13  N   UNL     1      45.056   5.627  11.860  0.00  0.00    +0.000 NA
ATOM     14  CA  UNL     1      44.818   4.331  11.504  0.00  0.00    +0.000 A 
ATOM     15  C   UNL     1      45.322   3.250  12.203  0.00  0.00    +0.000 A 
ATOM     16  N   UNL     1      46.099   3.409  13.304  0.00  0.00    +0.000 NA
BRANCH  14  17
ATOM     17  C   UNL     1      43.977   4.117  10.301  0.00  0.00    +0.000 C 
ATOM     18  O   UNL     1      43.857   3.055   9.717  0.00  0.00    +0.000 OA
BRANCH  17  19
ATOM     19  OXT UNL     1      43.359   5.267   9.941  0.00  0.00    +0.000 OA
ATOM     20  HXT UNL     1      42.890   5.645  10.723  0.00  0.00    +0.000 HD
ENDBRANCH  17  19
ENDBRANCH  14  17
ENDBRANCH   2  11
TORSDOF 5
ENDMDL
MODEL 3
REMARK VINA RESULT:    -5.795      0.731      1.165
REMARK INTER + INTRA:          -7.602
REMARK INTER:                  -7.313
REMARK INTRA:                  -0.289
REMARK UNBOUND:                -0.283
REMARK  Name = 
REMARK  6 active torsions:
REMARK  status: ('A' for Active; 'I' for Inactive)
REMARK    1  A    between atoms: C_1  and  O_2
REMARK    2  A    between atoms: O_2  and  C_3
REMARK    3  A    between atoms: C_7  and  C_8
REMARK    4  A    between atoms: C_9  and  C_10
REMARK    5  A    between atoms: CA_13  and  C_14
REMARK    6  A    between atoms: C_14  and  OXT_16
REMARK                            x       y       z     vdW  Elec       q    Type
REMARK                         _______ _______ _______ _____ _____    ______ ____
ROOT
ATOM      1  C   UNL     1      46.177   4.584  14.037  0.00  0.00    +0.000 C 
ATOM      2  C   UNL     1      47.427   4.798  14.483  0.00  0.00    +0.000 C 
ENDROOT
BRANCH   1   7
ATOM      3  C   UNL     1      44.626   3.730  10.704  0.00  0.00    +0.000 A 
ATOM      4  C   UNL     1      44.876   4.889   9.970  0.00  0.00    +0.000 A 
ATOM      5  C   UNL     1      45.591   5.940  10.545  0.00  0.00    +0.000 A 
ATOM      6  C   UNL     1      46.043   5.846  11.862  0.00  0.00    +0.000 A 
ATOM      7  C   UNL     1      45.769   4.708  12.628  0.00  0.00    +0.000 A 
ATOM      8  C   UNL     1      45.085   3.641  12.023  0.00  0.00    +0.000 A 
BRANCH   3  10
ATOM      9  C   UNL     1      44.526   1.921   9.167  0.00  0.00    +0.000 C 
ATOM     10  O   UNL     1      43.942   2.633  10.252  0.00  0.00    +0.000 OA
ENDBRANCH   3  10
ENDBRANCH   1   7
BRANCH   2  11
ATOM     11  C   UNL     1      47.802   4.758  15.903  0.00  0.00    +0.000 A 
ATOM     12  C   UNL     1      47.180   3.878  16.794  0.00  0.00    +0.000 A 
ATOM     13  N   UNL     1      47.515   3.778  18.109  0.00  0.00    +0.000 NA
ATOM     14  CA  UNL     1      48.522   4.615  18.494  0.00  0.00    +0.000 A 
ATOM     15  C   UNL     1      49.148   5.493  17.628  0.00  0.00    +0.000 A 
ATOM     16  N   UNL     1      48.798   5.581  16.320  0.00  0.00    +0.000 NA
BRANCH  14  17
ATOM     17  C   UNL     1      48.937   4.544  19.916  0.00  0.00    +0.000 C 
ATOM     18  O   UNL     1      49.725   5.306  20.448  0.00  0.00    +0.000 OA
BRANCH  17  19
ATOM     19  OXT UNL     1      48.319   3.514  20.542  0.00  0.00    +0.000 OA
ATOM     20  HXT UNL     1      48.998   2.875  20.865  0.00  0.00    +0.000 HD
ENDBRANCH  17  19
ENDBRANCH  14  17
ENDBRANCH   2  11
TORSDOF 5
ENDMDL
MODEL 4
REMARK VINA RESULT:    -5.727      1.999      8.328
REMARK INTER + INTRA:          -7.516
REMARK INTER:                  -7.226
REMARK INTRA:                  -0.290
REMARK UNBOUND:                -0.283
REMARK  Name = 
REMARK  6 active torsions:
REMARK  status: ('A' for Active; 'I' for Inactive)
REMARK    1  A    between atoms: C_1  and  O_2
REMARK    2  A    between atoms: O_2  and  C_3
REMARK    3  A    between atoms: C_7  and  C_8
REMARK    4  A    between atoms: C_9  and  C_10
REMARK    5  A    between atoms: CA_13  and  C_14
REMARK    6  A    between atoms: C_14  and  OXT_16
REMARK                            x       y       z     vdW  Elec       q    Type
REMARK                         _______ _______ _______ _____ _____    ______ ____
ROOT
ATOM      1  C   UNL     1      47.043   4.270  16.042  0.00  0.00    +0.000 C 
ATOM      2  C   UNL     1      47.224   4.869  14.852  0.00  0.00    +0.000 C 
ENDROOT
BRANCH   1   7
ATOM      3  C   UNL     1      48.277   5.288  19.460  0.00  0.00    +0.000 A 
ATOM      4  C   UNL     1      49.553   4.725  19.479  0.00  0.00    +0.000 A 
ATOM      5  C   UNL     1      50.035   4.047  18.359  0.00  0.00    +0.000 A 
ATOM      6  C   UNL     1      49.238   3.911  17.222  0.00  0.00    +0.000 A 
ATOM      7  C   UNL     1      47.941   4.434  17.197  0.00  0.00    +0.000 A 
ATOM      8  C   UNL     1      47.484   5.150  18.314  0.00  0.00    +0.000 A 
BRANCH   3  10
ATOM      9  C   UNL     1      47.843   5.423  21.792  0.00  0.00    +0.000 C 
ATOM     10  O   UNL     1      47.695   5.978  20.489  0.00  0.00    +0.000 OA
ENDBRANCH   3  10
ENDBRANCH   1   7
BRANCH   2  11
ATOM     11  C   UNL     1      46.371   4.627  13.681  0.00  0.00    +0.000 A 
ATOM     12  C   UNL     1      45.829   5.686  12.946  0.00  0.00    +0.000 A 
ATOM     13  N   UNL     1      45.062   5.516  11.836  0.00  0.00    +0.000 NA
ATOM     14  CA  UNL     1      44.864   4.210  11.488  0.00  0.00    +0.000 A 
ATOM     15  C   UNL     1      45.390   3.150  12.203  0.00  0.00    +0.000 A 
ATOM     16  N   UNL     1      46.149   3.340  13.311  0.00  0.00    +0.000 NA
BRANCH  14  17
ATOM     17  C   UNL     1      44.042   3.963  10.279  0.00  0.00    +0.000 C 
ATOM     18  O   UNL     1      43.861   2.868   9.775  0.00  0.00    +0.000 OA
BRANCH  17  19
ATOM     19  OXT UNL     1      43.521   5.121   9.810  0.00  0.00    +0.000 OA
ATOM     20  HXT UNL     1      44.146   5.520   9.159  0.00  0.00    +0.000 HD
ENDBRANCH  17  19
ENDBRANCH  14  17
ENDBRANCH   2  11
TORSDOF 5
ENDMDL
MODEL 5
REMARK VINA RESULT:    -5.397      6.416     10.419
REMARK INTER + INTRA:          -7.100
REMARK INTER:                  -6.820
REMARK INTRA:                  -0.280
REMARK UNBOUND:                -0.283
REMARK  Name = 
REMARK  6 active torsions:
REMARK  status: ('A' for Active; 'I' for Inactive)
REMARK    1  A    between atoms: C_1  and  O_2
REMARK    2  A    between atoms: O_2  and  C_3
REMARK    3  A    between atoms: C_7  and  C_8
REMARK    4  A    between atoms: C_9  and  C_10
REMARK    5  A    between atoms: CA_13  and  C_14
REMARK    6  A    between atoms: C_14  and  OXT_16
REMARK                            x       y       z     vdW  Elec       q    Type
REMARK                         _______ _______ _______ _____ _____    ______ ____
ROOT
ATOM      1  C   UNL     1      45.437   3.558   7.836  0.00  0.00    +0.000 C 
ATOM      2  C   UNL     1      46.601   2.962   7.522  0.00  0.00    +0.000 C 
ENDROOT
BRANCH   1   7
ATOM      3  C   UNL     1      43.909   5.011  10.966  0.00  0.00    +0.000 A 
ATOM      4  C   UNL     1      44.834   5.998  11.300  0.00  0.00    +0.000 A 
ATOM      5  C   UNL     1      45.941   6.225  10.482  0.00  0.00    +0.000 A 
ATOM      6  C   UNL     1      46.139   5.454   9.336  0.00  0.00    +0.000 A 
ATOM      7  C   UNL     1      45.243   4.433   9.004  0.00  0.00    +0.000 A 
ATOM      8  C   UNL     1      44.112   4.243   9.813  0.00  0.00    +0.000 A 
BRANCH   3  10
ATOM      9  C   UNL     1      42.853   4.889  13.091  0.00  0.00    +0.000 C 
ATOM     10  O   UNL     1      42.786   4.696  11.682  0.00  0.00    +0.000 OA
ENDBRANCH   3  10
ENDBRANCH   1   7
BRANCH   2  11
ATOM     11  C   UNL     1      46.759   2.021   6.405  0.00  0.00    +0.000 A 
ATOM     12  C   UNL     1      46.721   2.457   5.077  0.00  0.00    +0.000 A 
ATOM     13  N   UNL     1      46.896   1.632   4.010  0.00  0.00    +0.000 NA
ATOM     14  CA  UNL     1      47.118   0.327   4.343  0.00  0.00    +0.000 A 
ATOM     15  C   UNL     1      47.157  -0.123   5.650  0.00  0.00    +0.000 A 
ATOM     16  N   UNL     1      46.976   0.714   6.702  0.00  0.00    +0.000 NA
BRANCH  14  17
ATOM     17  C   UNL     1      47.325  -0.619   3.220  0.00  0.00    +0.000 C 
ATOM     18  O   UNL     1      47.873  -0.339   2.169  0.00  0.00    +0.000 OA
BRANCH  17  19
ATOM     19  OXT UNL     1      46.820  -1.838   3.523  0.00  0.00    +0.000 OA
ATOM     20  HXT UNL     1      46.960  -2.020   4.483  0.00  0.00    +0.000 HD
ENDBRANCH  17  19
ENDBRANCH  14  17
ENDBRANCH   2  11
TORSDOF 5
ENDMDL
MODEL 6
REMARK VINA RESULT:    -5.162      2.452      7.948
REMARK INTER + INTRA:          -6.803
REMARK INTER:                  -6.472
REMARK INTRA:                  -0.331
REMARK UNBOUND:                -0.283
REMARK  Name = 
REMARK  6 active torsions:
REMARK  status: ('A' for Active; 'I' for Inactive)
REMARK    1  A    between atoms: C_1  and  O_2
REMARK    2  A    between atoms: O_2  and  C_3
REMARK    3  A    between atoms: C_7  and  C_8
REMARK    4  A    between atoms: C_9  and  C_10
REMARK    5  A    between atoms: CA_13  and  C_14
REMARK    6  A    between atoms: C_14  and  OXT_16
REMARK                            x       y       z     vdW  Elec       q    Type
REMARK                         _______ _______ _______ _____ _____    ______ ____
ROOT
ATOM      1  C   UNL     1      48.075   6.294  14.399  0.00  0.00    +0.000 C 
ATOM      2  C   UNL     1      47.283   5.208  14.402  0.00  0.00    +0.000 C 
ENDROOT
BRANCH   1   7
ATOM      3  C   UNL     1      49.513   6.407  17.887  0.00  0.00    +0.000 A 
ATOM      4  C   UNL     1      50.397   7.482  17.794  0.00  0.00    +0.000 A 
ATOM      5  C   UNL     1      50.497   8.204  16.604  0.00  0.00    +0.000 A 
ATOM      6  C   UNL     1      49.729   7.844  15.496  0.00  0.00    +0.000 A 
ATOM      7  C   UNL     1      48.865   6.745  15.557  0.00  0.00    +0.000 A 
ATOM      8  C   UNL     1      48.743   6.054  16.772  0.00  0.00    +0.000 A 
BRANCH   3  10
ATOM      9  C   UNL     1      48.586   4.422  18.807  0.00  0.00    +0.000 C 
ATOM     10  O   UNL     1      49.322   5.627  18.995  0.00  0.00    +0.000 OA
ENDBRANCH   3  10
ENDBRANCH   1   7
BRANCH   2  11
ATOM     11  C   UNL     1      46.432   4.819  13.270  0.00  0.00    +0.000 A 
ATOM     12  C   UNL     1      46.179   5.701  12.214  0.00  0.00    +0.000 A 
ATOM     13  N   UNL     1      45.427   5.377  11.128  0.00  0.00    +0.000 NA
ATOM     14  CA  UNL     1      44.934   4.104  11.149  0.00  0.00    +0.000 A 
ATOM     15  C   UNL     1      45.171   3.219  12.184  0.00  0.00    +0.000 A 
ATOM     16  N   UNL     1      45.921   3.561  13.262  0.00  0.00    +0.000 NA
BRANCH  14  17
ATOM     17  C   UNL     1      44.113   3.691   9.985  0.00  0.00    +0.000 C 
ATOM     18  O   UNL     1      43.930   2.537   9.639  0.00  0.00    +0.000 OA
BRANCH  17  19
ATOM     19  OXT UNL     1      43.596   4.774   9.358  0.00  0.00    +0.000 OA
ATOM     20  HXT UNL     1      44.331   5.350   9.041  0.00  0.00    +0.000 HD
ENDBRANCH  17  19
ENDBRANCH  14  17
ENDBRANCH   2  11
TORSDOF 5
ENDMDL
MODEL 7
REMARK VINA RESULT:    -5.146      5.464      7.407
REMARK INTER + INTRA:          -6.783
REMARK INTER:                  -6.504
REMARK INTRA:                  -0.279
REMARK UNBOUND:                -0.283
REMARK  Name = 
REMARK  6 active torsions:
REMARK  status: ('A' for Active; 'I' for Inactive)
REMARK    1  A    between atoms: C_1  and  O_2
REMARK    2  A    between atoms: O_2  and  C_3
REMARK    3  A    between atoms: C_7  and  C_8
REMARK    4  A    between atoms: C_9  and  C_10
REMARK    5  A    between atoms: CA_13  and  C_14
REMARK    6  A    between atoms: C_14  and  OXT_16
REMARK                            x       y       z     vdW  Elec       q    Type
REMARK                         _______ _______ _______ _____ _____    ______ ____
ROOT
ATOM      1  C   UNL     1      49.229   7.624  11.561  0.00  0.00    +0.000 C 
ATOM      2  C   UNL     1      48.870   6.902  12.636  0.00  0.00    +0.000 C 
ENDROOT
BRANCH   1   7
ATOM      3  C   UNL     1      52.783   8.266  10.464  0.00  0.00    +0.000 A 
ATOM      4  C   UNL     1      53.021   9.530  11.001  0.00  0.00    +0.000 A 
ATOM      5  C   UNL     1      52.038  10.163  11.762  0.00  0.00    +0.000 A 
ATOM      6  C   UNL     1      50.805   9.544  11.974  0.00  0.00    +0.000 A 
ATOM      7  C   UNL     1      50.532   8.293  11.411  0.00  0.00    +0.000 A 
ATOM      8  C   UNL     1      51.545   7.650  10.683  0.00  0.00    +0.000 A 
BRANCH   3  10
ATOM      9  C   UNL     1      54.400   8.263   8.723  0.00  0.00    +0.000 C 
ATOM     10  O   UNL     1      53.665   7.543   9.707  0.00  0.00    +0.000 OA
ENDBRANCH   3  10
ENDBRANCH   1   7
BRANCH   2  11
ATOM     11  C   UNL     1      47.535   6.314  12.812  0.00  0.00    +0.000 A 
ATOM     12  C   UNL     1      46.418   6.836  12.151  0.00  0.00    +0.000 A 
ATOM     13  N   UNL     1      45.169   6.307  12.254  0.00  0.00    +0.000 NA
ATOM     14  CA  UNL     1      45.092   5.209  13.062  0.00  0.00    +0.000 A 
ATOM     15  C   UNL     1      46.184   4.680  13.724  0.00  0.00    +0.000 A 
ATOM     16  N   UNL     1      47.422   5.223  13.613  0.00  0.00    +0.000 NA
BRANCH  14  17
ATOM     17  C   UNL     1      43.755   4.584  13.205  0.00  0.00    +0.000 C 
ATOM     18  O   UNL     1      43.538   3.386  13.144  0.00  0.00    +0.000 OA
BRANCH  17  19
ATOM     19  OXT UNL     1      42.806   5.528  13.412  0.00  0.00    +0.000 OA
ATOM     20  HXT UNL     1      43.112   6.150  14.115  0.00  0.00    +0.000 HD
ENDBRANCH  17  19
ENDBRANCH  14  17
ENDBRANCH   2  11
TORSDOF 5
ENDMDL
MODEL 8
REMARK VINA RESULT:    -5.084      4.875      7.608
REMARK INTER + INTRA:          -6.704
REMARK INTER:                  -6.398
REMARK INTRA:                  -0.307
REMARK UNBOUND:                -0.283
REMARK  Name = 
REMARK  6 active torsions:
REMARK  status: ('A' for Active; 'I' for Inactive)
REMARK    1  A    between atoms: C_1  and  O_2
REMARK    2  A    between atoms: O_2  and  C_3
REMARK    3  A    between atoms: C_7  and  C_8
REMARK    4  A    between atoms: C_9  and  C_10
REMARK    5  A    between atoms: CA_13  and  C_14
REMARK    6  A    between atoms: C_14  and  OXT_16
REMARK                            x       y       z     vdW  Elec       q    Type
REMARK                         _______ _______ _______ _____ _____    ______ ____
ROOT
ATOM      1  C   UNL     1      48.367   7.451  11.739  0.00  0.00    +0.000 C 
ATOM      2  C   UNL     1      47.025   7.459  11.816  0.00  0.00    +0.000 C 
ENDROOT
BRANCH   1   7
ATOM      3  C   UNL     1      51.392   9.634  11.172  0.00  0.00    +0.000 A 
ATOM      4  C   UNL     1      50.841  10.911  11.266  0.00  0.00    +0.000 A 
ATOM      5  C   UNL     1      49.486  11.068  11.558  0.00  0.00    +0.000 A 
ATOM      6  C   UNL     1      48.671   9.950  11.739  0.00  0.00    +0.000 A 
ATOM      7  C   UNL     1      49.196   8.660  11.610  0.00  0.00    +0.000 A 
ATOM      8  C   UNL     1      50.570   8.517  11.358  0.00  0.00    +0.000 A 
BRANCH   3  10
ATOM      9  C   UNL     1      52.945   8.372   9.892  0.00  0.00    +0.000 C 
ATOM     10  O   UNL     1      52.703   9.350  10.896  0.00  0.00    +0.000 OA
ENDBRANCH   3  10
ENDBRANCH   1   7
BRANCH   2  11
ATOM     11  C   UNL     1      46.204   6.242  11.854  0.00  0.00    +0.000 A 
ATOM     12  C   UNL     1      45.813   5.667  13.068  0.00  0.00    +0.000 A 
ATOM     13  N   UNL     1      45.026   4.561  13.157  0.00  0.00    +0.000 NA
ATOM     14  CA  UNL     1      44.639   4.052  11.950  0.00  0.00    +0.000 A 
ATOM     15  C   UNL     1      45.016   4.606  10.741  0.00  0.00    +0.000 A 
ATOM     16  N   UNL     1      45.806   5.707  10.672  0.00  0.00    +0.000 NA
BRANCH  14  17
ATOM     17  C   UNL     1      43.771   2.850  11.985  0.00  0.00    +0.000 C 
ATOM     18  O   UNL     1      43.272   2.383  12.993  0.00  0.00    +0.000 OA
BRANCH  17  19
ATOM     19  OXT UNL     1      43.610   2.342  10.740  0.00  0.00    +0.000 OA
ATOM     20  HXT UNL     1      44.148   1.519  10.651  0.00  0.00    +0.000 HD
ENDBRANCH  17  19
ENDBRANCH  14  17
ENDBRANCH   2  11
TORSDOF 5
ENDMDL
MODEL 9
REMARK VINA RESULT:    -5.029      5.110      6.474
REMARK INTER + INTRA:          -6.635
REMARK INTER:                  -6.331
REMARK INTRA:                  -0.304
REMARK UNBOUND:                -0.283
REMARK  Name = 
REMARK  6 active torsions:
REMARK  status: ('A' for Active; 'I' for Inactive)
REMARK    1  A    between atoms: C_1  and  O_2
REMARK    2  A    between atoms: O_2  and  C_3
REMARK    3  A    between atoms: C_7  and  C_8
REMARK    4  A    between atoms: C_9  and  C_10
REMARK    5  A    between atoms: CA_13  and  C_14
REMARK    6  A    between atoms: C_14  and  OXT_16
REMARK                            x       y       z     vdW  Elec       q    Type
REMARK                         _______ _______ _______ _____ _____    ______ ____
ROOT
ATOM      1  C   UNL     1      44.295   9.169  11.435  0.00  0.00    +0.000 C 
ATOM      2  C   UNL     1      44.284   7.833  11.281  0.00  0.00    +0.000 C 
ENDROOT
BRANCH   1   7
ATOM      3  C   UNL     1      41.458  11.109   9.877  0.00  0.00    +0.000 A 
ATOM      4  C   UNL     1      42.137  11.935   8.983  0.00  0.00    +0.000 A 
ATOM      5  C   UNL     1      43.522  11.833   8.851  0.00  0.00    +0.000 A 
ATOM      6  C   UNL     1      44.238  10.919   9.626  0.00  0.00    +0.000 A 
ATOM      7  C   UNL     1      43.579  10.109  10.557  0.00  0.00    +0.000 A 
ATOM      8  C   UNL     1      42.181  10.192  10.649  0.00  0.00    +0.000 A 
BRANCH   3  10
ATOM      9  C   UNL     1      39.624  10.253  11.122  0.00  0.00    +0.000 C 
ATOM     10  O   UNL     1      40.106  11.111  10.093  0.00  0.00    +0.000 OA
ENDBRANCH   3  10
ENDBRANCH   1   7
BRANCH   2  11
ATOM     11  C   UNL     1      45.073   6.912  12.110  0.00  0.00    +0.000 A 
ATOM     12  C   UNL     1      46.358   7.248  12.548  0.00  0.00    +0.000 A 
ATOM     13  N   UNL     1      47.115   6.446  13.343  0.00  0.00    +0.000 NA
ATOM     14  CA  UNL     1      46.511   5.271  13.689  0.00  0.00    +0.000 A 
ATOM     15  C   UNL     1      45.242   4.921  13.265  0.00  0.00    +0.000 A 
ATOM     16  N   UNL     1      44.503   5.733  12.467  0.00  0.00    +0.000 NA
BRANCH  14  17
ATOM     17  C   UNL     1      47.285   4.359  14.564  0.00  0.00    +0.000 C 
ATOM     18  O   UNL     1      47.290   3.144  14.471  0.00  0.00    +0.000 OA
BRANCH  17  19
ATOM     19  OXT UNL     1      47.988   5.062  15.484  0.00  0.00    +0.000 OA
ATOM     20  HXT UNL     1      47.948   6.023  15.260  0.00  0.00    +0.000 HD
ENDBRANCH  17  19
ENDBRANCH  14  17
ENDBRANCH   2  11
TORSDOF 5
ENDMDL
