MODEL 1
REMARK VINA RESULT:    -7.996      0.000      0.000
REMARK INTER + INTRA:         -12.015
REMARK INTER:                 -11.268
REMARK INTRA:                  -0.746
REMARK UNBOUND:                -0.746
REMARK  Name = 
REMARK  7 active torsions:
REMARK  status: ('A' for Active; 'I' for Inactive)
REMARK    1  A    between atoms: C_2  and  C_20
REMARK    2  A    between atoms: N_3  and  C_4
REMARK    3  A    between atoms: C_4  and  C_5
REMARK    4  A    between atoms: C_8  and  C_9
REMARK    5  A    between atoms: C_9  and  N_10
REMARK    6  A    between atoms: N_10  and  C_11
REMARK    7  A    between atoms: C_11  and  C_12
REMARK                            x       y       z     vdW  Elec       q    Type
REMARK                         _______ _______ _______ _____ _____    ______ ____
ROOT
ATOM      1  C   UNL     1      46.804   5.684  13.120  0.00  0.00    +0.000 A 
ATOM      2  C   UNL     1      46.059   4.559  13.490  0.00  0.00    +0.000 A 
ATOM      3  C   UNL     1      45.010   4.109  12.686  0.00  0.00    +0.000 A 
ATOM      4  C   UNL     1      44.671   4.777  11.499  0.00  0.00    +0.000 A 
ATOM      5  C   UNL     1      45.445   5.881  11.114  0.00  0.00    +0.000 A 
ATOM      6  C   UNL     1      46.500   6.329  11.914  0.00  0.00    +0.000 A 
ENDROOT
BRANCH   1   7
ATOM      7  C   UNL     1      47.902   6.193  14.009  0.00  0.00    +0.000 C 
BRANCH   7  10
ATOM      8  O   UNL     1      49.911   6.242  15.918  0.00  0.00    +0.000 OA
ATOM      9  C   UNL     1      48.789   5.879  16.261  0.00  0.00    +0.000 C 
ATOM     10  N   UNL     1      47.728   5.818  15.386  0.00  0.00    +0.000 N 
ATOM     11  H   UNL     1      46.830   5.513  15.751  0.00  0.00    +0.000 HD
BRANCH   9  12
ATOM     12  C   UNL     1      48.471   5.485  17.641  0.00  0.00    +0.000 A 
ATOM     13  N   UNL     1      48.449   4.191  18.039  0.00  0.00    +0.000 NA
ATOM     14  N   UNL     1      48.128   4.271  19.350  0.00  0.00    +0.000 N 
ATOM     15  C   UNL     1      47.932   5.542  19.801  0.00  0.00    +0.000 A 
ATOM     16  N   UNL     1      47.595   5.900  21.056  0.00  0.00    +0.000 NA
ATOM     17  C   UNL     1      47.467   7.242  21.195  0.00  0.00    +0.000 A 
ATOM     18  C   UNL     1      47.654   8.185  20.189  0.00  0.00    +0.000 A 
ATOM     19  C   UNL     1      48.005   7.751  18.910  0.00  0.00    +0.000 A 
ATOM     20  C   UNL     1      48.149   6.368  18.713  0.00  0.00    +0.000 A 
ATOM     21  H   UNL     1      48.053   3.421  19.896  0.00  0.00    +0.000 HD
ENDBRANCH   9  12
ENDBRANCH   7  10
ENDBRANCH   1   7
BRANCH   4  22
ATOM     22  C   UNL     1      43.546   4.292  10.607  0.00  0.00    +0.000 C 
BRANCH  22  23
ATOM     23  N   UNL     1      44.045   3.805   9.319  0.00  0.00    +0.000 NA
ATOM     24  H   UNL     1      44.750   4.466   8.995  0.00  0.00    +0.000 HD
BRANCH  23  25
ATOM     25  C   UNL     1      44.685   2.487   9.442  0.00  0.00    +0.000 C 
BRANCH  25  26
ATOM     26  C   UNL     1      45.921   2.394   8.505  0.00  0.00    +0.000 C 
ATOM     27  C   UNL     1      45.711   3.251   7.249  0.00  0.00    +0.000 C 
ATOM     28  C   UNL     1      46.898   3.132   6.296  0.00  0.00    +0.000 C 
ATOM     29  C   UNL     1      47.195   1.668   5.993  0.00  0.00    +0.000 C 
ATOM     30  C   UNL     1      47.365   0.866   7.280  0.00  0.00    +0.000 C 
ATOM     31  N   UNL     1      46.195   0.985   8.149  0.00  0.00    +0.000 NA
ATOM     32  H   UNL     1      46.396   0.486   9.017  0.00  0.00    +0.000 HD
ENDBRANCH  25  26
ENDBRANCH  23  25
ENDBRANCH  22  23
ENDBRANCH   4  22
TORSDOF 7
ENDMDL
MODEL 2
REMARK VINA RESULT:    -7.983      1.753      2.480
REMARK INTER + INTRA:         -11.996
REMARK INTER:                 -10.990
REMARK INTRA:                  -1.005
REMARK UNBOUND:                -0.746
REMARK  Name = 
REMARK  7 active torsions:
REMARK  status: ('A' for Active; 'I' for Inactive)
REMARK    1  A    between atoms: C_2  and  C_20
REMARK    2  A    between atoms: N_3  and  C_4
REMARK    3  A    between atoms: C_4  and  C_5
REMARK    4  A    between atoms: C_8  and  C_9
REMARK    5  A    between atoms: C_9  and  N_10
REMARK    6  A    between atoms: N_10  and  C_11
REMARK    7  A    between atoms: C_11  and  C_12
REMARK                            x       y       z     vdW  Elec       q    Type
REMARK                         _______ _______ _______ _____ _____    ______ ____
ROOT
ATOM      1  C   UNL     1      46.009   6.920  12.369  0.00  0.00    +0.000 A 
ATOM      2  C   UNL     1      46.271   6.439  11.082  0.00  0.00    +0.000 A 
ATOM      3  C   UNL     1      45.521   5.387  10.553  0.00  0.00    +0.000 A 
ATOM      4  C   UNL     1      44.499   4.781  11.300  0.00  0.00    +0.000 A 
ATOM      5  C   UNL     1      44.215   5.292  12.574  0.00  0.00    +0.000 A 
ATOM      6  C   UNL     1      44.960   6.351  13.102  0.00  0.00    +0.000 A 
ENDROOT
BRANCH   1   7
ATOM      7  C   UNL     1      46.846   8.022  12.952  0.00  0.00    +0.000 C 
BRANCH   7  10
ATOM      8  O   UNL     1      49.049   6.408  13.426  0.00  0.00    +0.000 OA
ATOM      9  C   UNL     1      48.464   6.895  14.390  0.00  0.00    +0.000 C 
ATOM     10  N   UNL     1      47.359   7.705  14.257  0.00  0.00    +0.000 N 
ATOM     11  H   UNL     1      46.937   8.072  15.105  0.00  0.00    +0.000 HD
BRANCH   9  12
ATOM     12  C   UNL     1      48.894   6.663  15.777  0.00  0.00    +0.000 A 
ATOM     13  N   UNL     1      49.684   7.535  16.446  0.00  0.00    +0.000 NA
ATOM     14  N   UNL     1      49.831   6.958  17.661  0.00  0.00    +0.000 N 
ATOM     15  C   UNL     1      49.189   5.762  17.792  0.00  0.00    +0.000 A 
ATOM     16  N   UNL     1      49.181   4.978  18.888  0.00  0.00    +0.000 NA
ATOM     17  C   UNL     1      48.455   3.847  18.710  0.00  0.00    +0.000 A 
ATOM     18  C   UNL     1      47.777   3.491  17.549  0.00  0.00    +0.000 A 
ATOM     19  C   UNL     1      47.822   4.347  16.448  0.00  0.00    +0.000 A 
ATOM     20  C   UNL     1      48.562   5.533  16.581  0.00  0.00    +0.000 A 
ATOM     21  H   UNL     1      50.385   7.424  18.368  0.00  0.00    +0.000 HD
ENDBRANCH   9  12
ENDBRANCH   7  10
ENDBRANCH   1   7
BRANCH   4  22
ATOM     22  C   UNL     1      43.665   3.649  10.735  0.00  0.00    +0.000 C 
BRANCH  22  23
ATOM     23  N   UNL     1      44.438   2.412  10.613  0.00  0.00    +0.000 NA
ATOM     24  H   UNL     1      44.003   1.718  11.221  0.00  0.00    +0.000 HD
BRANCH  23  25
ATOM     25  C   UNL     1      44.417   1.885   9.240  0.00  0.00    +0.000 C 
BRANCH  25  26
ATOM     26  C   UNL     1      45.759   2.190   8.521  0.00  0.00    +0.000 C 
ATOM     27  C   UNL     1      45.564   3.272   7.450  0.00  0.00    +0.000 C 
ATOM     28  C   UNL     1      46.865   3.549   6.701  0.00  0.00    +0.000 C 
ATOM     29  C   UNL     1      47.455   2.251   6.158  0.00  0.00    +0.000 C 
ATOM     30  C   UNL     1      47.598   1.210   7.263  0.00  0.00    +0.000 C 
ATOM     31  N   UNL     1      46.323   0.955   7.934  0.00  0.00    +0.000 NA
ATOM     32  H   UNL     1      46.496   0.305   8.702  0.00  0.00    +0.000 HD
ENDBRANCH  25  26
ENDBRANCH  23  25
ENDBRANCH  22  23
ENDBRANCH   4  22
TORSDOF 7
ENDMDL
MODEL 3
REMARK VINA RESULT:    -7.437      2.533      9.412
REMARK INTER + INTRA:         -11.226
REMARK INTER:                 -10.341
REMARK INTRA:                  -0.886
REMARK UNBOUND:                -0.746
REMARK  Name = 
REMARK  7 active torsions:
REMARK  status: ('A' for Active; 'I' for Inactive)
REMARK    1  A    between atoms: C_2  and  C_20
REMARK    2  A    between atoms: N_3  and  C_4
REMARK    3  A    between atoms: C_4  and  C_5
REMARK    4  A    between atoms: C_8  and  C_9
REMARK    5  A    between atoms: C_9  and  N_10
REMARK    6  A    between atoms: N_10  and  C_11
REMARK    7  A    between atoms: C_11  and  C_12
REMARK                            x       y       z     vdW  Elec       q    Type
REMARK                         _______ _______ _______ _____ _____    ______ ____
ROOT
ATOM      1  C   UNL     1      46.264   7.357  12.470  0.00  0.00    +0.000 A 
ATOM      2  C   UNL     1      47.327   6.472  12.680  0.00  0.00    +0.000 A 
ATOM      3  C   UNL     1      48.357   6.800  13.564  0.00  0.00    +0.000 A 
ATOM      4  C   UNL     1      48.358   8.024  14.250  0.00  0.00    +0.000 A 
ATOM      5  C   UNL     1      47.271   8.891  14.065  0.00  0.00    +0.000 A 
ATOM      6  C   UNL     1      46.235   8.561  13.186  0.00  0.00    +0.000 A 
ENDROOT
BRANCH   1   7
ATOM      7  C   UNL     1      45.181   7.021  11.485  0.00  0.00    +0.000 C 
BRANCH   7  10
ATOM      8  O   UNL     1      43.078   5.438  10.619  0.00  0.00    +0.000 OA
ATOM      9  C   UNL     1      44.221   5.001  10.510  0.00  0.00    +0.000 C 
ATOM     10  N   UNL     1      45.329   5.710  10.915  0.00  0.00    +0.000 N 
ATOM     11  H   UNL     1      46.240   5.279  10.784  0.00  0.00    +0.000 HD
BRANCH   9  12
ATOM     12  C   UNL     1      44.512   3.682   9.929  0.00  0.00    +0.000 A 
ATOM     13  N   UNL     1      43.932   2.546  10.381  0.00  0.00    +0.000 NA
ATOM     14  N   UNL     1      44.459   1.586   9.587  0.00  0.00    +0.000 N 
ATOM     15  C   UNL     1      45.352   2.051   8.667  0.00  0.00    +0.000 A 
ATOM     16  N   UNL     1      46.027   1.309   7.766  0.00  0.00    +0.000 NA
ATOM     17  C   UNL     1      46.847   2.059   6.990  0.00  0.00    +0.000 A 
ATOM     18  C   UNL     1      47.009   3.438   7.072  0.00  0.00    +0.000 A 
ATOM     19  C   UNL     1      46.279   4.150   8.025  0.00  0.00    +0.000 A 
ATOM     20  C   UNL     1      45.415   3.419   8.857  0.00  0.00    +0.000 A 
ATOM     21  H   UNL     1      44.175   0.623   9.716  0.00  0.00    +0.000 HD
ENDBRANCH   9  12
ENDBRANCH   7  10
ENDBRANCH   1   7
BRANCH   4  22
ATOM     22  C   UNL     1      49.459   8.389  15.225  0.00  0.00    +0.000 C 
BRANCH  22  23
ATOM     23  N   UNL     1      49.782   7.278  16.123  0.00  0.00    +0.000 NA
ATOM     24  H   UNL     1      50.683   7.484  16.552  0.00  0.00    +0.000 HD
BRANCH  23  25
ATOM     25  C   UNL     1      48.791   7.139  17.200  0.00  0.00    +0.000 C 
BRANCH  25  26
ATOM     26  C   UNL     1      48.555   5.640  17.531  0.00  0.00    +0.000 C 
ATOM     27  C   UNL     1      49.831   4.824  17.277  0.00  0.00    +0.000 C 
ATOM     28  C   UNL     1      49.601   3.340  17.552  0.00  0.00    +0.000 C 
ATOM     29  C   UNL     1      48.388   2.835  16.778  0.00  0.00    +0.000 C 
ATOM     30  C   UNL     1      47.164   3.701  17.052  0.00  0.00    +0.000 C 
ATOM     31  N   UNL     1      47.418   5.109  16.747  0.00  0.00    +0.000 NA
ATOM     32  H   UNL     1      46.590   5.644  17.013  0.00  0.00    +0.000 HD
ENDBRANCH  25  26
ENDBRANCH  23  25
ENDBRANCH  22  23
ENDBRANCH   4  22
TORSDOF 7
ENDMDL
MODEL 4
REMARK VINA RESULT:    -7.431      1.381      1.971
REMARK INTER + INTRA:         -11.219
REMARK INTER:                 -10.434
REMARK INTRA:                  -0.785
REMARK UNBOUND:                -0.746
REMARK  Name = 
REMARK  7 active torsions:
REMARK  status: ('A' for Active; 'I' for Inactive)
REMARK    1  A    between atoms: C_2  and  C_20
REMARK    2  A    between atoms: N_3  and  C_4
REMARK    3  A    between atoms: C_4  and  C_5
REMARK    4  A    between atoms: C_8  and  C_9
REMARK    5  A    between atoms: C_9  and  N_10
REMARK    6  A    between atoms: N_10  and  C_11
REMARK    7  A    between atoms: C_11  and  C_12
REMARK                            x       y       z     vdW  Elec       q    Type
REMARK                         _______ _______ _______ _____ _____    ______ ____
ROOT
ATOM      1  C   UNL     1      47.045   6.299  12.848  0.00  0.00    +0.000 A 
ATOM      2  C   UNL     1      46.281   5.254  13.377  0.00  0.00    +0.000 A 
ATOM      3  C   UNL     1      45.117   4.830  12.732  0.00  0.00    +0.000 A 
ATOM      4  C   UNL     1      44.681   5.448  11.550  0.00  0.00    +0.000 A 
ATOM      5  C   UNL     1      45.470   6.470  11.004  0.00  0.00    +0.000 A 
ATOM      6  C   UNL     1      46.640   6.890  11.644  0.00  0.00    +0.000 A 
ENDROOT
BRANCH   1   7
ATOM      7  C   UNL     1      48.272   6.782  13.567  0.00  0.00    +0.000 C 
BRANCH   7  10
ATOM      8  O   UNL     1      50.177   6.446  15.552  0.00  0.00    +0.000 OA
ATOM      9  C   UNL     1      49.056   6.830  15.877  0.00  0.00    +0.000 C 
ATOM     10  N   UNL     1      48.043   7.022  14.966  0.00  0.00    +0.000 N 
ATOM     11  H   UNL     1      47.147   7.348  15.317  0.00  0.00    +0.000 HD
BRANCH   9  12
ATOM     12  C   UNL     1      48.695   7.128  17.271  0.00  0.00    +0.000 A 
ATOM     13  N   UNL     1      48.321   8.364  17.675  0.00  0.00    +0.000 NA
ATOM     14  N   UNL     1      48.076   8.202  18.996  0.00  0.00    +0.000 N 
ATOM     15  C   UNL     1      48.288   6.935  19.452  0.00  0.00    +0.000 A 
ATOM     16  N   UNL     1      48.130   6.508  20.721  0.00  0.00    +0.000 NA
ATOM     17  C   UNL     1      48.424   5.193  20.864  0.00  0.00    +0.000 A 
ATOM     18  C   UNL     1      48.843   4.338  19.850  0.00  0.00    +0.000 A 
ATOM     19  C   UNL     1      48.985   4.841  18.556  0.00  0.00    +0.000 A 
ATOM     20  C   UNL     1      48.694   6.200  18.354  0.00  0.00    +0.000 A 
ATOM     21  H   UNL     1      47.765   8.995  19.544  0.00  0.00    +0.000 HD
ENDBRANCH   9  12
ENDBRANCH   7  10
ENDBRANCH   1   7
BRANCH   4  22
ATOM     22  C   UNL     1      43.429   4.991  10.829  0.00  0.00    +0.000 C 
BRANCH  22  23
ATOM     23  N   UNL     1      43.727   4.485   9.488  0.00  0.00    +0.000 NA
ATOM     24  H   UNL     1      44.452   5.082   9.091  0.00  0.00    +0.000 HD
BRANCH  23  25
ATOM     25  C   UNL     1      44.246   3.109   9.525  0.00  0.00    +0.000 C 
BRANCH  25  26
ATOM     26  C   UNL     1      45.113   2.822   8.268  0.00  0.00    +0.000 C 
ATOM     27  C   UNL     1      46.004   1.593   8.497  0.00  0.00    +0.000 C 
ATOM     28  C   UNL     1      46.896   1.326   7.288  0.00  0.00    +0.000 C 
ATOM     29  C   UNL     1      47.674   2.582   6.910  0.00  0.00    +0.000 C 
ATOM     30  C   UNL     1      46.737   3.770   6.724  0.00  0.00    +0.000 C 
ATOM     31  N   UNL     1      45.922   4.008   7.915  0.00  0.00    +0.000 NA
ATOM     32  H   UNL     1      45.272   4.768   7.706  0.00  0.00    +0.000 HD
ENDBRANCH  25  26
ENDBRANCH  23  25
ENDBRANCH  22  23
ENDBRANCH   4  22
TORSDOF 7
ENDMDL
MODEL 5
REMARK VINA RESULT:    -7.244      2.822      3.644
REMARK INTER + INTRA:         -10.954
REMARK INTER:                  -9.795
REMARK INTRA:                  -1.159
REMARK UNBOUND:                -0.746
REMARK  Name = 
REMARK  7 active torsions:
REMARK  status: ('A' for Active; 'I' for Inactive)
REMARK    1  A    between atoms: C_2  and  C_20
REMARK    2  A    between atoms: N_3  and  C_4
REMARK    3  A    between atoms: C_4  and  C_5
REMARK    4  A    between atoms: C_8  and  C_9
REMARK    5  A    between atoms: C_9  and  N_10
REMARK    6  A    between atoms: N_10  and  C_11
REMARK    7  A    between atoms: C_11  and  C_12
REMARK                            x       y       z     vdW  Elec       q    Type
REMARK                         _______ _______ _______ _____ _____    ______ ____
ROOT
ATOM      1  C   UNL     1      46.728   7.007  12.741  0.00  0.00    +0.000 A 
ATOM      2  C   UNL     1      45.420   7.334  12.370  0.00  0.00    +0.000 A 
ATOM      3  C   UNL     1      44.393   6.397  12.496  0.00  0.00    +0.000 A 
ATOM      4  C   UNL     1      44.649   5.106  12.984  0.00  0.00    +0.000 A 
ATOM      5  C   UNL     1      45.954   4.795  13.389  0.00  0.00    +0.000 A 
ATOM      6  C   UNL     1      46.983   5.736  13.271  0.00  0.00    +0.000 A 
ENDROOT
BRANCH   1   7
ATOM      7  C   UNL     1      47.839   8.002  12.563  0.00  0.00    +0.000 C 
BRANCH   7  10
ATOM      8  O   UNL     1      48.630   8.890  15.066  0.00  0.00    +0.000 OA
ATOM      9  C   UNL     1      49.359   8.103  14.469  0.00  0.00    +0.000 C 
ATOM     10  N   UNL     1      49.055   7.609  13.221  0.00  0.00    +0.000 N 
ATOM     11  H   UNL     1      49.709   6.956  12.798  0.00  0.00    +0.000 HD
BRANCH   9  12
ATOM     12  C   UNL     1      50.623   7.608  15.036  0.00  0.00    +0.000 A 
ATOM     13  N   UNL     1      51.830   8.000  14.567  0.00  0.00    +0.000 NA
ATOM     14  N   UNL     1      52.705   7.329  15.352  0.00  0.00    +0.000 N 
ATOM     15  C   UNL     1      52.116   6.524  16.282  0.00  0.00    +0.000 A 
ATOM     16  N   UNL     1      52.753   5.743  17.178  0.00  0.00    +0.000 NA
ATOM     17  C   UNL     1      51.893   5.055  17.967  0.00  0.00    +0.000 A 
ATOM     18  C   UNL     1      50.505   5.113  17.902  0.00  0.00    +0.000 A 
ATOM     19  C   UNL     1      49.905   5.943  16.954  0.00  0.00    +0.000 A 
ATOM     20  C   UNL     1      50.753   6.678  16.109  0.00  0.00    +0.000 A 
ATOM     21  H   UNL     1      53.699   7.457  15.209  0.00  0.00    +0.000 HD
ENDBRANCH   9  12
ENDBRANCH   7  10
ENDBRANCH   1   7
BRANCH   4  22
ATOM     22  C   UNL     1      43.543   4.082  13.142  0.00  0.00    +0.000 C 
BRANCH  22  23
ATOM     23  N   UNL     1      43.900   2.797  12.537  0.00  0.00    +0.000 NA
ATOM     24  H   UNL     1      43.411   2.069  13.055  0.00  0.00    +0.000 HD
BRANCH  23  25
ATOM     25  C   UNL     1      43.472   2.716  11.132  0.00  0.00    +0.000 C 
BRANCH  25  26
ATOM     26  C   UNL     1      44.687   2.904  10.183  0.00  0.00    +0.000 C 
ATOM     27  C   UNL     1      44.574   4.231   9.418  0.00  0.00    +0.000 C 
ATOM     28  C   UNL     1      45.737   4.407   8.445  0.00  0.00    +0.000 C 
ATOM     29  C   UNL     1      45.865   3.188   7.538  0.00  0.00    +0.000 C 
ATOM     30  C   UNL     1      45.945   1.903   8.355  0.00  0.00    +0.000 C 
ATOM     31  N   UNL     1      44.798   1.760   9.252  0.00  0.00    +0.000 NA
ATOM     32  H   UNL     1      44.942   0.922   9.817  0.00  0.00    +0.000 HD
ENDBRANCH  25  26
ENDBRANCH  23  25
ENDBRANCH  22  23
ENDBRANCH   4  22
TORSDOF 7
ENDMDL
MODEL 6
REMARK VINA RESULT:    -7.220      2.737      3.192
REMARK INTER + INTRA:         -10.921
REMARK INTER:                 -10.360
REMARK INTRA:                  -0.561
REMARK UNBOUND:                -0.746
REMARK  Name = 
REMARK  7 active torsions:
REMARK  status: ('A' for Active; 'I' for Inactive)
REMARK    1  A    between atoms: C_2  and  C_20
REMARK    2  A    between atoms: N_3  and  C_4
REMARK    3  A    between atoms: C_4  and  C_5
REMARK    4  A    between atoms: C_8  and  C_9
REMARK    5  A    between atoms: C_9  and  N_10
REMARK    6  A    between atoms: N_10  and  C_11
REMARK    7  A    between atoms: C_11  and  C_12
REMARK                            x       y       z     vdW  Elec       q    Type
REMARK                         _______ _______ _______ _____ _____    ______ ____
ROOT
ATOM      1  C   UNL     1      46.133   5.079  13.757  0.00  0.00    +0.000 A 
ATOM      2  C   UNL     1      46.376   3.782  13.292  0.00  0.00    +0.000 A 
ATOM      3  C   UNL     1      45.467   3.153  12.439  0.00  0.00    +0.000 A 
ATOM      4  C   UNL     1      44.287   3.798  12.039  0.00  0.00    +0.000 A 
ATOM      5  C   UNL     1      44.065   5.111  12.477  0.00  0.00    +0.000 A 
ATOM      6  C   UNL     1      44.979   5.746  13.325  0.00  0.00    +0.000 A 
ENDROOT
BRANCH   1   7
ATOM      7  C   UNL     1      47.090   5.736  14.709  0.00  0.00    +0.000 C 
BRANCH   7  10
ATOM      8  O   UNL     1      46.843   3.979  16.839  0.00  0.00    +0.000 OA
ATOM      9  C   UNL     1      47.908   4.010  16.228  0.00  0.00    +0.000 C 
ATOM     10  N   UNL     1      48.128   4.851  15.160  0.00  0.00    +0.000 N 
ATOM     11  H   UNL     1      49.036   4.810  14.706  0.00  0.00    +0.000 HD
BRANCH   9  12
ATOM     12  C   UNL     1      49.046   3.145  16.575  0.00  0.00    +0.000 A 
ATOM     13  N   UNL     1      49.123   1.854  16.178  0.00  0.00    +0.000 NA
ATOM     14  N   UNL     1      50.302   1.436  16.693  0.00  0.00    +0.000 N 
ATOM     15  C   UNL     1      50.968   2.388  17.406  0.00  0.00    +0.000 A 
ATOM     16  N   UNL     1      52.153   2.234  18.030  0.00  0.00    +0.000 NA
ATOM     17  C   UNL     1      52.557   3.364  18.660  0.00  0.00    +0.000 A 
ATOM     18  C   UNL     1      51.866   4.571  18.689  0.00  0.00    +0.000 A 
ATOM     19  C   UNL     1      50.645   4.668  18.021  0.00  0.00    +0.000 A 
ATOM     20  C   UNL     1      50.181   3.523  17.352  0.00  0.00    +0.000 A 
ATOM     21  H   UNL     1      50.607   0.485  16.529  0.00  0.00    +0.000 HD
ENDBRANCH   9  12
ENDBRANCH   7  10
ENDBRANCH   1   7
BRANCH   4  22
ATOM     22  C   UNL     1      43.297   3.136  11.102  0.00  0.00    +0.000 C 
BRANCH  22  23
ATOM     23  N   UNL     1      43.958   2.568   9.925  0.00  0.00    +0.000 NA
ATOM     24  H   UNL     1      43.250   2.069   9.388  0.00  0.00    +0.000 HD
BRANCH  23  25
ATOM     25  C   UNL     1      44.527   3.613   9.060  0.00  0.00    +0.000 C 
BRANCH  25  26
ATOM     26  C   UNL     1      45.326   2.974   7.891  0.00  0.00    +0.000 C 
ATOM     27  C   UNL     1      46.154   1.782   8.391  0.00  0.00    +0.000 C 
ATOM     28  C   UNL     1      46.982   1.173   7.263  0.00  0.00    +0.000 C 
ATOM     29  C   UNL     1      47.814   2.247   6.571  0.00  0.00    +0.000 C 
ATOM     30  C   UNL     1      46.940   3.414   6.123  0.00  0.00    +0.000 C 
ATOM     31  N   UNL     1      46.187   3.985   7.240  0.00  0.00    +0.000 NA
ATOM     32  H   UNL     1      45.574   4.712   6.867  0.00  0.00    +0.000 HD
ENDBRANCH  25  26
ENDBRANCH  23  25
ENDBRANCH  22  23
ENDBRANCH   4  22
TORSDOF 7
ENDMDL
MODEL 7
REMARK VINA RESULT:    -7.118      5.618     10.012
REMARK INTER + INTRA:         -10.778
REMARK INTER:                 -10.140
REMARK INTRA:                  -0.638
REMARK UNBOUND:                -0.746
REMARK  Name = 
REMARK  7 active torsions:
REMARK  status: ('A' for Active; 'I' for Inactive)
REMARK    1  A    between atoms: C_2  and  C_20
REMARK    2  A    between atoms: N_3  and  C_4
REMARK    3  A    between atoms: C_4  and  C_5
REMARK    4  A    between atoms: C_8  and  C_9
REMARK    5  A    between atoms: C_9  and  N_10
REMARK    6  A    between atoms: N_10  and  C_11
REMARK    7  A    between atoms: C_11  and  C_12
REMARK                            x       y       z     vdW  Elec       q    Type
REMARK                         _______ _______ _______ _____ _____    ______ ____
ROOT
ATOM      1  C   UNL     1      49.306   3.717  17.446  0.00  0.00    +0.000 A 
ATOM      2  C   UNL     1      50.418   4.381  17.975  0.00  0.00    +0.000 A 
ATOM      3  C   UNL     1      51.636   3.713  18.125  0.00  0.00    +0.000 A 
ATOM      4  C   UNL     1      51.769   2.364  17.762  0.00  0.00    +0.000 A 
ATOM      5  C   UNL     1      50.662   1.715  17.197  0.00  0.00    +0.000 A 
ATOM      6  C   UNL     1      49.444   2.384  17.040  0.00  0.00    +0.000 A 
ENDROOT
BRANCH   1   7
ATOM      7  C   UNL     1      47.986   4.424  17.329  0.00  0.00    +0.000 C 
BRANCH   7  10
ATOM      8  O   UNL     1      48.047   5.734  14.887  0.00  0.00    +0.000 OA
ATOM      9  C   UNL     1      47.337   4.738  14.997  0.00  0.00    +0.000 C 
ATOM     10  N   UNL     1      47.237   4.023  16.170  0.00  0.00    +0.000 N 
ATOM     11  H   UNL     1      46.632   3.207  16.176  0.00  0.00    +0.000 HD
BRANCH   9  12
ATOM     12  C   UNL     1      46.532   4.212  13.885  0.00  0.00    +0.000 A 
ATOM     13  N   UNL     1      46.538   2.903  13.542  0.00  0.00    +0.000 NA
ATOM     14  N   UNL     1      45.678   2.847  12.499  0.00  0.00    +0.000 N 
ATOM     15  C   UNL     1      45.140   4.051  12.155  0.00  0.00    +0.000 A 
ATOM     16  N   UNL     1      44.268   4.277  11.151  0.00  0.00    +0.000 NA
ATOM     17  C   UNL     1      43.917   5.583  11.055  0.00  0.00    +0.000 A 
ATOM     18  C   UNL     1      44.375   6.611  11.873  0.00  0.00    +0.000 A 
ATOM     19  C   UNL     1      45.276   6.311  12.897  0.00  0.00    +0.000 A 
ATOM     20  C   UNL     1      45.672   4.971  13.039  0.00  0.00    +0.000 A 
ATOM     21  H   UNL     1      45.494   1.956  12.054  0.00  0.00    +0.000 HD
ENDBRANCH   9  12
ENDBRANCH   7  10
ENDBRANCH   1   7
BRANCH   4  22
ATOM     22  C   UNL     1      53.087   1.629  17.902  0.00  0.00    +0.000 C 
BRANCH  22  23
ATOM     23  N   UNL     1      52.898   0.179  17.960  0.00  0.00    +0.000 NA
ATOM     24  H   UNL     1      52.324  -0.087  17.160  0.00  0.00    +0.000 HD
BRANCH  23  25
ATOM     25  C   UNL     1      54.175  -0.544  17.859  0.00  0.00    +0.000 C 
BRANCH  25  26
ATOM     26  C   UNL     1      54.177  -1.778  18.804  0.00  0.00    +0.000 C 
ATOM     27  C   UNL     1      54.720  -3.015  18.075  0.00  0.00    +0.000 C 
ATOM     28  C   UNL     1      54.684  -4.246  18.976  0.00  0.00    +0.000 C 
ATOM     29  C   UNL     1      53.287  -4.443  19.555  0.00  0.00    +0.000 C 
ATOM     30  C   UNL     1      52.795  -3.173  20.241  0.00  0.00    +0.000 C 
ATOM     31  N   UNL     1      52.818  -2.026  19.334  0.00  0.00    +0.000 NA
ATOM     32  H   UNL     1      52.544  -1.198  19.866  0.00  0.00    +0.000 HD
ENDBRANCH  25  26
ENDBRANCH  23  25
ENDBRANCH  22  23
ENDBRANCH   4  22
TORSDOF 7
ENDMDL
MODEL 8
REMARK VINA RESULT:    -7.102      2.503      9.975
REMARK INTER + INTRA:         -10.754
REMARK INTER:                  -9.959
REMARK INTRA:                  -0.795
REMARK UNBOUND:                -0.746
REMARK  Name = 
REMARK  7 active torsions:
REMARK  status: ('A' for Active; 'I' for Inactive)
REMARK    1  A    between atoms: C_2  and  C_20
REMARK    2  A    between atoms: N_3  and  C_4
REMARK    3  A    between atoms: C_4  and  C_5
REMARK    4  A    between atoms: C_8  and  C_9
REMARK    5  A    between atoms: C_9  and  N_10
REMARK    6  A    between atoms: N_10  and  C_11
REMARK    7  A    between atoms: C_11  and  C_12
REMARK                            x       y       z     vdW  Elec       q    Type
REMARK                         _______ _______ _______ _____ _____    ______ ____
ROOT
ATOM      1  C   UNL     1      45.480   6.074  11.839  0.00  0.00    +0.000 A 
ATOM      2  C   UNL     1      45.759   7.444  11.887  0.00  0.00    +0.000 A 
ATOM      3  C   UNL     1      46.742   7.937  12.748  0.00  0.00    +0.000 A 
ATOM      4  C   UNL     1      47.462   7.075  13.589  0.00  0.00    +0.000 A 
ATOM      5  C   UNL     1      47.206   5.699  13.510  0.00  0.00    +0.000 A 
ATOM      6  C   UNL     1      46.226   5.204  12.643  0.00  0.00    +0.000 A 
ENDROOT
BRANCH   1   7
ATOM      7  C   UNL     1      44.391   5.553  10.945  0.00  0.00    +0.000 C 
BRANCH   7  10
ATOM      8  O   UNL     1      45.845   5.373   8.593  0.00  0.00    +0.000 OA
ATOM      9  C   UNL     1      45.472   4.332   9.129  0.00  0.00    +0.000 C 
ATOM     10  N   UNL     1      44.742   4.319  10.296  0.00  0.00    +0.000 N 
ATOM     11  H   UNL     1      44.477   3.416  10.678  0.00  0.00    +0.000 HD
BRANCH   9  12
ATOM     12  C   UNL     1      45.776   3.004   8.579  0.00  0.00    +0.000 A 
ATOM     13  N   UNL     1      45.449   1.859   9.223  0.00  0.00    +0.000 NA
ATOM     14  N   UNL     1      45.892   0.891   8.389  0.00  0.00    +0.000 N 
ATOM     15  C   UNL     1      46.495   1.360   7.259  0.00  0.00    +0.000 A 
ATOM     16  N   UNL     1      47.031   0.613   6.273  0.00  0.00    +0.000 NA
ATOM     17  C   UNL     1      47.561   1.370   5.282  0.00  0.00    +0.000 A 
ATOM     18  C   UNL     1      47.576   2.760   5.239  0.00  0.00    +0.000 A 
ATOM     19  C   UNL     1      47.002   3.477   6.290  0.00  0.00    +0.000 A 
ATOM     20  C   UNL     1      46.439   2.739   7.344  0.00  0.00    +0.000 A 
ATOM     21  H   UNL     1      45.758  -0.081   8.641  0.00  0.00    +0.000 HD
ENDBRANCH   9  12
ENDBRANCH   7  10
ENDBRANCH   1   7
BRANCH   4  22
ATOM     22  C   UNL     1      48.544   7.591  14.517  0.00  0.00    +0.000 C 
BRANCH  22  23
ATOM     23  N   UNL     1      48.132   7.528  15.921  0.00  0.00    +0.000 NA
ATOM     24  H   UNL     1      47.282   6.968  15.965  0.00  0.00    +0.000 HD
BRANCH  23  25
ATOM     25  C   UNL     1      49.147   6.873  16.760  0.00  0.00    +0.000 C 
BRANCH  25  26
ATOM     26  C   UNL     1      48.928   5.335  16.777  0.00  0.00    +0.000 C 
ATOM     27  C   UNL     1      47.503   4.998  17.239  0.00  0.00    +0.000 C 
ATOM     28  C   UNL     1      47.287   3.489  17.306  0.00  0.00    +0.000 C 
ATOM     29  C   UNL     1      48.374   2.831  18.149  0.00  0.00    +0.000 C 
ATOM     30  C   UNL     1      49.763   3.226  17.658  0.00  0.00    +0.000 C 
ATOM     31  N   UNL     1      49.936   4.679  17.637  0.00  0.00    +0.000 NA
ATOM     32  H   UNL     1      50.854   4.880  17.238  0.00  0.00    +0.000 HD
ENDBRANCH  25  26
ENDBRANCH  23  25
ENDBRANCH  22  23
ENDBRANCH   4  22
TORSDOF 7
ENDMDL
MODEL 9
REMARK VINA RESULT:    -7.004      2.508      3.448
REMARK INTER + INTRA:         -10.616
REMARK INTER:                  -9.765
REMARK INTRA:                  -0.851
REMARK UNBOUND:                -0.746
REMARK  Name = 
REMARK  7 active torsions:
REMARK  status: ('A' for Active; 'I' for Inactive)
REMARK    1  A    between atoms: C_2  and  C_20
REMARK    2  A    between atoms: N_3  and  C_4
REMARK    3  A    between atoms: C_4  and  C_5
REMARK    4  A    between atoms: C_8  and  C_9
REMARK    5  A    between atoms: C_9  and  N_10
REMARK    6  A    between atoms: N_10  and  C_11
REMARK    7  A    between atoms: C_11  and  C_12
REMARK                            x       y       z     vdW  Elec       q    Type
REMARK                         _______ _______ _______ _____ _____    ______ ____
ROOT
ATOM      1  C   UNL     1      44.971   7.254  12.313  0.00  0.00    +0.000 A 
ATOM      2  C   UNL     1      43.925   7.050  11.407  0.00  0.00    +0.000 A 
ATOM      3  C   UNL     1      43.494   5.758  11.101  0.00  0.00    +0.000 A 
ATOM      4  C   UNL     1      44.104   4.636  11.683  0.00  0.00    +0.000 A 
ATOM      5  C   UNL     1      45.127   4.847  12.619  0.00  0.00    +0.000 A 
ATOM      6  C   UNL     1      45.555   6.141  12.932  0.00  0.00    +0.000 A 
ENDROOT
BRANCH   1   7
ATOM      7  C   UNL     1      45.462   8.642  12.605  0.00  0.00    +0.000 C 
BRANCH   7  10
ATOM      8  O   UNL     1      48.184   9.047  12.276  0.00  0.00    +0.000 OA
ATOM      9  C   UNL     1      47.751   8.895  13.415  0.00  0.00    +0.000 C 
ATOM     10  N   UNL     1      46.416   8.685  13.680  0.00  0.00    +0.000 N 
ATOM     11  H   UNL     1      46.138   8.574  14.651  0.00  0.00    +0.000 HD
BRANCH   9  12
ATOM     12  C   UNL     1      48.616   8.932  14.603  0.00  0.00    +0.000 A 
ATOM     13  N   UNL     1      49.251  10.058  15.002  0.00  0.00    +0.000 NA
ATOM     14  N   UNL     1      49.918   9.666  16.112  0.00  0.00    +0.000 N 
ATOM     15  C   UNL     1      49.751   8.351  16.429  0.00  0.00    +0.000 A 
ATOM     16  N   UNL     1      50.309   7.704  17.472  0.00  0.00    +0.000 NA
ATOM     17  C   UNL     1      49.955   6.397  17.519  0.00  0.00    +0.000 A 
ATOM     18  C   UNL     1      49.116   5.748  16.620  0.00  0.00    +0.000 A 
ATOM     19  C   UNL     1      48.567   6.474  15.561  0.00  0.00    +0.000 A 
ATOM     20  C   UNL     1      48.904   7.834  15.466  0.00  0.00    +0.000 A 
ATOM     21  H   UNL     1      50.479  10.340  16.619  0.00  0.00    +0.000 HD
ENDBRANCH   9  12
ENDBRANCH   7  10
ENDBRANCH   1   7
BRANCH   4  22
ATOM     22  C   UNL     1      43.639   3.228  11.375  0.00  0.00    +0.000 C 
BRANCH  22  23
ATOM     23  N   UNL     1      44.708   2.416  10.792  0.00  0.00    +0.000 NA
ATOM     24  H   UNL     1      44.725   1.528  11.292  0.00  0.00    +0.000 HD
BRANCH  23  25
ATOM     25  C   UNL     1      44.464   2.129   9.370  0.00  0.00    +0.000 C 
BRANCH  25  26
ATOM     26  C   UNL     1      45.779   2.264   8.555  0.00  0.00    +0.000 C 
ATOM     27  C   UNL     1      45.598   3.260   7.400  0.00  0.00    +0.000 C 
ATOM     28  C   UNL     1      46.868   3.369   6.561  0.00  0.00    +0.000 C 
ATOM     29  C   UNL     1      47.329   1.987   6.109  0.00  0.00    +0.000 C 
ATOM     30  C   UNL     1      47.463   1.039   7.296  0.00  0.00    +0.000 C 
ATOM     31  N   UNL     1      46.217   0.943   8.055  0.00  0.00    +0.000 NA
ATOM     32  H   UNL     1      46.388   0.352   8.869  0.00  0.00    +0.000 HD
ENDBRANCH  25  26
ENDBRANCH  23  25
ENDBRANCH  22  23
ENDBRANCH   4  22
TORSDOF 7
ENDMDL
