MODEL 1
REMARK VINA RESULT:    -7.936      0.000      0.000
REMARK INTER + INTRA:         -12.175
REMARK INTER:                 -11.183
REMARK INTRA:                  -0.992
REMARK UNBOUND:                -0.992
REMARK  Name = 
REMARK  7 active torsions:
REMARK  status: ('A' for Active; 'I' for Inactive)
REMARK    1  A    between atoms: C_2  and  C_4
REMARK    2  A    between atoms: C_7  and  O_8
REMARK    3  A    between atoms: O_8  and  C_9
REMARK    4  A    between atoms: C_9  and  C_10
REMARK    5  A    between atoms: C_10  and  C_11
REMARK    6  A    between atoms: C_15  and  C_16
REMARK    7  A    between atoms: C_16  and  C_17
REMARK                            x       y       z     vdW  Elec       q    Type
REMARK                         _______ _______ _______ _____ _____    ______ ____
ROOT
ATOM      1  C   UNL     1      43.225   4.203  11.258  0.00  0.00    +0.000 C 
ENDROOT
BRANCH   1   2
ATOM      2  O   UNL     1      43.606   4.643   9.953  0.00  0.00    +0.000 OA
BRANCH   2   6
ATOM      3  C   UNL     1      46.390   2.445   7.760  0.00  0.00    +0.000 A 
ATOM      4  C   UNL     1      45.543   1.760   8.637  0.00  0.00    +0.000 A 
ATOM      5  C   UNL     1      44.594   2.460   9.389  0.00  0.00    +0.000 A 
ATOM      6  C   UNL     1      44.488   3.849   9.273  0.00  0.00    +0.000 A 
ATOM      7  C   UNL     1      45.341   4.530   8.401  0.00  0.00    +0.000 A 
ATOM      8  C   UNL     1      46.293   3.837   7.651  0.00  0.00    +0.000 A 
BRANCH   3  10
ATOM      9  N   UNL     1      48.481   2.474   6.509  0.00  0.00    +0.000 N 
ATOM     10  C   UNL     1      47.418   1.738   6.954  0.00  0.00    +0.000 C 
ATOM     11  O   UNL     1      47.343   0.537   6.721  0.00  0.00    +0.000 OA
ATOM     12  H   UNL     1      49.221   1.958   6.052  0.00  0.00    +0.000 HD
ATOM     13  H   UNL     1      48.709   3.380   6.892  0.00  0.00    +0.000 HD
ENDBRANCH   3  10
ENDBRANCH   2   6
ENDBRANCH   1   2
BRANCH   1  14
ATOM     14  C   UNL     1      43.380   5.370  12.229  0.00  0.00    +0.000 C 
BRANCH  14  15
ATOM     15  C   UNL     1      44.818   5.541  12.652  0.00  0.00    +0.000 A 
ATOM     16  C   UNL     1      45.567   6.614  12.163  0.00  0.00    +0.000 A 
ATOM     17  C   UNL     1      46.902   6.764  12.530  0.00  0.00    +0.000 A 
ATOM     18  C   UNL     1      47.499   5.842  13.393  0.00  0.00    +0.000 A 
ATOM     19  C   UNL     1      46.767   4.766  13.909  0.00  0.00    +0.000 A 
ATOM     20  C   UNL     1      45.427   4.618  13.516  0.00  0.00    +0.000 A 
BRANCH  19  21
ATOM     21  C   UNL     1      47.369   3.864  14.962  0.00  0.00    +0.000 C 
BRANCH  21  22
ATOM     22  C   UNL     1      47.323   4.265  16.446  0.00  0.00    +0.000 C 
ATOM     23  C   UNL     1      48.414   5.198  16.921  0.00  0.00    +0.000 C 
ATOM     24  C   UNL     1      49.367   4.309  17.687  0.00  0.00    +0.000 C 
ATOM     25  O   UNL     1      48.639   3.157  18.116  0.00  0.00    +0.000 OA
ATOM     26  C   UNL     1      47.384   3.108  17.430  0.00  0.00    +0.000 C 
ENDBRANCH  21  22
ENDBRANCH  19  21
ENDBRANCH  14  15
ENDBRANCH   1  14
TORSDOF 7
ENDMDL
MODEL 2
REMARK VINA RESULT:    -7.526      2.261      3.427
REMARK INTER + INTRA:         -11.598
REMARK INTER:                 -10.297
REMARK INTRA:                  -1.300
REMARK UNBOUND:                -0.992
REMARK  Name = 
REMARK  7 active torsions:
REMARK  status: ('A' for Active; 'I' for Inactive)
REMARK    1  A    between atoms: C_2  and  C_4
REMARK    2  A    between atoms: C_7  and  O_8
REMARK    3  A    between atoms: O_8  and  C_9
REMARK    4  A    between atoms: C_9  and  C_10
REMARK    5  A    between atoms: C_10  and  C_11
REMARK    6  A    between atoms: C_15  and  C_16
REMARK    7  A    between atoms: C_16  and  C_17
REMARK                            x       y       z     vdW  Elec       q    Type
REMARK                         _______ _______ _______ _____ _____    ______ ____
ROOT
ATOM      1  C   UNL     1      43.373   5.065  10.629  0.00  0.00    +0.000 C 
ENDROOT
BRANCH   1   2
ATOM      2  O   UNL     1      43.553   3.657  10.460  0.00  0.00    +0.000 OA
BRANCH   2   6
ATOM      3  C   UNL     1      46.447   2.724   7.607  0.00  0.00    +0.000 A 
ATOM      4  C   UNL     1      45.875   1.681   8.341  0.00  0.00    +0.000 A 
ATOM      5  C   UNL     1      44.898   1.951   9.306  0.00  0.00    +0.000 A 
ATOM      6  C   UNL     1      44.491   3.266   9.546  0.00  0.00    +0.000 A 
ATOM      7  C   UNL     1      45.071   4.307   8.816  0.00  0.00    +0.000 A 
ATOM      8  C   UNL     1      46.049   4.043   7.855  0.00  0.00    +0.000 A 
BRANCH   3  10
ATOM      9  N   UNL     1      47.352   3.105   5.377  0.00  0.00    +0.000 N 
ATOM     10  C   UNL     1      47.494   2.478   6.583  0.00  0.00    +0.000 C 
ATOM     11  O   UNL     1      48.469   1.770   6.813  0.00  0.00    +0.000 OA
ATOM     12  H   UNL     1      48.124   3.010   4.730  0.00  0.00    +0.000 HD
ATOM     13  H   UNL     1      46.722   3.883   5.244  0.00  0.00    +0.000 HD
ENDBRANCH   3  10
ENDBRANCH   2   6
ENDBRANCH   1   2
BRANCH   1  14
ATOM     14  C   UNL     1      43.527   5.400  12.111  0.00  0.00    +0.000 C 
BRANCH  14  15
ATOM     15  C   UNL     1      44.981   5.522  12.494  0.00  0.00    +0.000 A 
ATOM     16  C   UNL     1      45.499   4.735  13.525  0.00  0.00    +0.000 A 
ATOM     17  C   UNL     1      46.834   4.861  13.902  0.00  0.00    +0.000 A 
ATOM     18  C   UNL     1      47.664   5.773  13.247  0.00  0.00    +0.000 A 
ATOM     19  C   UNL     1      47.173   6.564  12.201  0.00  0.00    +0.000 A 
ATOM     20  C   UNL     1      45.821   6.439  11.844  0.00  0.00    +0.000 A 
BRANCH  19  21
ATOM     21  C   UNL     1      48.109   7.433  11.393  0.00  0.00    +0.000 C 
BRANCH  21  22
ATOM     22  C   UNL     1      48.606   8.774  11.959  0.00  0.00    +0.000 C 
ATOM     23  C   UNL     1      49.951   8.752  12.652  0.00  0.00    +0.000 C 
ATOM     24  C   UNL     1      49.619   8.802  14.126  0.00  0.00    +0.000 C 
ATOM     25  O   UNL     1      48.320   9.382  14.261  0.00  0.00    +0.000 OA
ATOM     26  C   UNL     1      47.686   9.426  12.979  0.00  0.00    +0.000 C 
ENDBRANCH  21  22
ENDBRANCH  19  21
ENDBRANCH  14  15
ENDBRANCH   1  14
TORSDOF 7
ENDMDL
MODEL 3
REMARK VINA RESULT:    -7.270      2.561      2.961
REMARK INTER + INTRA:         -11.237
REMARK INTER:                 -10.316
REMARK INTRA:                  -0.921
REMARK UNBOUND:                -0.992
REMARK  Name = 
REMARK  7 active torsions:
REMARK  status: ('A' for Active; 'I' for Inactive)
REMARK    1  A    between atoms: C_2  and  C_4
REMARK    2  A    between atoms: C_7  and  O_8
REMARK    3  A    between atoms: O_8  and  C_9
REMARK    4  A    between atoms: C_9  and  C_10
REMARK    5  A    between atoms: C_10  and  C_11
REMARK    6  A    between atoms: C_15  and  C_16
REMARK    7  A    between atoms: C_16  and  C_17
REMARK                            x       y       z     vdW  Elec       q    Type
REMARK                         _______ _______ _______ _____ _____    ______ ____
ROOT
ATOM      1  C   UNL     1      43.506   3.107  11.704  0.00  0.00    +0.000 C 
ENDROOT
BRANCH   1   2
ATOM      2  O   UNL     1      43.435   3.675  10.394  0.00  0.00    +0.000 OA
BRANCH   2   6
ATOM      3  C   UNL     1      46.402   2.742   7.616  0.00  0.00    +0.000 A 
ATOM      4  C   UNL     1      45.818   1.700   8.342  0.00  0.00    +0.000 A 
ATOM      5  C   UNL     1      44.817   1.970   9.282  0.00  0.00    +0.000 A 
ATOM      6  C   UNL     1      44.397   3.284   9.505  0.00  0.00    +0.000 A 
ATOM      7  C   UNL     1      44.988   4.324   8.783  0.00  0.00    +0.000 A 
ATOM      8  C   UNL     1      45.990   4.060   7.847  0.00  0.00    +0.000 A 
BRANCH   3  10
ATOM      9  N   UNL     1      47.389   3.163   5.429  0.00  0.00    +0.000 N 
ATOM     10  C   UNL     1      47.475   2.497   6.619  0.00  0.00    +0.000 C 
ATOM     11  O   UNL     1      48.421   1.755   6.858  0.00  0.00    +0.000 OA
ATOM     12  H   UNL     1      48.179   3.066   4.804  0.00  0.00    +0.000 HD
ATOM     13  H   UNL     1      46.785   3.963   5.300  0.00  0.00    +0.000 HD
ENDBRANCH   3  10
ENDBRANCH   2   6
ENDBRANCH   1   2
BRANCH   1  14
ATOM     14  C   UNL     1      43.420   4.236  12.727  0.00  0.00    +0.000 C 
BRANCH  14  15
ATOM     15  C   UNL     1      44.373   5.355  12.387  0.00  0.00    +0.000 A 
ATOM     16  C   UNL     1      43.906   6.491  11.720  0.00  0.00    +0.000 A 
ATOM     17  C   UNL     1      44.785   7.517  11.380  0.00  0.00    +0.000 A 
ATOM     18  C   UNL     1      46.139   7.417  11.708  0.00  0.00    +0.000 A 
ATOM     19  C   UNL     1      46.630   6.296  12.388  0.00  0.00    +0.000 A 
ATOM     20  C   UNL     1      45.736   5.261  12.709  0.00  0.00    +0.000 A 
BRANCH  19  21
ATOM     21  C   UNL     1      48.059   6.262  12.878  0.00  0.00    +0.000 C 
BRANCH  21  22
ATOM     22  C   UNL     1      48.485   7.109  14.089  0.00  0.00    +0.000 C 
ATOM     23  C   UNL     1      47.722   8.398  14.307  0.00  0.00    +0.000 C 
ATOM     24  C   UNL     1      48.661   9.480  13.827  0.00  0.00    +0.000 C 
ATOM     25  O   UNL     1      49.991   8.964  13.893  0.00  0.00    +0.000 OA
ATOM     26  C   UNL     1      49.941   7.548  14.092  0.00  0.00    +0.000 C 
ENDBRANCH  21  22
ENDBRANCH  19  21
ENDBRANCH  14  15
ENDBRANCH   1  14
TORSDOF 7
ENDMDL
MODEL 4
REMARK VINA RESULT:    -7.160      3.207      5.341
REMARK INTER + INTRA:         -11.082
REMARK INTER:                  -9.980
REMARK INTRA:                  -1.102
REMARK UNBOUND:                -0.992
REMARK  Name = 
REMARK  7 active torsions:
REMARK  status: ('A' for Active; 'I' for Inactive)
REMARK    1  A    between atoms: C_2  and  C_4
REMARK    2  A    between atoms: C_7  and  O_8
REMARK    3  A    between atoms: O_8  and  C_9
REMARK    4  A    between atoms: C_9  and  C_10
REMARK    5  A    between atoms: C_10  and  C_11
REMARK    6  A    between atoms: C_15  and  C_16
REMARK    7  A    between atoms: C_16  and  C_17
REMARK                            x       y       z     vdW  Elec       q    Type
REMARK                         _______ _______ _______ _____ _____    ______ ____
ROOT
ATOM      1  C   UNL     1      43.248   4.614  11.035  0.00  0.00    +0.000 C 
ENDROOT
BRANCH   1   2
ATOM      2  O   UNL     1      43.513   3.305  10.528  0.00  0.00    +0.000 OA
BRANCH   2   6
ATOM      3  C   UNL     1      46.443   2.737   7.616  0.00  0.00    +0.000 A 
ATOM      4  C   UNL     1      46.009   4.039   7.878  0.00  0.00    +0.000 A 
ATOM      5  C   UNL     1      45.030   4.273   8.850  0.00  0.00    +0.000 A 
ATOM      6  C   UNL     1      44.475   3.207   9.561  0.00  0.00    +0.000 A 
ATOM      7  C   UNL     1      44.905   1.905   9.290  0.00  0.00    +0.000 A 
ATOM      8  C   UNL     1      45.880   1.665   8.319  0.00  0.00    +0.000 A 
BRANCH   3  10
ATOM      9  N   UNL     1      47.348   3.080   5.380  0.00  0.00    +0.000 N 
ATOM     10  C   UNL     1      47.472   2.447   6.585  0.00  0.00    +0.000 C 
ATOM     11  O   UNL     1      48.417   1.699   6.808  0.00  0.00    +0.000 OA
ATOM     12  H   UNL     1      48.111   2.953   4.728  0.00  0.00    +0.000 HD
ATOM     13  H   UNL     1      46.750   3.884   5.251  0.00  0.00    +0.000 HD
ENDBRANCH   3  10
ENDBRANCH   2   6
ENDBRANCH   1   2
BRANCH   1  14
ATOM     14  C   UNL     1      43.983   4.779  12.362  0.00  0.00    +0.000 C 
BRANCH  14  15
ATOM     15  C   UNL     1      45.017   5.874  12.281  0.00  0.00    +0.000 A 
ATOM     16  C   UNL     1      46.354   5.555  12.028  0.00  0.00    +0.000 A 
ATOM     17  C   UNL     1      47.318   6.558  11.977  0.00  0.00    +0.000 A 
ATOM     18  C   UNL     1      46.953   7.892  12.175  0.00  0.00    +0.000 A 
ATOM     19  C   UNL     1      45.618   8.241  12.415  0.00  0.00    +0.000 A 
ATOM     20  C   UNL     1      44.660   7.217  12.482  0.00  0.00    +0.000 A 
BRANCH  19  21
ATOM     21  C   UNL     1      45.204   9.693  12.472  0.00  0.00    +0.000 C 
BRANCH  21  22
ATOM     22  C   UNL     1      45.310  10.580  11.220  0.00  0.00    +0.000 C 
ATOM     23  C   UNL     1      45.549  12.054  11.462  0.00  0.00    +0.000 C 
ATOM     24  C   UNL     1      44.205  12.701  11.219  0.00  0.00    +0.000 C 
ATOM     25  O   UNL     1      43.450  11.832  10.372  0.00  0.00    +0.000 OA
ATOM     26  C   UNL     1      44.095  10.557  10.306  0.00  0.00    +0.000 C 
ENDBRANCH  21  22
ENDBRANCH  19  21
ENDBRANCH  14  15
ENDBRANCH   1  14
TORSDOF 7
ENDMDL
MODEL 5
REMARK VINA RESULT:    -7.149      1.604      2.304
REMARK INTER + INTRA:         -11.066
REMARK INTER:                 -10.208
REMARK INTRA:                  -0.859
REMARK UNBOUND:                -0.992
REMARK  Name = 
REMARK  7 active torsions:
REMARK  status: ('A' for Active; 'I' for Inactive)
REMARK    1  A    between atoms: C_2  and  C_4
REMARK    2  A    between atoms: C_7  and  O_8
REMARK    3  A    between atoms: O_8  and  C_9
REMARK    4  A    between atoms: C_9  and  C_10
REMARK    5  A    between atoms: C_10  and  C_11
REMARK    6  A    between atoms: C_15  and  C_16
REMARK    7  A    between atoms: C_16  and  C_17
REMARK                            x       y       z     vdW  Elec       q    Type
REMARK                         _______ _______ _______ _____ _____    ______ ____
ROOT
ATOM      1  C   UNL     1      43.727   4.593  11.116  0.00  0.00    +0.000 C 
ENDROOT
BRANCH   1   2
ATOM      2  O   UNL     1      43.608   3.448  10.269  0.00  0.00    +0.000 OA
BRANCH   2   6
ATOM      3  C   UNL     1      46.595   2.663   7.466  0.00  0.00    +0.000 A 
ATOM      4  C   UNL     1      46.148   3.979   7.612  0.00  0.00    +0.000 A 
ATOM      5  C   UNL     1      45.150   4.286   8.543  0.00  0.00    +0.000 A 
ATOM      6  C   UNL     1      44.588   3.277   9.331  0.00  0.00    +0.000 A 
ATOM      7  C   UNL     1      45.032   1.961   9.177  0.00  0.00    +0.000 A 
ATOM      8  C   UNL     1      46.026   1.649   8.247  0.00  0.00    +0.000 A 
BRANCH   3  10
ATOM      9  N   UNL     1      47.765   3.085   5.372  0.00  0.00    +0.000 N 
ATOM     10  C   UNL     1      47.644   2.297   6.482  0.00  0.00    +0.000 C 
ATOM     11  O   UNL     1      48.399   1.348   6.665  0.00  0.00    +0.000 OA
ATOM     12  H   UNL     1      48.550   2.885   4.765  0.00  0.00    +0.000 HD
ATOM     13  H   UNL     1      47.351   4.004   5.314  0.00  0.00    +0.000 HD
ENDBRANCH   3  10
ENDBRANCH   2   6
ENDBRANCH   1   2
BRANCH   1  14
ATOM     14  C   UNL     1      44.920   4.388  12.046  0.00  0.00    +0.000 C 
BRANCH  14  15
ATOM     15  C   UNL     1      45.577   5.701  12.389  0.00  0.00    +0.000 A 
ATOM     16  C   UNL     1      44.856   6.893  12.275  0.00  0.00    +0.000 A 
ATOM     17  C   UNL     1      45.464   8.112  12.565  0.00  0.00    +0.000 A 
ATOM     18  C   UNL     1      46.798   8.149  12.977  0.00  0.00    +0.000 A 
ATOM     19  C   UNL     1      47.539   6.968  13.114  0.00  0.00    +0.000 A 
ATOM     20  C   UNL     1      46.918   5.748  12.800  0.00  0.00    +0.000 A 
BRANCH  19  21
ATOM     21  C   UNL     1      48.927   6.999  13.708  0.00  0.00    +0.000 C 
BRANCH  21  22
ATOM     22  C   UNL     1      49.123   7.260  15.211  0.00  0.00    +0.000 C 
ATOM     23  C   UNL     1      50.503   7.712  15.638  0.00  0.00    +0.000 C 
ATOM     24  C   UNL     1      51.129   6.485  16.259  0.00  0.00    +0.000 C 
ATOM     25  O   UNL     1      50.072   5.623  16.684  0.00  0.00    +0.000 OA
ATOM     26  C   UNL     1      48.838   6.071  16.116  0.00  0.00    +0.000 C 
ENDBRANCH  21  22
ENDBRANCH  19  21
ENDBRANCH  14  15
ENDBRANCH   1  14
TORSDOF 7
ENDMDL
MODEL 6
REMARK VINA RESULT:    -6.664      3.797      7.479
REMARK INTER + INTRA:         -10.383
REMARK INTER:                  -8.853
REMARK INTRA:                  -1.530
REMARK UNBOUND:                -0.992
REMARK  Name = 
REMARK  7 active torsions:
REMARK  status: ('A' for Active; 'I' for Inactive)
REMARK    1  A    between atoms: C_2  and  C_4
REMARK    2  A    between atoms: C_7  and  O_8
REMARK    3  A    between atoms: O_8  and  C_9
REMARK    4  A    between atoms: C_9  and  C_10
REMARK    5  A    between atoms: C_10  and  C_11
REMARK    6  A    between atoms: C_15  and  C_16
REMARK    7  A    between atoms: C_16  and  C_17
REMARK                            x       y       z     vdW  Elec       q    Type
REMARK                         _______ _______ _______ _____ _____    ______ ____
ROOT
ATOM      1  C   UNL     1      49.728   7.455  13.347  0.00  0.00    +0.000 C 
ENDROOT
BRANCH   1   2
ATOM      2  O   UNL     1      49.263   7.831  14.645  0.00  0.00    +0.000 OA
BRANCH   2   6
ATOM      3  C   UNL     1      48.038   4.625  17.015  0.00  0.00    +0.000 A 
ATOM      4  C   UNL     1      48.932   5.552  17.559  0.00  0.00    +0.000 A 
ATOM      5  C   UNL     1      49.365   6.644  16.798  0.00  0.00    +0.000 A 
ATOM      6  C   UNL     1      48.912   6.812  15.487  0.00  0.00    +0.000 A 
ATOM      7  C   UNL     1      48.025   5.880  14.944  0.00  0.00    +0.000 A 
ATOM      8  C   UNL     1      47.592   4.786  15.698  0.00  0.00    +0.000 A 
BRANCH   3  10
ATOM      9  N   UNL     1      48.285   3.092  18.893  0.00  0.00    +0.000 N 
ATOM     10  C   UNL     1      47.565   3.448  17.787  0.00  0.00    +0.000 C 
ATOM     11  O   UNL     1      46.550   2.836  17.473  0.00  0.00    +0.000 OA
ATOM     12  H   UNL     1      47.892   2.356  19.464  0.00  0.00    +0.000 HD
ATOM     13  H   UNL     1      48.955   3.713  19.324  0.00  0.00    +0.000 HD
ENDBRANCH   3  10
ENDBRANCH   2   6
ENDBRANCH   1   2
BRANCH   1  14
ATOM     14  C   UNL     1      49.078   8.373  12.315  0.00  0.00    +0.000 C 
BRANCH  14  15
ATOM     15  C   UNL     1      47.612   8.059  12.151  0.00  0.00    +0.000 A 
ATOM     16  C   UNL     1      46.650   8.928  12.672  0.00  0.00    +0.000 A 
ATOM     17  C   UNL     1      45.294   8.632  12.547  0.00  0.00    +0.000 A 
ATOM     18  C   UNL     1      44.890   7.464  11.897  0.00  0.00    +0.000 A 
ATOM     19  C   UNL     1      45.833   6.583  11.353  0.00  0.00    +0.000 A 
ATOM     20  C   UNL     1      47.196   6.886  11.502  0.00  0.00    +0.000 A 
BRANCH  19  21
ATOM     21  C   UNL     1      45.389   5.407  10.516  0.00  0.00    +0.000 C 
BRANCH  21  22
ATOM     22  C   UNL     1      44.865   4.127  11.190  0.00  0.00    +0.000 C 
ATOM     23  C   UNL     1      43.380   4.081  11.475  0.00  0.00    +0.000 C 
ATOM     24  C   UNL     1      43.271   4.333  12.962  0.00  0.00    +0.000 C 
ATOM     25  O   UNL     1      44.519   3.973  13.557  0.00  0.00    +0.000 OA
ATOM     26  C   UNL     1      45.500   3.796  12.530  0.00  0.00    +0.000 C 
ENDBRANCH  21  22
ENDBRANCH  19  21
ENDBRANCH  14  15
ENDBRANCH   1  14
TORSDOF 7
ENDMDL
MODEL 7
REMARK VINA RESULT:    -6.648      1.451      1.922
REMARK INTER + INTRA:         -10.361
REMARK INTER:                  -9.397
REMARK INTRA:                  -0.964
REMARK UNBOUND:                -0.992
REMARK  Name = 
REMARK  7 active torsions:
REMARK  status: ('A' for Active; 'I' for Inactive)
REMARK    1  A    between atoms: C_2  and  C_4
REMARK    2  A    between atoms: C_7  and  O_8
REMARK    3  A    between atoms: O_8  and  C_9
REMARK    4  A    between atoms: C_9  and  C_10
REMARK    5  A    between atoms: C_10  and  C_11
REMARK    6  A    between atoms: C_15  and  C_16
REMARK    7  A    between atoms: C_16  and  C_17
REMARK                            x       y       z     vdW  Elec       q    Type
REMARK                         _______ _______ _______ _____ _____    ______ ____
ROOT
ATOM      1  C   UNL     1      44.626   5.426  11.432  0.00  0.00    +0.000 C 
ENDROOT
BRANCH   1   2
ATOM      2  O   UNL     1      44.060   4.293  10.770  0.00  0.00    +0.000 OA
BRANCH   2   6
ATOM      3  C   UNL     1      46.375   2.856   7.613  0.00  0.00    +0.000 A 
ATOM      4  C   UNL     1      45.793   1.933   8.486  0.00  0.00    +0.000 A 
ATOM      5  C   UNL     1      45.007   2.373   9.556  0.00  0.00    +0.000 A 
ATOM      6  C   UNL     1      44.802   3.740   9.763  0.00  0.00    +0.000 A 
ATOM      7  C   UNL     1      45.391   4.660   8.893  0.00  0.00    +0.000 A 
ATOM      8  C   UNL     1      46.180   4.226   7.825  0.00  0.00    +0.000 A 
BRANCH   3  10
ATOM      9  N   UNL     1      48.318   1.659   6.759  0.00  0.00    +0.000 N 
ATOM     10  C   UNL     1      47.225   2.428   6.473  0.00  0.00    +0.000 C 
ATOM     11  O   UNL     1      46.946   2.718   5.315  0.00  0.00    +0.000 OA
ATOM     12  H   UNL     1      48.825   1.290   5.966  0.00  0.00    +0.000 HD
ATOM     13  H   UNL     1      48.431   1.190   7.647  0.00  0.00    +0.000 HD
ENDBRANCH   3  10
ENDBRANCH   2   6
ENDBRANCH   1   2
BRANCH   1  14
ATOM     14  C   UNL     1      45.531   4.930  12.556  0.00  0.00    +0.000 C 
BRANCH  14  15
ATOM     15  C   UNL     1      46.700   5.859  12.767  0.00  0.00    +0.000 A 
ATOM     16  C   UNL     1      47.106   6.714  11.738  0.00  0.00    +0.000 A 
ATOM     17  C   UNL     1      48.201   7.557  11.917  0.00  0.00    +0.000 A 
ATOM     18  C   UNL     1      48.896   7.555  13.128  0.00  0.00    +0.000 A 
ATOM     19  C   UNL     1      48.501   6.719  14.179  0.00  0.00    +0.000 A 
ATOM     20  C   UNL     1      47.407   5.862  13.979  0.00  0.00    +0.000 A 
BRANCH  19  21
ATOM     21  C   UNL     1      49.156   6.834  15.537  0.00  0.00    +0.000 C 
BRANCH  21  22
ATOM     22  C   UNL     1      48.680   5.955  16.705  0.00  0.00    +0.000 C 
ATOM     23  C   UNL     1      48.215   6.685  17.946  0.00  0.00    +0.000 C 
ATOM     24  C   UNL     1      49.355   6.533  18.926  0.00  0.00    +0.000 C 
ATOM     25  O   UNL     1      50.108   5.380  18.543  0.00  0.00    +0.000 OA
ATOM     26  C   UNL     1      49.709   4.968  17.232  0.00  0.00    +0.000 C 
ENDBRANCH  21  22
ENDBRANCH  19  21
ENDBRANCH  14  15
ENDBRANCH   1  14
TORSDOF 7
ENDMDL
MODEL 8
REMARK VINA RESULT:    -6.600      2.721      8.031
REMARK INTER + INTRA:         -10.293
REMARK INTER:                  -9.287
REMARK INTRA:                  -1.006
REMARK UNBOUND:                -0.992
REMARK  Name = 
REMARK  7 active torsions:
REMARK  status: ('A' for Active; 'I' for Inactive)
REMARK    1  A    between atoms: C_2  and  C_4
REMARK    2  A    between atoms: C_7  and  O_8
REMARK    3  A    between atoms: O_8  and  C_9
REMARK    4  A    between atoms: C_9  and  C_10
REMARK    5  A    between atoms: C_10  and  C_11
REMARK    6  A    between atoms: C_15  and  C_16
REMARK    7  A    between atoms: C_16  and  C_17
REMARK                            x       y       z     vdW  Elec       q    Type
REMARK                         _______ _______ _______ _____ _____    ______ ____
ROOT
ATOM      1  C   UNL     1      45.907   7.203  12.726  0.00  0.00    +0.000 C 
ENDROOT
BRANCH   1   2
ATOM      2  O   UNL     1      47.055   6.354  12.763  0.00  0.00    +0.000 OA
BRANCH   2   6
ATOM      3  C   UNL     1      48.122   4.835  16.497  0.00  0.00    +0.000 A 
ATOM      4  C   UNL     1      48.724   6.020  16.064  0.00  0.00    +0.000 A 
ATOM      5  C   UNL     1      48.391   6.564  14.819  0.00  0.00    +0.000 A 
ATOM      6  C   UNL     1      47.459   5.925  13.997  0.00  0.00    +0.000 A 
ATOM      7  C   UNL     1      46.866   4.737  14.430  0.00  0.00    +0.000 A 
ATOM      8  C   UNL     1      47.197   4.187  15.670  0.00  0.00    +0.000 A 
BRANCH   3  10
ATOM      9  N   UNL     1      49.264   3.117  17.794  0.00  0.00    +0.000 N 
ATOM     10  C   UNL     1      48.457   4.220  17.807  0.00  0.00    +0.000 C 
ATOM     11  O   UNL     1      48.060   4.696  18.864  0.00  0.00    +0.000 OA
ATOM     12  H   UNL     1      49.566   2.774  18.696  0.00  0.00    +0.000 HD
ATOM     13  H   UNL     1      49.813   2.858  16.986  0.00  0.00    +0.000 HD
ENDBRANCH   3  10
ENDBRANCH   2   6
ENDBRANCH   1   2
BRANCH   1  14
ATOM     14  C   UNL     1      45.213   7.024  11.378  0.00  0.00    +0.000 C 
BRANCH  14  15
ATOM     15  C   UNL     1      44.681   5.622  11.220  0.00  0.00    +0.000 A 
ATOM     16  C   UNL     1      43.806   5.096  12.175  0.00  0.00    +0.000 A 
ATOM     17  C   UNL     1      43.330   3.793  12.050  0.00  0.00    +0.000 A 
ATOM     18  C   UNL     1      43.722   3.006  10.965  0.00  0.00    +0.000 A 
ATOM     19  C   UNL     1      44.586   3.513   9.986  0.00  0.00    +0.000 A 
ATOM     20  C   UNL     1      45.072   4.822  10.135  0.00  0.00    +0.000 A 
BRANCH  19  21
ATOM     21  C   UNL     1      44.881   2.716   8.737  0.00  0.00    +0.000 C 
BRANCH  21  22
ATOM     22  C   UNL     1      46.306   2.674   8.161  0.00  0.00    +0.000 C 
ATOM     23  C   UNL     1      46.595   3.623   7.018  0.00  0.00    +0.000 C 
ATOM     24  C   UNL     1      46.588   2.746   5.787  0.00  0.00    +0.000 C 
ATOM     25  O   UNL     1      46.863   1.407   6.203  0.00  0.00    +0.000 OA
ATOM     26  C   UNL     1      46.748   1.321   7.627  0.00  0.00    +0.000 C 
ENDBRANCH  21  22
ENDBRANCH  19  21
ENDBRANCH  14  15
ENDBRANCH   1  14
TORSDOF 7
ENDMDL
MODEL 9
REMARK VINA RESULT:    -6.429      3.015      4.886
REMARK INTER + INTRA:         -10.052
REMARK INTER:                  -8.818
REMARK INTRA:                  -1.234
REMARK UNBOUND:                -0.992
REMARK  Name = 
REMARK  7 active torsions:
REMARK  status: ('A' for Active; 'I' for Inactive)
REMARK    1  A    between atoms: C_2  and  C_4
REMARK    2  A    between atoms: C_7  and  O_8
REMARK    3  A    between atoms: O_8  and  C_9
REMARK    4  A    between atoms: C_9  and  C_10
REMARK    5  A    between atoms: C_10  and  C_11
REMARK    6  A    between atoms: C_15  and  C_16
REMARK    7  A    between atoms: C_16  and  C_17
REMARK                            x       y       z     vdW  Elec       q    Type
REMARK                         _______ _______ _______ _____ _____    ______ ____
ROOT
ATOM      1  C   UNL     1      49.022   7.168  12.617  0.00  0.00    +0.000 C 
ENDROOT
BRANCH   1   2
ATOM      2  O   UNL     1      47.637   7.429  12.382  0.00  0.00    +0.000 OA
BRANCH   2   6
ATOM      3  C   UNL     1      45.046   4.211  11.813  0.00  0.00    +0.000 A 
ATOM      4  C   UNL     1      45.888   4.199  12.929  0.00  0.00    +0.000 A 
ATOM      5  C   UNL     1      46.770   5.261  13.158  0.00  0.00    +0.000 A 
ATOM      6  C   UNL     1      46.819   6.339  12.270  0.00  0.00    +0.000 A 
ATOM      7  C   UNL     1      45.982   6.344  11.152  0.00  0.00    +0.000 A 
ATOM      8  C   UNL     1      45.102   5.285  10.917  0.00  0.00    +0.000 A 
BRANCH   3  10
ATOM      9  N   UNL     1      43.676   2.354  12.594  0.00  0.00    +0.000 N 
ATOM     10  C   UNL     1      44.104   3.098  11.531  0.00  0.00    +0.000 C 
ATOM     11  O   UNL     1      43.695   2.870  10.398  0.00  0.00    +0.000 OA
ATOM     12  H   UNL     1      42.958   1.669  12.399  0.00  0.00    +0.000 HD
ATOM     13  H   UNL     1      43.779   2.666  13.549  0.00  0.00    +0.000 HD
ENDBRANCH   3  10
ENDBRANCH   2   6
ENDBRANCH   1   2
BRANCH   1  14
ATOM     14  C   UNL     1      49.518   8.118  13.704  0.00  0.00    +0.000 C 
BRANCH  14  15
ATOM     15  C   UNL     1      49.866   7.370  14.966  0.00  0.00    +0.000 A 
ATOM     16  C   UNL     1      51.187   7.349  15.423  0.00  0.00    +0.000 A 
ATOM     17  C   UNL     1      51.521   6.639  16.573  0.00  0.00    +0.000 A 
ATOM     18  C   UNL     1      50.535   5.946  17.280  0.00  0.00    +0.000 A 
ATOM     19  C   UNL     1      49.202   5.962  16.851  0.00  0.00    +0.000 A 
ATOM     20  C   UNL     1      48.883   6.667  15.680  0.00  0.00    +0.000 A 
BRANCH  19  21
ATOM     21  C   UNL     1      48.117   5.344  17.702  0.00  0.00    +0.000 C 
BRANCH  21  22
ATOM     22  C   UNL     1      47.778   3.850  17.564  0.00  0.00    +0.000 C 
ATOM     23  C   UNL     1      48.751   2.881  18.200  0.00  0.00    +0.000 C 
ATOM     24  C   UNL     1      49.538   2.317  17.039  0.00  0.00    +0.000 C 
ATOM     25  O   UNL     1      48.744   2.466  15.861  0.00  0.00    +0.000 OA
ATOM     26  C   UNL     1      47.649   3.345  16.136  0.00  0.00    +0.000 C 
ENDBRANCH  21  22
ENDBRANCH  19  21
ENDBRANCH  14  15
ENDBRANCH   1  14
TORSDOF 7
ENDMDL
