MODEL 1
REMARK VINA RESULT:    -8.544      0.000      0.000
REMARK INTER + INTRA:         -13.060
REMARK INTER:                 -12.290
REMARK INTRA:                  -0.769
REMARK UNBOUND:                -0.769
REMARK  Name = 
REMARK  8 active torsions:
REMARK  status: ('A' for Active; 'I' for Inactive)
REMARK    1  A    between atoms: C_2  and  C_3
REMARK    2  A    between atoms: C_2  and  C_20
REMARK    3  A    between atoms: C_3  and  N_4
REMARK    4  A    between atoms: N_4  and  C_5
REMARK    5  A    between atoms: C_8  and  C_9
REMARK    6  A    between atoms: C_9  and  O_10
REMARK    7  A    between atoms: C_9  and  C_11
REMARK    8  A    between atoms: C_11  and  C_12
REMARK                            x       y       z     vdW  Elec       q    Type
REMARK                         _______ _______ _______ _____ _____    ______ ____
ROOT
ATOM      1  N   UNL     1      46.941   5.138  14.991  0.00  0.00    +0.000 N 
ATOM      2  H   UNL     1      47.464   6.016  15.066  0.00  0.00    +0.000 HD
ENDROOT
BRANCH   1   3
ATOM      3  C   UNL     1      46.393   4.955  13.718  0.00  0.00    +0.000 A 
ATOM      4  C   UNL     1      46.034   3.701  13.263  0.00  0.00    +0.000 A 
ATOM      5  N   UNL     1      45.450   3.453  12.068  0.00  0.00    +0.000 NA
ATOM      6  C   UNL     1      45.186   4.523  11.293  0.00  0.00    +0.000 A 
ATOM      7  N   UNL     1      45.469   5.792  11.637  0.00  0.00    +0.000 NA
ATOM      8  C   UNL     1      46.072   5.967  12.828  0.00  0.00    +0.000 A 
BRANCH   6   9
ATOM      9  C   UNL     1      44.299   4.323  10.075  0.00  0.00    +0.000 C 
BRANCH   9  10
ATOM     10  O   UNL     1      43.173   5.215  10.181  0.00  0.00    +0.000 OA
ATOM     11  H   UNL     1      43.427   6.022   9.696  0.00  0.00    +0.000 HD
ENDBRANCH   9  10
BRANCH   9  12
ATOM     12  C   UNL     1      45.051   4.612   8.759  0.00  0.00    +0.000 C 
BRANCH  12  13
ATOM     13  C   UNL     1      45.821   3.445   8.172  0.00  0.00    +0.000 A 
ATOM     14  C   UNL     1      45.526   2.142   8.607  0.00  0.00    +0.000 A 
ATOM     15  C   UNL     1      46.229   1.046   8.106  0.00  0.00    +0.000 A 
ATOM     16  C   UNL     1      47.229   1.234   7.154  0.00  0.00    +0.000 A 
ATOM     17  C   UNL     1      47.516   2.517   6.696  0.00  0.00    +0.000 A 
ATOM     18  C   UNL     1      46.811   3.613   7.194  0.00  0.00    +0.000 A 
ENDBRANCH  12  13
ENDBRANCH   9  12
ENDBRANCH   6   9
ENDBRANCH   1   3
BRANCH   1  19
ATOM     19  C   UNL     1      47.710   4.004  15.517  0.00  0.00    +0.000 C 
BRANCH  19  21
ATOM     20  O   UNL     1      46.376   3.086  17.292  0.00  0.00    +0.000 OA
ATOM     21  C   UNL     1      47.404   3.681  16.976  0.00  0.00    +0.000 C 
BRANCH  21  22
ATOM     22  C   UNL     1      48.392   4.119  17.971  0.00  0.00    +0.000 A 
ATOM     23  C   UNL     1      48.131   5.030  18.982  0.00  0.00    +0.000 A 
ATOM     24  S   UNL     1      49.544   5.560  19.786  0.00  0.00    +0.000 S 
ATOM     25  C   UNL     1      50.515   4.506  18.868  0.00  0.00    +0.000 A 
ATOM     26  N   UNL     1      51.868   4.504  18.983  0.00  0.00    +0.000 NA
ATOM     27  C   UNL     1      52.457   3.613  18.256  0.00  0.00    +0.000 A 
ATOM     28  N   UNL     1      51.816   2.694  17.463  0.00  0.00    +0.000 N 
ATOM     29  C   UNL     1      50.445   2.600  17.392  0.00  0.00    +0.000 A 
ATOM     30  O   UNL     1      49.892   1.617  16.913  0.00  0.00    +0.000 OA
ATOM     31  C   UNL     1      49.758   3.692  18.052  0.00  0.00    +0.000 A 
ATOM     32  H   UNL     1      52.329   1.938  17.031  0.00  0.00    +0.000 HD
ENDBRANCH  21  22
ENDBRANCH  19  21
ENDBRANCH   1  19
TORSDOF 8
ENDMDL
MODEL 2
REMARK VINA RESULT:    -8.361      2.105      2.449
REMARK INTER + INTRA:         -12.797
REMARK INTER:                 -11.701
REMARK INTRA:                  -1.096
REMARK UNBOUND:                -0.769
REMARK  Name = 
REMARK  8 active torsions:
REMARK  status: ('A' for Active; 'I' for Inactive)
REMARK    1  A    between atoms: C_2  and  C_3
REMARK    2  A    between atoms: C_2  and  C_20
REMARK    3  A    between atoms: C_3  and  N_4
REMARK    4  A    between atoms: N_4  and  C_5
REMARK    5  A    between atoms: C_8  and  C_9
REMARK    6  A    between atoms: C_9  and  O_10
REMARK    7  A    between atoms: C_9  and  C_11
REMARK    8  A    between atoms: C_11  and  C_12
REMARK                            x       y       z     vdW  Elec       q    Type
REMARK                         _______ _______ _______ _____ _____    ______ ____
ROOT
ATOM      1  N   UNL     1      47.350   5.784  14.807  0.00  0.00    +0.000 N 
ATOM      2  H   UNL     1      46.732   6.242  15.483  0.00  0.00    +0.000 HD
ENDROOT
BRANCH   1   3
ATOM      3  C   UNL     1      46.640   5.192  13.757  0.00  0.00    +0.000 A 
ATOM      4  C   UNL     1      46.535   3.819  13.644  0.00  0.00    +0.000 A 
ATOM      5  N   UNL     1      45.823   3.177  12.690  0.00  0.00    +0.000 NA
ATOM      6  C   UNL     1      45.154   3.952  11.814  0.00  0.00    +0.000 A 
ATOM      7  N   UNL     1      45.162   5.297  11.837  0.00  0.00    +0.000 NA
ATOM      8  C   UNL     1      45.910   5.873  12.796  0.00  0.00    +0.000 A 
BRANCH   6   9
ATOM      9  C   UNL     1      44.137   3.287  10.901  0.00  0.00    +0.000 C 
BRANCH   9  10
ATOM     10  O   UNL     1      42.819   3.558  11.416  0.00  0.00    +0.000 OA
ATOM     11  H   UNL     1      42.596   4.457  11.114  0.00  0.00    +0.000 HD
ENDBRANCH   9  10
BRANCH   9  12
ATOM     12  C   UNL     1      44.231   3.810   9.453  0.00  0.00    +0.000 C 
BRANCH  12  13
ATOM     13  C   UNL     1      45.283   3.149   8.583  0.00  0.00    +0.000 A 
ATOM     14  C   UNL     1      45.505   1.767   8.707  0.00  0.00    +0.000 A 
ATOM     15  C   UNL     1      46.479   1.129   7.940  0.00  0.00    +0.000 A 
ATOM     16  C   UNL     1      47.240   1.859   7.028  0.00  0.00    +0.000 A 
ATOM     17  C   UNL     1      47.015   3.225   6.878  0.00  0.00    +0.000 A 
ATOM     18  C   UNL     1      46.038   3.864   7.642  0.00  0.00    +0.000 A 
ENDBRANCH  12  13
ENDBRANCH   9  12
ENDBRANCH   6   9
ENDBRANCH   1   3
BRANCH   1  19
ATOM     19  C   UNL     1      48.459   6.659  14.406  0.00  0.00    +0.000 C 
BRANCH  19  21
ATOM     20  O   UNL     1      50.683   6.966  15.261  0.00  0.00    +0.000 OA
ATOM     21  C   UNL     1      49.482   6.896  15.513  0.00  0.00    +0.000 C 
BRANCH  21  22
ATOM     22  C   UNL     1      48.958   7.030  16.878  0.00  0.00    +0.000 A 
ATOM     23  C   UNL     1      48.468   8.210  17.415  0.00  0.00    +0.000 A 
ATOM     24  S   UNL     1      48.212   8.121  19.104  0.00  0.00    +0.000 S 
ATOM     25  C   UNL     1      48.652   6.477  19.128  0.00  0.00    +0.000 A 
ATOM     26  N   UNL     1      48.738   5.781  20.291  0.00  0.00    +0.000 NA
ATOM     27  C   UNL     1      49.034   4.533  20.137  0.00  0.00    +0.000 A 
ATOM     28  N   UNL     1      49.204   3.907  18.927  0.00  0.00    +0.000 N 
ATOM     29  C   UNL     1      49.032   4.553  17.724  0.00  0.00    +0.000 A 
ATOM     30  O   UNL     1      48.911   3.934  16.674  0.00  0.00    +0.000 OA
ATOM     31  C   UNL     1      48.875   5.987  17.858  0.00  0.00    +0.000 A 
ATOM     32  H   UNL     1      49.297   2.902  18.874  0.00  0.00    +0.000 HD
ENDBRANCH  21  22
ENDBRANCH  19  21
ENDBRANCH   1  19
TORSDOF 8
ENDMDL
MODEL 3
REMARK VINA RESULT:    -8.267      2.207      3.055
REMARK INTER + INTRA:         -12.661
REMARK INTER:                 -11.593
REMARK INTRA:                  -1.067
REMARK UNBOUND:                -0.769
REMARK  Name = 
REMARK  8 active torsions:
REMARK  status: ('A' for Active; 'I' for Inactive)
REMARK    1  A    between atoms: C_2  and  C_3
REMARK    2  A    between atoms: C_2  and  C_20
REMARK    3  A    between atoms: C_3  and  N_4
REMARK    4  A    between atoms: N_4  and  C_5
REMARK    5  A    between atoms: C_8  and  C_9
REMARK    6  A    between atoms: C_9  and  O_10
REMARK    7  A    between atoms: C_9  and  C_11
REMARK    8  A    between atoms: C_11  and  C_12
REMARK                            x       y       z     vdW  Elec       q    Type
REMARK                         _______ _______ _______ _____ _____    ______ ____
ROOT
ATOM      1  N   UNL     1      47.319   5.305  15.101  0.00  0.00    +0.000 N 
ATOM      2  H   UNL     1      48.267   5.601  14.853  0.00  0.00    +0.000 HD
ENDROOT
BRANCH   1   3
ATOM      3  C   UNL     1      46.593   4.867  13.989  0.00  0.00    +0.000 A 
ATOM      4  C   UNL     1      46.507   3.525  13.670  0.00  0.00    +0.000 A 
ATOM      5  N   UNL     1      45.782   3.023  12.644  0.00  0.00    +0.000 NA
ATOM      6  C   UNL     1      45.080   3.910  11.911  0.00  0.00    +0.000 A 
ATOM      7  N   UNL     1      45.068   5.235  12.140  0.00  0.00    +0.000 NA
ATOM      8  C   UNL     1      45.830   5.672  13.159  0.00  0.00    +0.000 A 
BRANCH   6   9
ATOM      9  C   UNL     1      44.052   3.372  10.929  0.00  0.00    +0.000 C 
BRANCH   9  10
ATOM     10  O   UNL     1      42.739   3.717  11.412  0.00  0.00    +0.000 OA
ATOM     11  H   UNL     1      42.790   4.656  11.670  0.00  0.00    +0.000 HD
ENDBRANCH   9  10
BRANCH   9  12
ATOM     12  C   UNL     1      44.241   3.959   9.515  0.00  0.00    +0.000 C 
BRANCH  12  13
ATOM     13  C   UNL     1      45.266   3.258   8.644  0.00  0.00    +0.000 A 
ATOM     14  C   UNL     1      45.443   1.871   8.778  0.00  0.00    +0.000 A 
ATOM     15  C   UNL     1      46.391   1.195   8.010  0.00  0.00    +0.000 A 
ATOM     16  C   UNL     1      47.169   1.893   7.088  0.00  0.00    +0.000 A 
ATOM     17  C   UNL     1      46.988   3.264   6.927  0.00  0.00    +0.000 A 
ATOM     18  C   UNL     1      46.037   3.940   7.693  0.00  0.00    +0.000 A 
ENDBRANCH  12  13
ENDBRANCH   9  12
ENDBRANCH   6   9
ENDBRANCH   1   3
BRANCH   1  19
ATOM     19  C   UNL     1      47.320   4.395  16.254  0.00  0.00    +0.000 C 
BRANCH  19  21
ATOM     20  O   UNL     1      49.634   3.934  16.712  0.00  0.00    +0.000 OA
ATOM     21  C   UNL     1      48.594   4.469  17.090  0.00  0.00    +0.000 C 
BRANCH  21  22
ATOM     22  C   UNL     1      48.508   5.203  18.360  0.00  0.00    +0.000 A 
ATOM     23  C   UNL     1      48.627   4.616  19.610  0.00  0.00    +0.000 A 
ATOM     24  S   UNL     1      48.188   5.666  20.886  0.00  0.00    +0.000 S 
ATOM     25  C   UNL     1      47.931   6.951  19.800  0.00  0.00    +0.000 A 
ATOM     26  N   UNL     1      47.448   8.149  20.217  0.00  0.00    +0.000 NA
ATOM     27  C   UNL     1      47.357   9.036  19.281  0.00  0.00    +0.000 A 
ATOM     28  N   UNL     1      47.748   8.848  17.978  0.00  0.00    +0.000 N 
ATOM     29  C   UNL     1      48.329   7.681  17.536  0.00  0.00    +0.000 A 
ATOM     30  O   UNL     1      48.921   7.624  16.465  0.00  0.00    +0.000 OA
ATOM     31  C   UNL     1      48.285   6.610  18.511  0.00  0.00    +0.000 A 
ATOM     32  H   UNL     1      47.779   9.624  17.331  0.00  0.00    +0.000 HD
ENDBRANCH  21  22
ENDBRANCH  19  21
ENDBRANCH   1  19
TORSDOF 8
ENDMDL
MODEL 4
REMARK VINA RESULT:    -8.081      2.039      2.547
REMARK INTER + INTRA:         -12.393
REMARK INTER:                 -11.503
REMARK INTRA:                  -0.891
REMARK UNBOUND:                -0.769
REMARK  Name = 
REMARK  8 active torsions:
REMARK  status: ('A' for Active; 'I' for Inactive)
REMARK    1  A    between atoms: C_2  and  C_3
REMARK    2  A    between atoms: C_2  and  C_20
REMARK    3  A    between atoms: C_3  and  N_4
REMARK    4  A    between atoms: N_4  and  C_5
REMARK    5  A    between atoms: C_8  and  C_9
REMARK    6  A    between atoms: C_9  and  O_10
REMARK    7  A    between atoms: C_9  and  C_11
REMARK    8  A    between atoms: C_11  and  C_12
REMARK                            x       y       z     vdW  Elec       q    Type
REMARK                         _______ _______ _______ _____ _____    ______ ____
ROOT
ATOM      1  N   UNL     1      47.085   7.032  14.037  0.00  0.00    +0.000 N 
ATOM      2  H   UNL     1      46.964   7.988  13.690  0.00  0.00    +0.000 HD
ENDROOT
BRANCH   1   3
ATOM      3  C   UNL     1      46.480   6.086  13.203  0.00  0.00    +0.000 A 
ATOM      4  C   UNL     1      46.061   4.863  13.691  0.00  0.00    +0.000 A 
ATOM      5  N   UNL     1      45.422   3.922  12.960  0.00  0.00    +0.000 NA
ATOM      6  C   UNL     1      45.161   4.230  11.674  0.00  0.00    +0.000 A 
ATOM      7  N   UNL     1      45.500   5.396  11.095  0.00  0.00    +0.000 NA
ATOM      8  C   UNL     1      46.156   6.279  11.871  0.00  0.00    +0.000 A 
BRANCH   6   9
ATOM      9  C   UNL     1      44.219   3.325  10.898  0.00  0.00    +0.000 C 
BRANCH   9  10
ATOM     10  O   UNL     1      42.891   3.485  11.433  0.00  0.00    +0.000 OA
ATOM     11  H   UNL     1      42.288   3.124  10.758  0.00  0.00    +0.000 HD
ENDBRANCH   9  10
BRANCH   9  12
ATOM     12  C   UNL     1      44.201   3.666   9.393  0.00  0.00    +0.000 C 
BRANCH  12  13
ATOM     13  C   UNL     1      45.284   3.011   8.558  0.00  0.00    +0.000 A 
ATOM     14  C   UNL     1      46.018   3.794   7.652  0.00  0.00    +0.000 A 
ATOM     15  C   UNL     1      47.007   3.222   6.852  0.00  0.00    +0.000 A 
ATOM     16  C   UNL     1      47.285   1.860   6.952  0.00  0.00    +0.000 A 
ATOM     17  C   UNL     1      46.582   1.076   7.862  0.00  0.00    +0.000 A 
ATOM     18  C   UNL     1      45.595   1.648   8.665  0.00  0.00    +0.000 A 
ENDBRANCH  12  13
ENDBRANCH   9  12
ENDBRANCH   6   9
ENDBRANCH   1   3
BRANCH   1  19
ATOM     19  C   UNL     1      48.483   6.759  14.393  0.00  0.00    +0.000 C 
BRANCH  19  21
ATOM     20  O   UNL     1      48.365   8.247  16.276  0.00  0.00    +0.000 OA
ATOM     21  C   UNL     1      48.862   7.232  15.793  0.00  0.00    +0.000 C 
BRANCH  21  22
ATOM     22  C   UNL     1      49.846   6.420  16.520  0.00  0.00    +0.000 A 
ATOM     23  C   UNL     1      51.105   6.866  16.892  0.00  0.00    +0.000 A 
ATOM     24  S   UNL     1      52.120   5.610  17.454  0.00  0.00    +0.000 S 
ATOM     25  C   UNL     1      50.865   4.469  17.307  0.00  0.00    +0.000 A 
ATOM     26  N   UNL     1      51.073   3.149  17.546  0.00  0.00    +0.000 NA
ATOM     27  C   UNL     1      50.010   2.421  17.441  0.00  0.00    +0.000 A 
ATOM     28  N   UNL     1      48.752   2.899  17.167  0.00  0.00    +0.000 N 
ATOM     29  C   UNL     1      48.483   4.239  17.012  0.00  0.00    +0.000 A 
ATOM     30  O   UNL     1      47.337   4.672  17.048  0.00  0.00    +0.000 OA
ATOM     31  C   UNL     1      49.673   5.063  16.948  0.00  0.00    +0.000 A 
ATOM     32  H   UNL     1      47.945   2.296  17.235  0.00  0.00    +0.000 HD
ENDBRANCH  21  22
ENDBRANCH  19  21
ENDBRANCH   1  19
TORSDOF 8
ENDMDL
MODEL 5
REMARK VINA RESULT:    -7.926      2.859      8.878
REMARK INTER + INTRA:         -12.171
REMARK INTER:                 -11.433
REMARK INTRA:                  -0.739
REMARK UNBOUND:                -0.769
REMARK  Name = 
REMARK  8 active torsions:
REMARK  status: ('A' for Active; 'I' for Inactive)
REMARK    1  A    between atoms: C_2  and  C_3
REMARK    2  A    between atoms: C_2  and  C_20
REMARK    3  A    between atoms: C_3  and  N_4
REMARK    4  A    between atoms: N_4  and  C_5
REMARK    5  A    between atoms: C_8  and  C_9
REMARK    6  A    between atoms: C_9  and  O_10
REMARK    7  A    between atoms: C_9  and  C_11
REMARK    8  A    between atoms: C_11  and  C_12
REMARK                            x       y       z     vdW  Elec       q    Type
REMARK                         _______ _______ _______ _____ _____    ______ ____
ROOT
ATOM      1  N   UNL     1      47.647   6.925  12.946  0.00  0.00    +0.000 N 
ATOM      2  H   UNL     1      47.180   7.823  13.106  0.00  0.00    +0.000 HD
ENDROOT
BRANCH   1   3
ATOM      3  C   UNL     1      47.654   6.123  14.092  0.00  0.00    +0.000 A 
ATOM      4  C   UNL     1      46.952   4.934  14.140  0.00  0.00    +0.000 A 
ATOM      5  N   UNL     1      46.954   4.081  15.190  0.00  0.00    +0.000 NA
ATOM      6  C   UNL     1      47.724   4.421  16.242  0.00  0.00    +0.000 A 
ATOM      7  N   UNL     1      48.469   5.540  16.300  0.00  0.00    +0.000 NA
ATOM      8  C   UNL     1      48.402   6.358  15.234  0.00  0.00    +0.000 A 
BRANCH   6   9
ATOM      9  C   UNL     1      47.967   3.377  17.319  0.00  0.00    +0.000 C 
BRANCH   9  10
ATOM     10  O   UNL     1      46.699   2.807  17.694  0.00  0.00    +0.000 OA
ATOM     11  H   UNL     1      46.902   2.118  18.353  0.00  0.00    +0.000 HD
ENDBRANCH   9  10
BRANCH   9  12
ATOM     12  C   UNL     1      48.903   2.252  16.832  0.00  0.00    +0.000 C 
BRANCH  12  13
ATOM     13  C   UNL     1      50.336   2.330  17.323  0.00  0.00    +0.000 A 
ATOM     14  C   UNL     1      50.815   3.541  17.847  0.00  0.00    +0.000 A 
ATOM     15  C   UNL     1      52.134   3.657  18.287  0.00  0.00    +0.000 A 
ATOM     16  C   UNL     1      52.990   2.560  18.221  0.00  0.00    +0.000 A 
ATOM     17  C   UNL     1      52.523   1.346  17.726  0.00  0.00    +0.000 A 
ATOM     18  C   UNL     1      51.203   1.228  17.289  0.00  0.00    +0.000 A 
ENDBRANCH  12  13
ENDBRANCH   9  12
ENDBRANCH   6   9
ENDBRANCH   1   3
BRANCH   1  19
ATOM     19  C   UNL     1      47.166   6.275  11.721  0.00  0.00    +0.000 C 
BRANCH  19  21
ATOM     20  O   UNL     1      45.237   7.663  11.368  0.00  0.00    +0.000 OA
ATOM     21  C   UNL     1      45.688   6.522  11.437  0.00  0.00    +0.000 C 
BRANCH  21  22
ATOM     22  C   UNL     1      44.843   5.334  11.258  0.00  0.00    +0.000 A 
ATOM     23  C   UNL     1      43.811   4.974  12.111  0.00  0.00    +0.000 A 
ATOM     24  S   UNL     1      43.214   3.400  11.811  0.00  0.00    +0.000 S 
ATOM     25  C   UNL     1      44.250   3.213  10.474  0.00  0.00    +0.000 A 
ATOM     26  N   UNL     1      44.323   2.044   9.788  0.00  0.00    +0.000 NA
ATOM     27  C   UNL     1      45.118   2.079   8.770  0.00  0.00    +0.000 A 
ATOM     28  N   UNL     1      45.809   3.188   8.347  0.00  0.00    +0.000 N 
ATOM     29  C   UNL     1      45.689   4.416   8.957  0.00  0.00    +0.000 A 
ATOM     30  O   UNL     1      46.080   5.443   8.415  0.00  0.00    +0.000 OA
ATOM     31  C   UNL     1      44.948   4.372  10.201  0.00  0.00    +0.000 A 
ATOM     32  H   UNL     1      46.303   3.184   7.466  0.00  0.00    +0.000 HD
ENDBRANCH  21  22
ENDBRANCH  19  21
ENDBRANCH   1  19
TORSDOF 8
ENDMDL
MODEL 6
REMARK VINA RESULT:    -7.906      4.520      6.600
REMARK INTER + INTRA:         -12.141
REMARK INTER:                 -11.096
REMARK INTRA:                  -1.045
REMARK UNBOUND:                -0.769
REMARK  Name = 
REMARK  8 active torsions:
REMARK  status: ('A' for Active; 'I' for Inactive)
REMARK    1  A    between atoms: C_2  and  C_3
REMARK    2  A    between atoms: C_2  and  C_20
REMARK    3  A    between atoms: C_3  and  N_4
REMARK    4  A    between atoms: N_4  and  C_5
REMARK    5  A    between atoms: C_8  and  C_9
REMARK    6  A    between atoms: C_9  and  O_10
REMARK    7  A    between atoms: C_9  and  C_11
REMARK    8  A    between atoms: C_11  and  C_12
REMARK                            x       y       z     vdW  Elec       q    Type
REMARK                         _______ _______ _______ _____ _____    ______ ____
ROOT
ATOM      1  N   UNL     1      47.066   6.484  13.909  0.00  0.00    +0.000 N 
ATOM      2  H   UNL     1      46.468   7.221  14.295  0.00  0.00    +0.000 HD
ENDROOT
BRANCH   1   3
ATOM      3  C   UNL     1      46.329   5.502  13.240  0.00  0.00    +0.000 A 
ATOM      4  C   UNL     1      45.655   5.783  12.067  0.00  0.00    +0.000 A 
ATOM      5  N   UNL     1      44.967   4.875  11.338  0.00  0.00    +0.000 NA
ATOM      6  C   UNL     1      44.975   3.607  11.791  0.00  0.00    +0.000 A 
ATOM      7  N   UNL     1      45.613   3.209  12.907  0.00  0.00    +0.000 NA
ATOM      8  C   UNL     1      46.257   4.166  13.600  0.00  0.00    +0.000 A 
BRANCH   6   9
ATOM      9  C   UNL     1      44.449   2.515  10.874  0.00  0.00    +0.000 C 
BRANCH   9  10
ATOM     10  O   UNL     1      43.187   2.055  11.393  0.00  0.00    +0.000 OA
ATOM     11  H   UNL     1      43.100   2.456  12.277  0.00  0.00    +0.000 HD
ENDBRANCH   9  10
BRANCH   9  12
ATOM     12  C   UNL     1      44.249   3.020   9.430  0.00  0.00    +0.000 C 
BRANCH  12  13
ATOM     13  C   UNL     1      45.380   2.720   8.466  0.00  0.00    +0.000 A 
ATOM     14  C   UNL     1      45.894   1.415   8.399  0.00  0.00    +0.000 A 
ATOM     15  C   UNL     1      46.950   1.107   7.540  0.00  0.00    +0.000 A 
ATOM     16  C   UNL     1      47.500   2.097   6.728  0.00  0.00    +0.000 A 
ATOM     17  C   UNL     1      46.986   3.390   6.767  0.00  0.00    +0.000 A 
ATOM     18  C   UNL     1      45.928   3.698   7.623  0.00  0.00    +0.000 A 
ENDBRANCH  12  13
ENDBRANCH   9  12
ENDBRANCH   6   9
ENDBRANCH   1   3
BRANCH   1  19
ATOM     19  C   UNL     1      48.199   7.042  13.162  0.00  0.00    +0.000 C 
BRANCH  19  21
ATOM     20  O   UNL     1      48.823   8.851  14.616  0.00  0.00    +0.000 OA
ATOM     21  C   UNL     1      48.484   8.506  13.486  0.00  0.00    +0.000 C 
BRANCH  21  22
ATOM     22  C   UNL     1      48.328   9.467  12.386  0.00  0.00    +0.000 A 
ATOM     23  C   UNL     1      49.354   9.859  11.540  0.00  0.00    +0.000 A 
ATOM     24  S   UNL     1      48.939  11.199  10.562  0.00  0.00    +0.000 S 
ATOM     25  C   UNL     1      47.352  11.213  11.178  0.00  0.00    +0.000 A 
ATOM     26  N   UNL     1      46.462  12.177  10.828  0.00  0.00    +0.000 NA
ATOM     27  C   UNL     1      45.286  12.020  11.340  0.00  0.00    +0.000 A 
ATOM     28  N   UNL     1      44.907  10.963  12.130  0.00  0.00    +0.000 N 
ATOM     29  C   UNL     1      45.750   9.917  12.430  0.00  0.00    +0.000 A 
ATOM     30  O   UNL     1      45.327   8.863  12.890  0.00  0.00    +0.000 OA
ATOM     31  C   UNL     1      47.121  10.147  12.022  0.00  0.00    +0.000 A 
ATOM     32  H   UNL     1      43.938  10.829  12.383  0.00  0.00    +0.000 HD
ENDBRANCH  21  22
ENDBRANCH  19  21
ENDBRANCH   1  19
TORSDOF 8
ENDMDL
MODEL 7
REMARK VINA RESULT:    -7.824      1.869      2.481
REMARK INTER + INTRA:         -12.024
REMARK INTER:                 -10.931
REMARK INTRA:                  -1.093
REMARK UNBOUND:                -0.769
REMARK  Name = 
REMARK  8 active torsions:
REMARK  status: ('A' for Active; 'I' for Inactive)
REMARK    1  A    between atoms: C_2  and  C_3
REMARK    2  A    between atoms: C_2  and  C_20
REMARK    3  A    between atoms: C_3  and  N_4
REMARK    4  A    between atoms: N_4  and  C_5
REMARK    5  A    between atoms: C_8  and  C_9
REMARK    6  A    between atoms: C_9  and  O_10
REMARK    7  A    between atoms: C_9  and  C_11
REMARK    8  A    between atoms: C_11  and  C_12
REMARK                            x       y       z     vdW  Elec       q    Type
REMARK                         _______ _______ _______ _____ _____    ______ ____
ROOT
ATOM      1  N   UNL     1      47.343   5.227  14.699  0.00  0.00    +0.000 N 
ATOM      2  H   UNL     1      48.295   5.499  14.439  0.00  0.00    +0.000 HD
ENDROOT
BRANCH   1   3
ATOM      3  C   UNL     1      46.529   5.017  13.581  0.00  0.00    +0.000 A 
ATOM      4  C   UNL     1      46.406   5.974  12.592  0.00  0.00    +0.000 A 
ATOM      5  N   UNL     1      45.682   5.822  11.460  0.00  0.00    +0.000 NA
ATOM      6  C   UNL     1      45.067   4.635  11.292  0.00  0.00    +0.000 A 
ATOM      7  N   UNL     1      45.132   3.621  12.174  0.00  0.00    +0.000 NA
ATOM      8  C   UNL     1      45.848   3.846  13.291  0.00  0.00    +0.000 A 
BRANCH   6   9
ATOM      9  C   UNL     1      44.472   4.323   9.929  0.00  0.00    +0.000 C 
BRANCH   9  10
ATOM     10  O   UNL     1      43.308   5.150   9.741  0.00  0.00    +0.000 OA
ATOM     11  H   UNL     1      43.488   5.686   8.947  0.00  0.00    +0.000 HD
ENDBRANCH   9  10
BRANCH   9  12
ATOM     12  C   UNL     1      45.473   4.592   8.786  0.00  0.00    +0.000 C 
BRANCH  12  13
ATOM     13  C   UNL     1      46.098   3.362   8.157  0.00  0.00    +0.000 A 
ATOM     14  C   UNL     1      47.039   3.524   7.126  0.00  0.00    +0.000 A 
ATOM     15  C   UNL     1      47.619   2.416   6.509  0.00  0.00    +0.000 A 
ATOM     16  C   UNL     1      47.275   1.129   6.919  0.00  0.00    +0.000 A 
ATOM     17  C   UNL     1      46.362   0.953   7.954  0.00  0.00    +0.000 A 
ATOM     18  C   UNL     1      45.784   2.062   8.575  0.00  0.00    +0.000 A 
ENDBRANCH  12  13
ENDBRANCH   9  12
ENDBRANCH   6   9
ENDBRANCH   1   3
BRANCH   1  19
ATOM     19  C   UNL     1      47.341   4.147  15.694  0.00  0.00    +0.000 C 
BRANCH  19  21
ATOM     20  O   UNL     1      47.169   4.960  17.949  0.00  0.00    +0.000 OA
ATOM     21  C   UNL     1      47.906   4.563  17.049  0.00  0.00    +0.000 C 
BRANCH  21  22
ATOM     22  C   UNL     1      49.363   4.468  17.213  0.00  0.00    +0.000 A 
ATOM     23  C   UNL     1      50.035   3.310  17.572  0.00  0.00    +0.000 A 
ATOM     24  S   UNL     1      51.674   3.584  17.971  0.00  0.00    +0.000 S 
ATOM     25  C   UNL     1      51.541   5.234  17.573  0.00  0.00    +0.000 A 
ATOM     26  N   UNL     1      52.571   6.097  17.766  0.00  0.00    +0.000 NA
ATOM     27  C   UNL     1      52.330   7.303  17.367  0.00  0.00    +0.000 A 
ATOM     28  N   UNL     1      51.173   7.712  16.752  0.00  0.00    +0.000 N 
ATOM     29  C   UNL     1      50.143   6.849  16.453  0.00  0.00    +0.000 A 
ATOM     30  O   UNL     1      49.254   7.157  15.668  0.00  0.00    +0.000 OA
ATOM     31  C   UNL     1      50.305   5.534  17.041  0.00  0.00    +0.000 A 
ATOM     32  H   UNL     1      51.104   8.633  16.342  0.00  0.00    +0.000 HD
ENDBRANCH  21  22
ENDBRANCH  19  21
ENDBRANCH   1  19
TORSDOF 8
ENDMDL
MODEL 8
REMARK VINA RESULT:    -7.627      3.407      4.250
REMARK INTER + INTRA:         -11.741
REMARK INTER:                 -10.936
REMARK INTRA:                  -0.805
REMARK UNBOUND:                -0.769
REMARK  Name = 
REMARK  8 active torsions:
REMARK  status: ('A' for Active; 'I' for Inactive)
REMARK    1  A    between atoms: C_2  and  C_3
REMARK    2  A    between atoms: C_2  and  C_20
REMARK    3  A    between atoms: C_3  and  N_4
REMARK    4  A    between atoms: N_4  and  C_5
REMARK    5  A    between atoms: C_8  and  C_9
REMARK    6  A    between atoms: C_9  and  O_10
REMARK    7  A    between atoms: C_9  and  C_11
REMARK    8  A    between atoms: C_11  and  C_12
REMARK                            x       y       z     vdW  Elec       q    Type
REMARK                         _______ _______ _______ _____ _____    ______ ____
ROOT
ATOM      1  N   UNL     1      47.715   6.373  14.088  0.00  0.00    +0.000 N 
ATOM      2  H   UNL     1      47.282   7.118  14.642  0.00  0.00    +0.000 HD
ENDROOT
BRANCH   1   3
ATOM      3  C   UNL     1      46.767   5.580  13.435  0.00  0.00    +0.000 A 
ATOM      4  C   UNL     1      45.898   6.117  12.504  0.00  0.00    +0.000 A 
ATOM      5  N   UNL     1      44.992   5.405  11.796  0.00  0.00    +0.000 NA
ATOM      6  C   UNL     1      44.971   4.075  12.009  0.00  0.00    +0.000 A 
ATOM      7  N   UNL     1      45.781   3.437  12.872  0.00  0.00    +0.000 NA
ATOM      8  C   UNL     1      46.642   4.206  13.564  0.00  0.00    +0.000 A 
BRANCH   6   9
ATOM      9  C   UNL     1      44.167   3.209  11.053  0.00  0.00    +0.000 C 
BRANCH   9  10
ATOM     10  O   UNL     1      42.808   3.151  11.526  0.00  0.00    +0.000 OA
ATOM     11  H   UNL     1      42.335   3.867  11.063  0.00  0.00    +0.000 HD
ENDBRANCH   9  10
BRANCH   9  12
ATOM     12  C   UNL     1      44.179   3.771   9.616  0.00  0.00    +0.000 C 
BRANCH  12  13
ATOM     13  C   UNL     1      45.220   3.177   8.687  0.00  0.00    +0.000 A 
ATOM     14  C   UNL     1      45.507   1.805   8.769  0.00  0.00    +0.000 A 
ATOM     15  C   UNL     1      46.474   1.227   7.946  0.00  0.00    +0.000 A 
ATOM     16  C   UNL     1      47.161   2.010   7.021  0.00  0.00    +0.000 A 
ATOM     17  C   UNL     1      46.870   3.367   6.911  0.00  0.00    +0.000 A 
ATOM     18  C   UNL     1      45.900   3.945   7.732  0.00  0.00    +0.000 A 
ENDBRANCH  12  13
ENDBRANCH   9  12
ENDBRANCH   6   9
ENDBRANCH   1   3
BRANCH   1  19
ATOM     19  C   UNL     1      48.798   6.889  13.241  0.00  0.00    +0.000 C 
BRANCH  19  21
ATOM     20  O   UNL     1      50.816   8.178  13.445  0.00  0.00    +0.000 OA
ATOM     21  C   UNL     1      49.909   7.583  14.024  0.00  0.00    +0.000 C 
BRANCH  21  22
ATOM     22  C   UNL     1      49.838   7.496  15.488  0.00  0.00    +0.000 A 
ATOM     23  C   UNL     1      50.413   6.483  16.239  0.00  0.00    +0.000 A 
ATOM     24  S   UNL     1      49.910   6.494  17.874  0.00  0.00    +0.000 S 
ATOM     25  C   UNL     1      48.999   7.911  17.630  0.00  0.00    +0.000 A 
ATOM     26  N   UNL     1      48.226   8.437  18.614  0.00  0.00    +0.000 NA
ATOM     27  C   UNL     1      47.637   9.540  18.288  0.00  0.00    +0.000 A 
ATOM     28  N   UNL     1      47.788  10.189  17.087  0.00  0.00    +0.000 N 
ATOM     29  C   UNL     1      48.635   9.739  16.100  0.00  0.00    +0.000 A 
ATOM     30  O   UNL     1      48.972  10.458  15.167  0.00  0.00    +0.000 OA
ATOM     31  C   UNL     1      49.173   8.419  16.359  0.00  0.00    +0.000 A 
ATOM     32  H   UNL     1      47.409  11.115  16.950  0.00  0.00    +0.000 HD
ENDBRANCH  21  22
ENDBRANCH  19  21
ENDBRANCH   1  19
TORSDOF 8
ENDMDL
MODEL 9
REMARK VINA RESULT:    -7.150      4.031      5.218
REMARK INTER + INTRA:         -11.055
REMARK INTER:                 -10.078
REMARK INTRA:                  -0.976
REMARK UNBOUND:                -0.769
REMARK  Name = 
REMARK  8 active torsions:
REMARK  status: ('A' for Active; 'I' for Inactive)
REMARK    1  A    between atoms: C_2  and  C_3
REMARK    2  A    between atoms: C_2  and  C_20
REMARK    3  A    between atoms: C_3  and  N_4
REMARK    4  A    between atoms: N_4  and  C_5
REMARK    5  A    between atoms: C_8  and  C_9
REMARK    6  A    between atoms: C_9  and  O_10
REMARK    7  A    between atoms: C_9  and  C_11
REMARK    8  A    between atoms: C_11  and  C_12
REMARK                            x       y       z     vdW  Elec       q    Type
REMARK                         _______ _______ _______ _____ _____    ______ ____
ROOT
ATOM      1  N   UNL     1      46.737   7.001  13.787  0.00  0.00    +0.000 N 
ATOM      2  H   UNL     1      46.822   7.849  13.219  0.00  0.00    +0.000 HD
ENDROOT
BRANCH   1   3
ATOM      3  C   UNL     1      46.114   5.959  13.092  0.00  0.00    +0.000 A 
ATOM      4  C   UNL     1      45.545   6.163  11.850  0.00  0.00    +0.000 A 
ATOM      5  N   UNL     1      44.973   5.196  11.097  0.00  0.00    +0.000 NA
ATOM      6  C   UNL     1      44.996   3.947  11.602  0.00  0.00    +0.000 A 
ATOM      7  N   UNL     1      45.540   3.623  12.788  0.00  0.00    +0.000 NA
ATOM      8  C   UNL     1      46.069   4.636  13.499  0.00  0.00    +0.000 A 
BRANCH   6   9
ATOM      9  C   UNL     1      44.611   2.797  10.685  0.00  0.00    +0.000 C 
BRANCH   9  10
ATOM     10  O   UNL     1      43.348   2.266  11.127  0.00  0.00    +0.000 OA
ATOM     11  H   UNL     1      43.373   2.295  12.101  0.00  0.00    +0.000 HD
ENDBRANCH   9  10
BRANCH   9  12
ATOM     12  C   UNL     1      44.484   3.248   9.215  0.00  0.00    +0.000 C 
BRANCH  12  13
ATOM     13  C   UNL     1      45.559   2.737   8.275  0.00  0.00    +0.000 A 
ATOM     14  C   UNL     1      46.029   1.422   8.424  0.00  0.00    +0.000 A 
ATOM     15  C   UNL     1      47.033   0.924   7.593  0.00  0.00    +0.000 A 
ATOM     16  C   UNL     1      47.574   1.730   6.593  0.00  0.00    +0.000 A 
ATOM     17  C   UNL     1      47.101   3.028   6.418  0.00  0.00    +0.000 A 
ATOM     18  C   UNL     1      46.095   3.525   7.247  0.00  0.00    +0.000 A 
ENDBRANCH  12  13
ENDBRANCH   9  12
ENDBRANCH   6   9
ENDBRANCH   1   3
BRANCH   1  19
ATOM     19  C   UNL     1      48.007   6.656  14.438  0.00  0.00    +0.000 C 
BRANCH  19  21
ATOM     20  O   UNL     1      49.673   6.768  12.711  0.00  0.00    +0.000 OA
ATOM     21  C   UNL     1      49.230   7.254  13.749  0.00  0.00    +0.000 C 
BRANCH  21  22
ATOM     22  C   UNL     1      49.844   8.423  14.392  0.00  0.00    +0.000 A 
ATOM     23  C   UNL     1      50.929   8.362  15.252  0.00  0.00    +0.000 A 
ATOM     24  S   UNL     1      51.222   9.838  16.064  0.00  0.00    +0.000 S 
ATOM     25  C   UNL     1      49.972  10.611  15.205  0.00  0.00    +0.000 A 
ATOM     26  N   UNL     1      49.614  11.893  15.471  0.00  0.00    +0.000 NA
ATOM     27  C   UNL     1      48.683  12.350  14.699  0.00  0.00    +0.000 A 
ATOM     28  N   UNL     1      48.114  11.661  13.657  0.00  0.00    +0.000 N 
ATOM     29  C   UNL     1      48.515  10.395  13.295  0.00  0.00    +0.000 A 
ATOM     30  O   UNL     1      48.207   9.908  12.214  0.00  0.00    +0.000 OA
ATOM     31  C   UNL     1      49.427   9.786  14.243  0.00  0.00    +0.000 A 
ATOM     32  H   UNL     1      47.493  12.124  13.009  0.00  0.00    +0.000 HD
ENDBRANCH  21  22
ENDBRANCH  19  21
ENDBRANCH   1  19
TORSDOF 8
ENDMDL
