MODEL 1
REMARK VINA RESULT:    -7.582      0.000      0.000
REMARK INTER + INTRA:         -12.203
REMARK INTER:                 -11.349
REMARK INTRA:                  -0.854
REMARK UNBOUND:                -0.854
REMARK  Name = 
REMARK  9 active torsions:
REMARK  status: ('A' for Active; 'I' for Inactive)
REMARK    1  A    between atoms: C_2  and  C_13
REMARK    2  A    between atoms: N_3  and  CA_4
REMARK    3  A    between atoms: CA_4  and  C_5
REMARK    4  A    between atoms: CA_4  and  C_7
REMARK    5  A    between atoms: C_5  and  O_6
REMARK    6  A    between atoms: C_16  and  C_17
REMARK    7  A    between atoms: C_17  and  O_18
REMARK    8  A    between atoms: O_18  and  C_19
REMARK    9  A    between atoms: C_19  and  C_20
REMARK                            x       y       z     vdW  Elec       q    Type
REMARK                         _______ _______ _______ _____ _____    ______ ____
ROOT
ATOM      1  C   UNL     1      46.486   4.210  13.394  0.00  0.00    +0.000 A 
ATOM      2  C   UNL     1      46.327   5.483  12.832  0.00  0.00    +0.000 A 
ATOM      3  C   UNL     1      45.503   5.658  11.715  0.00  0.00    +0.000 A 
ATOM      4  C   UNL     1      44.819   4.571  11.153  0.00  0.00    +0.000 A 
ATOM      5  C   UNL     1      45.010   3.294  11.698  0.00  0.00    +0.000 A 
ATOM      6  C   UNL     1      45.833   3.116  12.811  0.00  0.00    +0.000 A 
ENDROOT
BRANCH   1   8
ATOM      7  O   UNL     1      47.692   2.867  14.910  0.00  0.00    +0.000 OA
ATOM      8  C   UNL     1      47.261   3.985  14.645  0.00  0.00    +0.000 C 
ATOM      9  N   UNL     1      47.459   5.071  15.472  0.00  0.00    +0.000 N 
ATOM     10  H   UNL     1      47.196   6.000  15.174  0.00  0.00    +0.000 HD
BRANCH   9  11
ATOM     11  CA  UNL     1      48.170   4.924  16.747  0.00  0.00    +0.000 C 
BRANCH  11  12
ATOM     12  C   UNL     1      49.071   6.123  16.967  0.00  0.00    +0.000 A 
ATOM     13  C   UNL     1      50.404   6.200  16.543  0.00  0.00    +0.000 A 
ATOM     14  C   UNL     1      51.170   7.327  16.848  0.00  0.00    +0.000 A 
ATOM     15  C   UNL     1      50.579   8.357  17.553  0.00  0.00    +0.000 A 
ATOM     16  N   UNL     1      49.288   8.347  17.948  0.00  0.00    +0.000 NA
ATOM     17  C   UNL     1      48.570   7.244  17.632  0.00  0.00    +0.000 A 
ENDBRANCH  11  12
BRANCH  11  18
ATOM     18  C   UNL     1      47.146   4.609  17.870  0.00  0.00    +0.000 C 
BRANCH  18  19
ATOM     19  O   UNL     1      46.551   3.313  17.719  0.00  0.00    +0.000 OA
ATOM     20  H   UNL     1      45.776   3.426  17.143  0.00  0.00    +0.000 HD
ENDBRANCH  18  19
ENDBRANCH  11  18
ENDBRANCH   9  11
ENDBRANCH   1   8
BRANCH   4  21
ATOM     21  C   UNL     1      43.829   4.786  10.036  0.00  0.00    +0.000 C 
BRANCH  21  22
ATOM     22  O   UNL     1      44.143   3.936   8.938  0.00  0.00    +0.000 OA
BRANCH  22  23
ATOM     23  C   UNL     1      45.399   4.308   8.361  0.00  0.00    +0.000 C 
BRANCH  23  24
ATOM     24  C   UNL     1      46.059   3.153   7.646  0.00  0.00    +0.000 A 
ATOM     25  C   UNL     1      46.649   3.322   6.395  0.00  0.00    +0.000 A 
ATOM     26  C   UNL     1      47.282   2.237   5.795  0.00  0.00    +0.000 A 
ATOM     27  C   UNL     1      47.323   1.020   6.462  0.00  0.00    +0.000 A 
ATOM     28  C   UNL     1      46.728   0.937   7.708  0.00  0.00    +0.000 A 
ATOM     29  N   UNL     1      46.105   1.971   8.316  0.00  0.00    +0.000 NA
ENDBRANCH  23  24
ENDBRANCH  22  23
ENDBRANCH  21  22
ENDBRANCH   4  21
TORSDOF 9
ENDMDL
MODEL 2
REMARK VINA RESULT:    -7.379      1.945      2.687
REMARK INTER + INTRA:         -11.900
REMARK INTER:                 -11.905
REMARK INTRA:                   0.005
REMARK UNBOUND:                -0.854
REMARK  Name = 
REMARK  9 active torsions:
REMARK  status: ('A' for Active; 'I' for Inactive)
REMARK    1  A    between atoms: C_2  and  C_13
REMARK    2  A    between atoms: N_3  and  CA_4
REMARK    3  A    between atoms: CA_4  and  C_5
REMARK    4  A    between atoms: CA_4  and  C_7
REMARK    5  A    between atoms: C_5  and  O_6
REMARK    6  A    between atoms: C_16  and  C_17
REMARK    7  A    between atoms: C_17  and  O_18
REMARK    8  A    between atoms: O_18  and  C_19
REMARK    9  A    between atoms: C_19  and  C_20
REMARK                            x       y       z     vdW  Elec       q    Type
REMARK                         _______ _______ _______ _____ _____    ______ ____
ROOT
ATOM      1  C   UNL     1      46.700   5.241  13.540  0.00  0.00    +0.000 A 
ATOM      2  C   UNL     1      46.781   6.057  12.405  0.00  0.00    +0.000 A 
ATOM      3  C   UNL     1      45.863   5.899  11.362  0.00  0.00    +0.000 A 
ATOM      4  C   UNL     1      44.847   4.936  11.441  0.00  0.00    +0.000 A 
ATOM      5  C   UNL     1      44.793   4.099  12.564  0.00  0.00    +0.000 A 
ATOM      6  C   UNL     1      45.709   4.253  13.606  0.00  0.00    +0.000 A 
ENDROOT
BRANCH   1   8
ATOM      7  O   UNL     1      48.633   6.058  14.614  0.00  0.00    +0.000 OA
ATOM      8  C   UNL     1      47.580   5.438  14.725  0.00  0.00    +0.000 C 
ATOM      9  N   UNL     1      47.160   4.898  15.923  0.00  0.00    +0.000 N 
ATOM     10  H   UNL     1      46.237   4.497  16.012  0.00  0.00    +0.000 HD
BRANCH   9  11
ATOM     11  CA  UNL     1      47.991   5.005  17.127  0.00  0.00    +0.000 C 
BRANCH  11  12
ATOM     12  C   UNL     1      49.024   3.895  17.132  0.00  0.00    +0.000 A 
ATOM     13  C   UNL     1      50.282   3.987  17.743  0.00  0.00    +0.000 A 
ATOM     14  C   UNL     1      51.186   2.929  17.640  0.00  0.00    +0.000 A 
ATOM     15  C   UNL     1      50.806   1.798  16.944  0.00  0.00    +0.000 A 
ATOM     16  N   UNL     1      49.592   1.647  16.374  0.00  0.00    +0.000 NA
ATOM     17  C   UNL     1      48.734   2.687  16.496  0.00  0.00    +0.000 A 
ENDBRANCH  11  12
BRANCH  11  18
ATOM     18  C   UNL     1      48.530   6.456  17.249  0.00  0.00    +0.000 C 
BRANCH  18  19
ATOM     19  O   UNL     1      47.949   7.164  18.353  0.00  0.00    +0.000 OA
ATOM     20  H   UNL     1      48.684   7.429  18.932  0.00  0.00    +0.000 HD
ENDBRANCH  18  19
ENDBRANCH  11  18
ENDBRANCH   9  11
ENDBRANCH   1   8
BRANCH   4  21
ATOM     21  C   UNL     1      43.781   4.861  10.378  0.00  0.00    +0.000 C 
BRANCH  21  22
ATOM     22  O   UNL     1      44.338   4.363   9.165  0.00  0.00    +0.000 OA
BRANCH  22  23
ATOM     23  C   UNL     1      44.605   2.962   9.277  0.00  0.00    +0.000 C 
BRANCH  23  24
ATOM     24  C   UNL     1      45.651   2.503   8.289  0.00  0.00    +0.000 A 
ATOM     25  C   UNL     1      46.237   3.395   7.394  0.00  0.00    +0.000 A 
ATOM     26  C   UNL     1      47.228   2.933   6.532  0.00  0.00    +0.000 A 
ATOM     27  C   UNL     1      47.617   1.601   6.595  0.00  0.00    +0.000 A 
ATOM     28  C   UNL     1      46.999   0.783   7.522  0.00  0.00    +0.000 A 
ATOM     29  N   UNL     1      46.034   1.201   8.371  0.00  0.00    +0.000 NA
ENDBRANCH  23  24
ENDBRANCH  22  23
ENDBRANCH  21  22
ENDBRANCH   4  21
TORSDOF 9
ENDMDL
MODEL 3
REMARK VINA RESULT:    -7.331      1.680      2.136
REMARK INTER + INTRA:         -11.827
REMARK INTER:                 -10.785
REMARK INTRA:                  -1.043
REMARK UNBOUND:                -0.854
REMARK  Name = 
REMARK  9 active torsions:
REMARK  status: ('A' for Active; 'I' for Inactive)
REMARK    1  A    between atoms: C_2  and  C_13
REMARK    2  A    between atoms: N_3  and  CA_4
REMARK    3  A    between atoms: CA_4  and  C_5
REMARK    4  A    between atoms: CA_4  and  C_7
REMARK    5  A    between atoms: C_5  and  O_6
REMARK    6  A    between atoms: C_16  and  C_17
REMARK    7  A    between atoms: C_17  and  O_18
REMARK    8  A    between atoms: O_18  and  C_19
REMARK    9  A    between atoms: C_19  and  C_20
REMARK                            x       y       z     vdW  Elec       q    Type
REMARK                         _______ _______ _______ _____ _____    ______ ____
ROOT
ATOM      1  C   UNL     1      47.120   5.889  13.130  0.00  0.00    +0.000 A 
ATOM      2  C   UNL     1      46.936   6.441  11.856  0.00  0.00    +0.000 A 
ATOM      3  C   UNL     1      45.848   6.046  11.072  0.00  0.00    +0.000 A 
ATOM      4  C   UNL     1      44.925   5.106  11.549  0.00  0.00    +0.000 A 
ATOM      5  C   UNL     1      45.132   4.531  12.810  0.00  0.00    +0.000 A 
ATOM      6  C   UNL     1      46.219   4.922  13.596  0.00  0.00    +0.000 A 
ENDROOT
BRANCH   1   8
ATOM      7  O   UNL     1      49.203   6.887  13.600  0.00  0.00    +0.000 OA
ATOM      8  C   UNL     1      48.194   6.352  14.050  0.00  0.00    +0.000 C 
ATOM      9  N   UNL     1      48.002   6.151  15.401  0.00  0.00    +0.000 N 
ATOM     10  H   UNL     1      47.115   5.817  15.752  0.00  0.00    +0.000 HD
BRANCH   9  11
ATOM     11  CA  UNL     1      49.034   6.534  16.372  0.00  0.00    +0.000 C 
BRANCH  11  12
ATOM     12  C   UNL     1      48.499   7.628  17.276  0.00  0.00    +0.000 A 
ATOM     13  C   UNL     1      48.420   8.980  16.921  0.00  0.00    +0.000 A 
ATOM     14  C   UNL     1      47.967   9.920  17.848  0.00  0.00    +0.000 A 
ATOM     15  C   UNL     1      47.588   9.483  19.102  0.00  0.00    +0.000 A 
ATOM     16  N   UNL     1      47.608   8.187  19.478  0.00  0.00    +0.000 NA
ATOM     17  C   UNL     1      48.046   7.299  18.555  0.00  0.00    +0.000 A 
ENDBRANCH  11  12
BRANCH  11  18
ATOM     18  C   UNL     1      49.577   5.259  17.070  0.00  0.00    +0.000 C 
BRANCH  18  19
ATOM     19  O   UNL     1      48.894   4.071  16.648  0.00  0.00    +0.000 OA
ATOM     20  H   UNL     1      48.569   3.634  17.454  0.00  0.00    +0.000 HD
ENDBRANCH  18  19
ENDBRANCH  11  18
ENDBRANCH   9  11
ENDBRANCH   1   8
BRANCH   4  21
ATOM     21  C   UNL     1      43.683   4.784  10.757  0.00  0.00    +0.000 C 
BRANCH  21  22
ATOM     22  O   UNL     1      44.041   4.323   9.458  0.00  0.00    +0.000 OA
BRANCH  22  23
ATOM     23  C   UNL     1      44.372   2.931   9.497  0.00  0.00    +0.000 C 
BRANCH  23  24
ATOM     24  C   UNL     1      45.453   2.577   8.504  0.00  0.00    +0.000 A 
ATOM     25  C   UNL     1      46.020   3.546   7.680  0.00  0.00    +0.000 A 
ATOM     26  C   UNL     1      47.044   3.178   6.811  0.00  0.00    +0.000 A 
ATOM     27  C   UNL     1      47.484   1.861   6.798  0.00  0.00    +0.000 A 
ATOM     28  C   UNL     1      46.882   0.962   7.658  0.00  0.00    +0.000 A 
ATOM     29  N   UNL     1      45.885   1.287   8.511  0.00  0.00    +0.000 NA
ENDBRANCH  23  24
ENDBRANCH  22  23
ENDBRANCH  21  22
ENDBRANCH   4  21
TORSDOF 9
ENDMDL
MODEL 4
REMARK VINA RESULT:    -7.243      1.399      1.985
REMARK INTER + INTRA:         -11.696
REMARK INTER:                 -10.847
REMARK INTRA:                  -0.849
REMARK UNBOUND:                -0.854
REMARK  Name = 
REMARK  9 active torsions:
REMARK  status: ('A' for Active; 'I' for Inactive)
REMARK    1  A    between atoms: C_2  and  C_13
REMARK    2  A    between atoms: N_3  and  CA_4
REMARK    3  A    between atoms: CA_4  and  C_5
REMARK    4  A    between atoms: CA_4  and  C_7
REMARK    5  A    between atoms: C_5  and  O_6
REMARK    6  A    between atoms: C_16  and  C_17
REMARK    7  A    between atoms: C_17  and  O_18
REMARK    8  A    between atoms: O_18  and  C_19
REMARK    9  A    between atoms: C_19  and  C_20
REMARK                            x       y       z     vdW  Elec       q    Type
REMARK                         _______ _______ _______ _____ _____    ______ ____
ROOT
ATOM      1  C   UNL     1      46.465   5.006  13.473  0.00  0.00    +0.000 A 
ATOM      2  C   UNL     1      45.872   3.774  13.169  0.00  0.00    +0.000 A 
ATOM      3  C   UNL     1      44.917   3.689  12.151  0.00  0.00    +0.000 A 
ATOM      4  C   UNL     1      44.548   4.825  11.418  0.00  0.00    +0.000 A 
ATOM      5  C   UNL     1      45.119   6.061  11.750  0.00  0.00    +0.000 A 
ATOM      6  C   UNL     1      46.072   6.150  12.767  0.00  0.00    +0.000 A 
ENDROOT
BRANCH   1   8
ATOM      7  O   UNL     1      48.483   5.924  14.273  0.00  0.00    +0.000 OA
ATOM      8  C   UNL     1      47.564   5.135  14.468  0.00  0.00    +0.000 C 
ATOM      9  N   UNL     1      47.499   4.337  15.592  0.00  0.00    +0.000 N 
ATOM     10  H   UNL     1      46.675   3.784  15.784  0.00  0.00    +0.000 HD
BRANCH   9  11
ATOM     11  CA  UNL     1      48.567   4.367  16.598  0.00  0.00    +0.000 C 
BRANCH  11  12
ATOM     12  C   UNL     1      48.266   5.441  17.626  0.00  0.00    +0.000 A 
ATOM     13  C   UNL     1      48.900   6.689  17.675  0.00  0.00    +0.000 A 
ATOM     14  C   UNL     1      48.594   7.587  18.699  0.00  0.00    +0.000 A 
ATOM     15  C   UNL     1      47.649   7.222  19.639  0.00  0.00    +0.000 A 
ATOM     16  N   UNL     1      46.983   6.049  19.610  0.00  0.00    +0.000 NA
ATOM     17  C   UNL     1      47.297   5.202  18.602  0.00  0.00    +0.000 A 
ENDBRANCH  11  12
BRANCH  11  18
ATOM     18  C   UNL     1      48.799   2.932  17.140  0.00  0.00    +0.000 C 
BRANCH  18  19
ATOM     19  O   UNL     1      49.175   2.011  16.106  0.00  0.00    +0.000 OA
ATOM     20  H   UNL     1      49.762   1.354  16.517  0.00  0.00    +0.000 HD
ENDBRANCH  18  19
ENDBRANCH  11  18
ENDBRANCH   9  11
ENDBRANCH   1   8
BRANCH   4  21
ATOM     21  C   UNL     1      43.620   4.704  10.235  0.00  0.00    +0.000 C 
BRANCH  21  22
ATOM     22  O   UNL     1      44.088   3.690   9.352  0.00  0.00    +0.000 OA
BRANCH  22  23
ATOM     23  C   UNL     1      45.066   4.223   8.453  0.00  0.00    +0.000 C 
BRANCH  23  24
ATOM     24  C   UNL     1      45.893   3.138   7.806  0.00  0.00    +0.000 A 
ATOM     25  C   UNL     1      46.706   3.409   6.708  0.00  0.00    +0.000 A 
ATOM     26  C   UNL     1      47.482   2.384   6.174  0.00  0.00    +0.000 A 
ATOM     27  C   UNL     1      47.438   1.124   6.755  0.00  0.00    +0.000 A 
ATOM     28  C   UNL     1      46.618   0.939   7.853  0.00  0.00    +0.000 A 
ATOM     29  N   UNL     1      45.852   1.912   8.394  0.00  0.00    +0.000 NA
ENDBRANCH  23  24
ENDBRANCH  22  23
ENDBRANCH  21  22
ENDBRANCH   4  21
TORSDOF 9
ENDMDL
MODEL 5
REMARK VINA RESULT:    -7.194      2.793      8.890
REMARK INTER + INTRA:         -11.622
REMARK INTER:                 -10.740
REMARK INTRA:                  -0.882
REMARK UNBOUND:                -0.854
REMARK  Name = 
REMARK  9 active torsions:
REMARK  status: ('A' for Active; 'I' for Inactive)
REMARK    1  A    between atoms: C_2  and  C_13
REMARK    2  A    between atoms: N_3  and  CA_4
REMARK    3  A    between atoms: CA_4  and  C_5
REMARK    4  A    between atoms: CA_4  and  C_7
REMARK    5  A    between atoms: C_5  and  O_6
REMARK    6  A    between atoms: C_16  and  C_17
REMARK    7  A    between atoms: C_17  and  O_18
REMARK    8  A    between atoms: O_18  and  C_19
REMARK    9  A    between atoms: C_19  and  C_20
REMARK                            x       y       z     vdW  Elec       q    Type
REMARK                         _______ _______ _______ _____ _____    ______ ____
ROOT
ATOM      1  C   UNL     1      46.624   5.678  13.332  0.00  0.00    +0.000 A 
ATOM      2  C   UNL     1      46.800   4.808  14.415  0.00  0.00    +0.000 A 
ATOM      3  C   UNL     1      47.728   5.114  15.416  0.00  0.00    +0.000 A 
ATOM      4  C   UNL     1      48.483   6.293  15.357  0.00  0.00    +0.000 A 
ATOM      5  C   UNL     1      48.328   7.143  14.253  0.00  0.00    +0.000 A 
ATOM      6  C   UNL     1      47.404   6.840  13.251  0.00  0.00    +0.000 A 
ENDROOT
BRANCH   1   8
ATOM      7  O   UNL     1      44.843   6.384  11.958  0.00  0.00    +0.000 OA
ATOM      8  C   UNL     1      45.576   5.460  12.298  0.00  0.00    +0.000 C 
ATOM      9  N   UNL     1      45.471   4.194  11.760  0.00  0.00    +0.000 N 
ATOM     10  H   UNL     1      46.161   3.486  11.970  0.00  0.00    +0.000 HD
BRANCH   9  11
ATOM     11  CA  UNL     1      44.433   3.882  10.771  0.00  0.00    +0.000 C 
BRANCH  11  12
ATOM     12  C   UNL     1      45.083   3.437   9.475  0.00  0.00    +0.000 A 
ATOM     13  C   UNL     1      45.301   2.100   9.118  0.00  0.00    +0.000 A 
ATOM     14  C   UNL     1      45.962   1.794   7.927  0.00  0.00    +0.000 A 
ATOM     15  C   UNL     1      46.374   2.832   7.114  0.00  0.00    +0.000 A 
ATOM     16  N   UNL     1      46.151   4.133   7.395  0.00  0.00    +0.000 NA
ATOM     17  C   UNL     1      45.502   4.397   8.553  0.00  0.00    +0.000 A 
ENDBRANCH  11  12
BRANCH  11  18
ATOM     18  C   UNL     1      43.403   2.908  11.402  0.00  0.00    +0.000 C 
BRANCH  18  19
ATOM     19  O   UNL     1      43.855   2.369  12.652  0.00  0.00    +0.000 OA
ATOM     20  H   UNL     1      43.674   1.414  12.626  0.00  0.00    +0.000 HD
ENDBRANCH  18  19
ENDBRANCH  11  18
ENDBRANCH   9  11
ENDBRANCH   1   8
BRANCH   4  21
ATOM     21  C   UNL     1      49.381   6.684  16.503  0.00  0.00    +0.000 C 
BRANCH  21  22
ATOM     22  O   UNL     1      50.618   5.983  16.411  0.00  0.00    +0.000 OA
BRANCH  22  23
ATOM     23  C   UNL     1      50.976   5.435  17.684  0.00  0.00    +0.000 C 
BRANCH  23  24
ATOM     24  C   UNL     1      51.299   3.963  17.596  0.00  0.00    +0.000 A 
ATOM     25  C   UNL     1      52.516   3.462  18.052  0.00  0.00    +0.000 A 
ATOM     26  C   UNL     1      52.749   2.091  17.989  0.00  0.00    +0.000 A 
ATOM     27  C   UNL     1      51.760   1.256  17.487  0.00  0.00    +0.000 A 
ATOM     28  C   UNL     1      50.572   1.827  17.070  0.00  0.00    +0.000 A 
ATOM     29  N   UNL     1      50.316   3.154  17.117  0.00  0.00    +0.000 NA
ENDBRANCH  23  24
ENDBRANCH  22  23
ENDBRANCH  21  22
ENDBRANCH   4  21
TORSDOF 9
ENDMDL
MODEL 6
REMARK VINA RESULT:    -6.998      2.281      8.658
REMARK INTER + INTRA:         -11.330
REMARK INTER:                 -10.220
REMARK INTRA:                  -1.110
REMARK UNBOUND:                -0.854
REMARK  Name = 
REMARK  9 active torsions:
REMARK  status: ('A' for Active; 'I' for Inactive)
REMARK    1  A    between atoms: C_2  and  C_13
REMARK    2  A    between atoms: N_3  and  CA_4
REMARK    3  A    between atoms: CA_4  and  C_5
REMARK    4  A    between atoms: CA_4  and  C_7
REMARK    5  A    between atoms: C_5  and  O_6
REMARK    6  A    between atoms: C_16  and  C_17
REMARK    7  A    between atoms: C_17  and  O_18
REMARK    8  A    between atoms: O_18  and  C_19
REMARK    9  A    between atoms: C_19  and  C_20
REMARK                            x       y       z     vdW  Elec       q    Type
REMARK                         _______ _______ _______ _____ _____    ______ ____
ROOT
ATOM      1  C   UNL     1      46.322   6.322  12.781  0.00  0.00    +0.000 A 
ATOM      2  C   UNL     1      46.679   7.670  12.904  0.00  0.00    +0.000 A 
ATOM      3  C   UNL     1      47.682   8.050  13.802  0.00  0.00    +0.000 A 
ATOM      4  C   UNL     1      48.349   7.092  14.579  0.00  0.00    +0.000 A 
ATOM      5  C   UNL     1      47.963   5.748  14.476  0.00  0.00    +0.000 A 
ATOM      6  C   UNL     1      46.961   5.366  13.582  0.00  0.00    +0.000 A 
ENDROOT
BRANCH   1   8
ATOM      7  O   UNL     1      44.605   6.651  11.199  0.00  0.00    +0.000 OA
ATOM      8  C   UNL     1      45.342   5.849  11.765  0.00  0.00    +0.000 C 
ATOM      9  N   UNL     1      45.304   4.495  11.503  0.00  0.00    +0.000 N 
ATOM     10  H   UNL     1      46.000   3.875  11.894  0.00  0.00    +0.000 HD
BRANCH   9  11
ATOM     11  CA  UNL     1      44.334   3.941  10.551  0.00  0.00    +0.000 C 
BRANCH  11  12
ATOM     12  C   UNL     1      45.064   3.418   9.329  0.00  0.00    +0.000 A 
ATOM     13  C   UNL     1      45.378   2.071   9.111  0.00  0.00    +0.000 A 
ATOM     14  C   UNL     1      46.106   1.697   7.980  0.00  0.00    +0.000 A 
ATOM     15  C   UNL     1      46.487   2.678   7.085  0.00  0.00    +0.000 A 
ATOM     16  N   UNL     1      46.172   3.983   7.230  0.00  0.00    +0.000 NA
ATOM     17  C   UNL     1      45.461   4.313   8.333  0.00  0.00    +0.000 A 
ENDBRANCH  11  12
BRANCH  11  18
ATOM     18  C   UNL     1      43.409   2.938  11.290  0.00  0.00    +0.000 C 
BRANCH  18  19
ATOM     19  O   UNL     1      43.990   2.456  12.510  0.00  0.00    +0.000 OA
ATOM     20  H   UNL     1      44.760   1.918  12.260  0.00  0.00    +0.000 HD
ENDBRANCH  18  19
ENDBRANCH  11  18
ENDBRANCH   9  11
ENDBRANCH   1   8
BRANCH   4  21
ATOM     21  C   UNL     1      49.518   7.488  15.444  0.00  0.00    +0.000 C 
BRANCH  21  22
ATOM     22  O   UNL     1      49.102   7.603  16.801  0.00  0.00    +0.000 OA
BRANCH  22  23
ATOM     23  C   UNL     1      49.792   6.650  17.617  0.00  0.00    +0.000 C 
BRANCH  23  24
ATOM     24  C   UNL     1      49.136   5.291  17.579  0.00  0.00    +0.000 A 
ATOM     25  C   UNL     1      47.770   5.143  17.806  0.00  0.00    +0.000 A 
ATOM     26  C   UNL     1      47.204   3.873  17.718  0.00  0.00    +0.000 A 
ATOM     27  C   UNL     1      48.011   2.791  17.393  0.00  0.00    +0.000 A 
ATOM     28  C   UNL     1      49.355   3.022  17.166  0.00  0.00    +0.000 A 
ATOM     29  N   UNL     1      49.934   4.241  17.245  0.00  0.00    +0.000 NA
ENDBRANCH  23  24
ENDBRANCH  22  23
ENDBRANCH  21  22
ENDBRANCH   4  21
TORSDOF 9
ENDMDL
MODEL 7
REMARK VINA RESULT:    -6.687      3.629      4.190
REMARK INTER + INTRA:         -10.864
REMARK INTER:                 -10.006
REMARK INTRA:                  -0.858
REMARK UNBOUND:                -0.854
REMARK  Name = 
REMARK  9 active torsions:
REMARK  status: ('A' for Active; 'I' for Inactive)
REMARK    1  A    between atoms: C_2  and  C_13
REMARK    2  A    between atoms: N_3  and  CA_4
REMARK    3  A    between atoms: CA_4  and  C_5
REMARK    4  A    between atoms: CA_4  and  C_7
REMARK    5  A    between atoms: C_5  and  O_6
REMARK    6  A    between atoms: C_16  and  C_17
REMARK    7  A    between atoms: C_17  and  O_18
REMARK    8  A    between atoms: O_18  and  C_19
REMARK    9  A    between atoms: C_19  and  C_20
REMARK                            x       y       z     vdW  Elec       q    Type
REMARK                         _______ _______ _______ _____ _____    ______ ____
ROOT
ATOM      1  C   UNL     1      46.581   5.933  13.295  0.00  0.00    +0.000 A 
ATOM      2  C   UNL     1      46.578   4.533  13.287  0.00  0.00    +0.000 A 
ATOM      3  C   UNL     1      45.450   3.838  12.837  0.00  0.00    +0.000 A 
ATOM      4  C   UNL     1      44.319   4.527  12.380  0.00  0.00    +0.000 A 
ATOM      5  C   UNL     1      44.315   5.928  12.423  0.00  0.00    +0.000 A 
ATOM      6  C   UNL     1      45.438   6.625  12.873  0.00  0.00    +0.000 A 
ENDROOT
BRANCH   1   8
ATOM      7  O   UNL     1      48.847   6.153  13.908  0.00  0.00    +0.000 OA
ATOM      8  C   UNL     1      47.789   6.723  13.657  0.00  0.00    +0.000 C 
ATOM      9  N   UNL     1      47.660   8.096  13.699  0.00  0.00    +0.000 N 
ATOM     10  H   UNL     1      46.815   8.544  13.375  0.00  0.00    +0.000 HD
BRANCH   9  11
ATOM     11  CA  UNL     1      48.790   8.945  14.095  0.00  0.00    +0.000 C 
BRANCH  11  12
ATOM     12  C   UNL     1      48.864  10.151  13.179  0.00  0.00    +0.000 A 
ATOM     13  C   UNL     1      48.904  11.480  13.622  0.00  0.00    +0.000 A 
ATOM     14  C   UNL     1      48.911  12.524  12.696  0.00  0.00    +0.000 A 
ATOM     15  C   UNL     1      48.896  12.215  11.350  0.00  0.00    +0.000 A 
ATOM     16  N   UNL     1      48.900  10.952  10.875  0.00  0.00    +0.000 NA
ATOM     17  C   UNL     1      48.899   9.961  11.797  0.00  0.00    +0.000 A 
ENDBRANCH  11  12
BRANCH  11  18
ATOM     18  C   UNL     1      48.704   9.233  15.618  0.00  0.00    +0.000 C 
BRANCH  18  19
ATOM     19  O   UNL     1      47.352   9.238  16.097  0.00  0.00    +0.000 OA
ATOM     20  H   UNL     1      46.791   9.510  15.351  0.00  0.00    +0.000 HD
ENDBRANCH  18  19
ENDBRANCH  11  18
ENDBRANCH   9  11
ENDBRANCH   1   8
BRANCH   4  21
ATOM     21  C   UNL     1      43.161   3.777  11.772  0.00  0.00    +0.000 C 
BRANCH  21  22
ATOM     22  O   UNL     1      43.602   3.043  10.634  0.00  0.00    +0.000 OA
BRANCH  22  23
ATOM     23  C   UNL     1      44.025   3.934   9.598  0.00  0.00    +0.000 C 
BRANCH  23  24
ATOM     24  C   UNL     1      45.130   3.343   8.757  0.00  0.00    +0.000 A 
ATOM     25  C   UNL     1      45.434   1.984   8.816  0.00  0.00    +0.000 A 
ATOM     26  C   UNL     1      46.433   1.479   7.989  0.00  0.00    +0.000 A 
ATOM     27  C   UNL     1      47.093   2.336   7.118  0.00  0.00    +0.000 A 
ATOM     28  C   UNL     1      46.723   3.668   7.107  0.00  0.00    +0.000 A 
ATOM     29  N   UNL     1      45.759   4.189   7.897  0.00  0.00    +0.000 NA
ENDBRANCH  23  24
ENDBRANCH  22  23
ENDBRANCH  21  22
ENDBRANCH   4  21
TORSDOF 9
ENDMDL
MODEL 8
REMARK VINA RESULT:    -6.605      3.896      4.567
REMARK INTER + INTRA:         -10.742
REMARK INTER:                  -9.947
REMARK INTRA:                  -0.795
REMARK UNBOUND:                -0.854
REMARK  Name = 
REMARK  9 active torsions:
REMARK  status: ('A' for Active; 'I' for Inactive)
REMARK    1  A    between atoms: C_2  and  C_13
REMARK    2  A    between atoms: N_3  and  CA_4
REMARK    3  A    between atoms: CA_4  and  C_5
REMARK    4  A    between atoms: CA_4  and  C_7
REMARK    5  A    between atoms: C_5  and  O_6
REMARK    6  A    between atoms: C_16  and  C_17
REMARK    7  A    between atoms: C_17  and  O_18
REMARK    8  A    between atoms: O_18  and  C_19
REMARK    9  A    between atoms: C_19  and  C_20
REMARK                            x       y       z     vdW  Elec       q    Type
REMARK                         _______ _______ _______ _____ _____    ______ ____
ROOT
ATOM      1  C   UNL     1      46.674   6.312  13.157  0.00  0.00    +0.000 A 
ATOM      2  C   UNL     1      46.449   4.943  13.348  0.00  0.00    +0.000 A 
ATOM      3  C   UNL     1      45.247   4.365  12.926  0.00  0.00    +0.000 A 
ATOM      4  C   UNL     1      44.261   5.140  12.300  0.00  0.00    +0.000 A 
ATOM      5  C   UNL     1      44.478   6.515  12.143  0.00  0.00    +0.000 A 
ATOM      6  C   UNL     1      45.676   7.096  12.565  0.00  0.00    +0.000 A 
ENDROOT
BRANCH   1   8
ATOM      7  O   UNL     1      48.753   6.414  14.265  0.00  0.00    +0.000 OA
ATOM      8  C   UNL     1      47.975   6.957  13.486  0.00  0.00    +0.000 C 
ATOM      9  N   UNL     1      48.251   8.168  12.886  0.00  0.00    +0.000 N 
ATOM     10  H   UNL     1      47.649   8.533  12.161  0.00  0.00    +0.000 HD
BRANCH   9  11
ATOM     11  CA  UNL     1      49.489   8.893  13.193  0.00  0.00    +0.000 C 
BRANCH  11  12
ATOM     12  C   UNL     1      50.454   8.765  12.030  0.00  0.00    +0.000 A 
ATOM     13  C   UNL     1      50.751   7.562  11.377  0.00  0.00    +0.000 A 
ATOM     14  C   UNL     1      51.700   7.540  10.354  0.00  0.00    +0.000 A 
ATOM     15  C   UNL     1      52.317   8.723   9.997  0.00  0.00    +0.000 A 
ATOM     16  N   UNL     1      52.036   9.913  10.569  0.00  0.00    +0.000 NA
ATOM     17  C   UNL     1      51.107   9.903  11.554  0.00  0.00    +0.000 A 
ENDBRANCH  11  12
BRANCH  11  18
ATOM     18  C   UNL     1      49.138  10.334  13.649  0.00  0.00    +0.000 C 
BRANCH  18  19
ATOM     19  O   UNL     1      47.751  10.647  13.453  0.00  0.00    +0.000 OA
ATOM     20  H   UNL     1      47.623  11.559  13.766  0.00  0.00    +0.000 HD
ENDBRANCH  18  19
ENDBRANCH  11  18
ENDBRANCH   9  11
ENDBRANCH   1   8
BRANCH   4  21
ATOM     21  C   UNL     1      43.028   4.489  11.727  0.00  0.00    +0.000 C 
BRANCH  21  22
ATOM     22  O   UNL     1      43.383   3.660  10.624  0.00  0.00    +0.000 OA
BRANCH  22  23
ATOM     23  C   UNL     1      44.038   4.431   9.611  0.00  0.00    +0.000 C 
BRANCH  23  24
ATOM     24  C   UNL     1      45.042   3.611   8.836  0.00  0.00    +0.000 A 
ATOM     25  C   UNL     1      45.177   2.242   9.054  0.00  0.00    +0.000 A 
ATOM     26  C   UNL     1      46.087   1.523   8.284  0.00  0.00    +0.000 A 
ATOM     27  C   UNL     1      46.825   2.182   7.310  0.00  0.00    +0.000 A 
ATOM     28  C   UNL     1      46.621   3.540   7.143  0.00  0.00    +0.000 A 
ATOM     29  N   UNL     1      45.748   4.266   7.875  0.00  0.00    +0.000 NA
ENDBRANCH  23  24
ENDBRANCH  22  23
ENDBRANCH  21  22
ENDBRANCH   4  21
TORSDOF 9
ENDMDL
MODEL 9
REMARK VINA RESULT:    -6.473      2.301      2.921
REMARK INTER + INTRA:         -10.544
REMARK INTER:                  -9.762
REMARK INTRA:                  -0.782
REMARK UNBOUND:                -0.854
REMARK  Name = 
REMARK  9 active torsions:
REMARK  status: ('A' for Active; 'I' for Inactive)
REMARK    1  A    between atoms: C_2  and  C_13
REMARK    2  A    between atoms: N_3  and  CA_4
REMARK    3  A    between atoms: CA_4  and  C_5
REMARK    4  A    between atoms: CA_4  and  C_7
REMARK    5  A    between atoms: C_5  and  O_6
REMARK    6  A    between atoms: C_16  and  C_17
REMARK    7  A    between atoms: C_17  and  O_18
REMARK    8  A    between atoms: O_18  and  C_19
REMARK    9  A    between atoms: C_19  and  C_20
REMARK                            x       y       z     vdW  Elec       q    Type
REMARK                         _______ _______ _______ _____ _____    ______ ____
ROOT
ATOM      1  C   UNL     1      47.595   6.040  13.894  0.00  0.00    +0.000 A 
ATOM      2  C   UNL     1      47.349   6.701  12.684  0.00  0.00    +0.000 A 
ATOM      3  C   UNL     1      46.426   6.177  11.774  0.00  0.00    +0.000 A 
ATOM      4  C   UNL     1      45.727   4.996  12.063  0.00  0.00    +0.000 A 
ATOM      5  C   UNL     1      46.002   4.321  13.259  0.00  0.00    +0.000 A 
ATOM      6  C   UNL     1      46.926   4.840  14.169  0.00  0.00    +0.000 A 
ENDROOT
BRANCH   1   8
ATOM      7  O   UNL     1      49.034   7.691  14.767  0.00  0.00    +0.000 OA
ATOM      8  C   UNL     1      48.482   6.609  14.945  0.00  0.00    +0.000 C 
ATOM      9  N   UNL     1      48.652   5.872  16.099  0.00  0.00    +0.000 N 
ATOM     10  H   UNL     1      48.096   5.045  16.268  0.00  0.00    +0.000 HD
BRANCH   9  11
ATOM     11  CA  UNL     1      49.548   6.338  17.163  0.00  0.00    +0.000 C 
BRANCH  11  12
ATOM     12  C   UNL     1      48.867   6.178  18.508  0.00  0.00    +0.000 A 
ATOM     13  C   UNL     1      47.981   7.111  19.062  0.00  0.00    +0.000 A 
ATOM     14  C   UNL     1      47.451   6.899  20.336  0.00  0.00    +0.000 A 
ATOM     15  C   UNL     1      47.805   5.751  21.017  0.00  0.00    +0.000 A 
ATOM     16  N   UNL     1      48.622   4.804  20.509  0.00  0.00    +0.000 NA
ATOM     17  C   UNL     1      49.115   5.035  19.270  0.00  0.00    +0.000 A 
ENDBRANCH  11  12
BRANCH  11  18
ATOM     18  C   UNL     1      50.933   5.656  17.000  0.00  0.00    +0.000 C 
BRANCH  18  19
ATOM     19  O   UNL     1      51.999   6.446  17.543  0.00  0.00    +0.000 OA
ATOM     20  H   UNL     1      51.593   7.074  18.165  0.00  0.00    +0.000 HD
ENDBRANCH  18  19
ENDBRANCH  11  18
ENDBRANCH   9  11
ENDBRANCH   1   8
BRANCH   4  21
ATOM     21  C   UNL     1      44.637   4.509  11.142  0.00  0.00    +0.000 C 
BRANCH  21  22
ATOM     22  O   UNL     1      44.867   3.147  10.796  0.00  0.00    +0.000 OA
BRANCH  22  23
ATOM     23  C   UNL     1      44.345   2.869   9.492  0.00  0.00    +0.000 C 
BRANCH  23  24
ATOM     24  C   UNL     1      45.437   2.547   8.501  0.00  0.00    +0.000 A 
ATOM     25  C   UNL     1      45.987   3.535   7.688  0.00  0.00    +0.000 A 
ATOM     26  C   UNL     1      47.022   3.197   6.820  0.00  0.00    +0.000 A 
ATOM     27  C   UNL     1      47.489   1.890   6.796  0.00  0.00    +0.000 A 
ATOM     28  C   UNL     1      46.902   0.970   7.645  0.00  0.00    +0.000 A 
ATOM     29  N   UNL     1      45.896   1.266   8.497  0.00  0.00    +0.000 NA
ENDBRANCH  23  24
ENDBRANCH  22  23
ENDBRANCH  21  22
ENDBRANCH   4  21
TORSDOF 9
ENDMDL
