MODEL 1
REMARK VINA RESULT:    -7.035      0.000      0.000
REMARK INTER + INTRA:          -9.228
REMARK INTER:                  -8.680
REMARK INTRA:                  -0.548
REMARK UNBOUND:                -0.548
REMARK  Name = 
REMARK  4 active torsions:
REMARK  status: ('A' for Active; 'I' for Inactive)
REMARK    1  A    between atoms: C_3  and  O_4
REMARK    2  A    between atoms: O_4  and  C_5
REMARK    3  A    between atoms: C_5  and  C_6
REMARK    4  A    between atoms: C_13  and  C_14
REMARK                            x       y       z     vdW  Elec       q    Type
REMARK                         _______ _______ _______ _____ _____    ______ ____
ROOT
ATOM      1  C   UNL     1      43.458   5.211  12.529  0.00  0.00    +0.000 A 
ATOM      2  C   UNL     1      43.350   4.388  11.411  0.00  0.00    +0.000 A 
ATOM      3  C   UNL     1      44.422   4.265  10.533  0.00  0.00    +0.000 A 
ATOM      4  C   UNL     1      45.566   5.044  10.732  0.00  0.00    +0.000 A 
ATOM      5  C   UNL     1      45.675   5.934  11.817  0.00  0.00    +0.000 A 
ATOM      6  C   UNL     1      44.618   5.968  12.738  0.00  0.00    +0.000 A 
ENDROOT
BRANCH   5   7
ATOM      7  C   UNL     1      46.827   6.941  11.808  0.00  0.00    +0.000 C 
ATOM      8  C   UNL     1      48.059   6.536  12.642  0.00  0.00    +0.000 C 
ATOM      9  C   UNL     1      47.919   6.905  14.115  0.00  0.00    +0.000 C 
ATOM     10  N   UNL     1      47.647   8.332  14.287  0.00  0.00    +0.000 NA
ATOM     11  C   UNL     1      46.416   8.713  13.601  0.00  0.00    +0.000 C 
ATOM     12  C   UNL     1      46.478   8.410  12.105  0.00  0.00    +0.000 C 
ATOM     13  H   UNL     1      48.424   8.870  13.907  0.00  0.00    +0.000 HD
ENDBRANCH   5   7
BRANCH   3  14
ATOM     14  O   UNL     1      44.232   3.414   9.481  0.00  0.00    +0.000 OA
BRANCH  14  15
ATOM     15  C   UNL     1      44.702   3.889   8.218  0.00  0.00    +0.000 C 
BRANCH  15  16
ATOM     16  C   UNL     1      45.800   3.006   7.677  0.00  0.00    +0.000 A 
ATOM     17  C   UNL     1      46.694   3.438   6.694  0.00  0.00    +0.000 A 
ATOM     18  C   UNL     1      47.675   2.565   6.258  0.00  0.00    +0.000 A 
ATOM     19  N   UNL     1      47.840   1.312   6.739  0.00  0.00    +0.000 NA
ATOM     20  C   UNL     1      46.979   0.918   7.699  0.00  0.00    +0.000 A 
ATOM     21  C   UNL     1      45.961   1.716   8.195  0.00  0.00    +0.000 A 
ENDBRANCH  15  16
ENDBRANCH  14  15
ENDBRANCH   3  14
TORSDOF 4
ENDMDL
MODEL 2
REMARK VINA RESULT:    -7.004      1.150      1.871
REMARK INTER + INTRA:          -9.190
REMARK INTER:                  -8.463
REMARK INTRA:                  -0.727
REMARK UNBOUND:                -0.548
REMARK  Name = 
REMARK  4 active torsions:
REMARK  status: ('A' for Active; 'I' for Inactive)
REMARK    1  A    between atoms: C_3  and  O_4
REMARK    2  A    between atoms: O_4  and  C_5
REMARK    3  A    between atoms: C_5  and  C_6
REMARK    4  A    between atoms: C_13  and  C_14
REMARK                            x       y       z     vdW  Elec       q    Type
REMARK                         _______ _______ _______ _____ _____    ______ ____
ROOT
ATOM      1  C   UNL     1      44.681   4.693  12.357  0.00  0.00    +0.000 A 
ATOM      2  C   UNL     1      44.595   4.556  10.973  0.00  0.00    +0.000 A 
ATOM      3  C   UNL     1      45.451   5.279  10.149  0.00  0.00    +0.000 A 
ATOM      4  C   UNL     1      46.327   6.210  10.717  0.00  0.00    +0.000 A 
ATOM      5  C   UNL     1      46.387   6.418  12.107  0.00  0.00    +0.000 A 
ATOM      6  C   UNL     1      45.581   5.608  12.920  0.00  0.00    +0.000 A 
ENDROOT
BRANCH   5   7
ATOM      7  C   UNL     1      47.159   7.635  12.620  0.00  0.00    +0.000 C 
ATOM      8  C   UNL     1      48.381   8.042  11.771  0.00  0.00    +0.000 C 
ATOM      9  C   UNL     1      49.636   7.255  12.132  0.00  0.00    +0.000 C 
ATOM     10  N   UNL     1      49.954   7.376  13.555  0.00  0.00    +0.000 NA
ATOM     11  C   UNL     1      48.853   6.883  14.377  0.00  0.00    +0.000 C 
ATOM     12  C   UNL     1      47.554   7.641  14.107  0.00  0.00    +0.000 C 
ATOM     13  H   UNL     1      50.129   8.354  13.777  0.00  0.00    +0.000 HD
ENDBRANCH   5   7
BRANCH   3  14
ATOM     14  O   UNL     1      45.311   5.057   8.808  0.00  0.00    +0.000 OA
BRANCH  14  15
ATOM     15  C   UNL     1      44.779   3.780   8.452  0.00  0.00    +0.000 C 
BRANCH  15  16
ATOM     16  C   UNL     1      45.849   2.882   7.882  0.00  0.00    +0.000 A 
ATOM     17  C   UNL     1      45.968   1.536   8.239  0.00  0.00    +0.000 A 
ATOM     18  C   UNL     1      46.976   0.783   7.662  0.00  0.00    +0.000 A 
ATOM     19  N   UNL     1      47.854   1.264   6.753  0.00  0.00    +0.000 NA
ATOM     20  C   UNL     1      47.714   2.559   6.408  0.00  0.00    +0.000 A 
ATOM     21  C   UNL     1      46.741   3.396   6.934  0.00  0.00    +0.000 A 
ENDBRANCH  15  16
ENDBRANCH  14  15
ENDBRANCH   3  14
TORSDOF 4
ENDMDL
MODEL 3
REMARK VINA RESULT:    -6.634      1.546      6.960
REMARK INTER + INTRA:          -8.733
REMARK INTER:                  -8.099
REMARK INTRA:                  -0.634
REMARK UNBOUND:                -0.548
REMARK  Name = 
REMARK  4 active torsions:
REMARK  status: ('A' for Active; 'I' for Inactive)
REMARK    1  A    between atoms: C_3  and  O_4
REMARK    2  A    between atoms: O_4  and  C_5
REMARK    3  A    between atoms: C_5  and  C_6
REMARK    4  A    between atoms: C_13  and  C_14
REMARK                            x       y       z     vdW  Elec       q    Type
REMARK                         _______ _______ _______ _____ _____    ______ ____
ROOT
ATOM      1  C   UNL     1      44.484   2.033   9.455  0.00  0.00    +0.000 A 
ATOM      2  C   UNL     1      44.287   3.287  10.029  0.00  0.00    +0.000 A 
ATOM      3  C   UNL     1      44.925   4.402   9.497  0.00  0.00    +0.000 A 
ATOM      4  C   UNL     1      45.835   4.237   8.448  0.00  0.00    +0.000 A 
ATOM      5  C   UNL     1      46.104   2.972   7.894  0.00  0.00    +0.000 A 
ATOM      6  C   UNL     1      45.376   1.879   8.386  0.00  0.00    +0.000 A 
ENDROOT
BRANCH   5   7
ATOM      7  C   UNL     1      47.302   2.840   6.951  0.00  0.00    +0.000 C 
ATOM      8  C   UNL     1      47.042   3.275   5.494  0.00  0.00    +0.000 C 
ATOM      9  C   UNL     1      46.421   2.167   4.651  0.00  0.00    +0.000 C 
ATOM     10  N   UNL     1      47.240   0.954   4.672  0.00  0.00    +0.000 NA
ATOM     11  C   UNL     1      47.399   0.457   6.035  0.00  0.00    +0.000 C 
ATOM     12  C   UNL     1      48.049   1.494   6.950  0.00  0.00    +0.000 C 
ATOM     13  H   UNL     1      48.156   1.163   4.280  0.00  0.00    +0.000 HD
ENDBRANCH   5   7
BRANCH   3  14
ATOM     14  O   UNL     1      44.648   5.592  10.109  0.00  0.00    +0.000 OA
BRANCH  14  15
ATOM     15  C   UNL     1      44.377   5.511  11.509  0.00  0.00    +0.000 C 
BRANCH  15  16
ATOM     16  C   UNL     1      45.649   5.601  12.317  0.00  0.00    +0.000 A 
ATOM     17  C   UNL     1      46.672   6.501  12.007  0.00  0.00    +0.000 A 
ATOM     18  C   UNL     1      47.803   6.520  12.805  0.00  0.00    +0.000 A 
ATOM     19  N   UNL     1      47.979   5.730  13.887  0.00  0.00    +0.000 NA
ATOM     20  C   UNL     1      46.974   4.880  14.181  0.00  0.00    +0.000 A 
ATOM     21  C   UNL     1      45.807   4.781  13.440  0.00  0.00    +0.000 A 
ENDBRANCH  15  16
ENDBRANCH  14  15
ENDBRANCH   3  14
TORSDOF 4
ENDMDL
MODEL 4
REMARK VINA RESULT:    -6.507      3.821      7.403
REMARK INTER + INTRA:          -8.577
REMARK INTER:                  -8.292
REMARK INTRA:                  -0.285
REMARK UNBOUND:                -0.548
REMARK  Name = 
REMARK  4 active torsions:
REMARK  status: ('A' for Active; 'I' for Inactive)
REMARK    1  A    between atoms: C_3  and  O_4
REMARK    2  A    between atoms: O_4  and  C_5
REMARK    3  A    between atoms: C_5  and  C_6
REMARK    4  A    between atoms: C_13  and  C_14
REMARK                            x       y       z     vdW  Elec       q    Type
REMARK                         _______ _______ _______ _____ _____    ______ ____
ROOT
ATOM      1  C   UNL     1      47.369   6.614  13.177  0.00  0.00    +0.000 A 
ATOM      2  C   UNL     1      47.448   5.696  14.221  0.00  0.00    +0.000 A 
ATOM      3  C   UNL     1      46.758   4.492  14.140  0.00  0.00    +0.000 A 
ATOM      4  C   UNL     1      45.913   4.256  13.051  0.00  0.00    +0.000 A 
ATOM      5  C   UNL     1      45.762   5.196  12.015  0.00  0.00    +0.000 A 
ATOM      6  C   UNL     1      46.543   6.359  12.075  0.00  0.00    +0.000 A 
ENDROOT
BRANCH   5   7
ATOM      7  C   UNL     1      44.623   4.987  11.014  0.00  0.00    +0.000 C 
ATOM      8  C   UNL     1      43.355   4.327  11.593  0.00  0.00    +0.000 C 
ATOM      9  C   UNL     1      43.441   2.805  11.615  0.00  0.00    +0.000 C 
ATOM     10  N   UNL     1      43.723   2.266  10.284  0.00  0.00    +0.000 NA
ATOM     11  C   UNL     1      44.984   2.788   9.767  0.00  0.00    +0.000 C 
ATOM     12  C   UNL     1      44.977   4.313   9.677  0.00  0.00    +0.000 C 
ATOM     13  H   UNL     1      42.967   2.522   9.652  0.00  0.00    +0.000 HD
ENDBRANCH   5   7
BRANCH   3  14
ATOM     14  O   UNL     1      46.919   3.644  15.200  0.00  0.00    +0.000 OA
BRANCH  14  15
ATOM     15  C   UNL     1      47.301   4.265  16.428  0.00  0.00    +0.000 C 
BRANCH  15  16
ATOM     16  C   UNL     1      48.671   3.810  16.867  0.00  0.00    +0.000 A 
ATOM     17  C   UNL     1      49.615   4.686  17.408  0.00  0.00    +0.000 A 
ATOM     18  C   UNL     1      50.846   4.182  17.790  0.00  0.00    +0.000 A 
ATOM     19  N   UNL     1      51.195   2.880  17.689  0.00  0.00    +0.000 NA
ATOM     20  C   UNL     1      50.266   2.046  17.180  0.00  0.00    +0.000 A 
ATOM     21  C   UNL     1      49.009   2.456  16.763  0.00  0.00    +0.000 A 
ENDBRANCH  15  16
ENDBRANCH  14  15
ENDBRANCH   3  14
TORSDOF 4
ENDMDL
MODEL 5
REMARK VINA RESULT:    -6.480      3.342      7.335
REMARK INTER + INTRA:          -8.544
REMARK INTER:                  -8.267
REMARK INTRA:                  -0.277
REMARK UNBOUND:                -0.548
REMARK  Name = 
REMARK  4 active torsions:
REMARK  status: ('A' for Active; 'I' for Inactive)
REMARK    1  A    between atoms: C_3  and  O_4
REMARK    2  A    between atoms: O_4  and  C_5
REMARK    3  A    between atoms: C_5  and  C_6
REMARK    4  A    between atoms: C_13  and  C_14
REMARK                            x       y       z     vdW  Elec       q    Type
REMARK                         _______ _______ _______ _____ _____    ______ ____
ROOT
ATOM      1  C   UNL     1      46.054   7.961  12.308  0.00  0.00    +0.000 A 
ATOM      2  C   UNL     1      46.844   7.206  13.171  0.00  0.00    +0.000 A 
ATOM      3  C   UNL     1      46.794   5.817  13.122  0.00  0.00    +0.000 A 
ATOM      4  C   UNL     1      45.877   5.193  12.270  0.00  0.00    +0.000 A 
ATOM      5  C   UNL     1      45.019   5.933  11.436  0.00  0.00    +0.000 A 
ATOM      6  C   UNL     1      45.158   7.329  11.437  0.00  0.00    +0.000 A 
ENDROOT
BRANCH   5   7
ATOM      7  C   UNL     1      43.869   5.194  10.750  0.00  0.00    +0.000 C 
ATOM      8  C   UNL     1      42.923   4.427  11.697  0.00  0.00    +0.000 C 
ATOM      9  C   UNL     1      43.440   3.035  12.043  0.00  0.00    +0.000 C 
ATOM     10  N   UNL     1      43.692   2.242  10.840  0.00  0.00    +0.000 NA
ATOM     11  C   UNL     1      44.677   2.895   9.983  0.00  0.00    +0.000 C 
ATOM     12  C   UNL     1      44.227   4.291   9.556  0.00  0.00    +0.000 C 
ATOM     13  H   UNL     1      42.821   2.128  10.325  0.00  0.00    +0.000 HD
ENDBRANCH   5   7
BRANCH   3  14
ATOM     14  O   UNL     1      47.625   5.163  13.987  0.00  0.00    +0.000 OA
BRANCH  14  15
ATOM     15  C   UNL     1      46.978   4.283  14.909  0.00  0.00    +0.000 C 
BRANCH  15  16
ATOM     16  C   UNL     1      47.689   4.269  16.240  0.00  0.00    +0.000 A 
ATOM     17  C   UNL     1      47.649   3.168  17.100  0.00  0.00    +0.000 A 
ATOM     18  C   UNL     1      48.334   3.239  18.301  0.00  0.00    +0.000 A 
ATOM     19  N   UNL     1      49.062   4.308  18.694  0.00  0.00    +0.000 NA
ATOM     20  C   UNL     1      49.103   5.354  17.845  0.00  0.00    +0.000 A 
ATOM     21  C   UNL     1      48.446   5.382  16.625  0.00  0.00    +0.000 A 
ENDBRANCH  15  16
ENDBRANCH  14  15
ENDBRANCH   3  14
TORSDOF 4
ENDMDL
MODEL 6
REMARK VINA RESULT:    -6.306      1.450      2.198
REMARK INTER + INTRA:          -8.328
REMARK INTER:                  -7.642
REMARK INTRA:                  -0.686
REMARK UNBOUND:                -0.548
REMARK  Name = 
REMARK  4 active torsions:
REMARK  status: ('A' for Active; 'I' for Inactive)
REMARK    1  A    between atoms: C_3  and  O_4
REMARK    2  A    between atoms: O_4  and  C_5
REMARK    3  A    between atoms: C_5  and  C_6
REMARK    4  A    between atoms: C_13  and  C_14
REMARK                            x       y       z     vdW  Elec       q    Type
REMARK                         _______ _______ _______ _____ _____    ______ ____
ROOT
ATOM      1  C   UNL     1      44.984   7.836  11.725  0.00  0.00    +0.000 A 
ATOM      2  C   UNL     1      44.402   6.606  11.428  0.00  0.00    +0.000 A 
ATOM      3  C   UNL     1      45.062   5.428  11.760  0.00  0.00    +0.000 A 
ATOM      4  C   UNL     1      46.348   5.491  12.305  0.00  0.00    +0.000 A 
ATOM      5  C   UNL     1      46.987   6.720  12.553  0.00  0.00    +0.000 A 
ATOM      6  C   UNL     1      46.261   7.892  12.297  0.00  0.00    +0.000 A 
ENDROOT
BRANCH   5   7
ATOM      7  C   UNL     1      48.481   6.700  12.884  0.00  0.00    +0.000 C 
ATOM      8  C   UNL     1      48.827   6.938  14.369  0.00  0.00    +0.000 C 
ATOM      9  C   UNL     1      48.900   8.419  14.725  0.00  0.00    +0.000 C 
ATOM     10  N   UNL     1      49.850   9.130  13.870  0.00  0.00    +0.000 NA
ATOM     11  C   UNL     1      49.471   9.017  12.465  0.00  0.00    +0.000 C 
ATOM     12  C   UNL     1      49.406   7.561  12.007  0.00  0.00    +0.000 C 
ATOM     13  H   UNL     1      50.779   8.736  14.002  0.00  0.00    +0.000 HD
ENDBRANCH   5   7
BRANCH   3  14
ATOM     14  O   UNL     1      44.400   4.272  11.455  0.00  0.00    +0.000 OA
BRANCH  14  15
ATOM     15  C   UNL     1      43.872   4.201  10.130  0.00  0.00    +0.000 C 
BRANCH  15  16
ATOM     16  C   UNL     1      44.855   3.556   9.184  0.00  0.00    +0.000 A 
ATOM     17  C   UNL     1      45.597   4.292   8.256  0.00  0.00    +0.000 A 
ATOM     18  C   UNL     1      46.482   3.619   7.431  0.00  0.00    +0.000 A 
ATOM     19  N   UNL     1      46.691   2.285   7.474  0.00  0.00    +0.000 NA
ATOM     20  C   UNL     1      45.979   1.593   8.386  0.00  0.00    +0.000 A 
ATOM     21  C   UNL     1      45.065   2.174   9.252  0.00  0.00    +0.000 A 
ENDBRANCH  15  16
ENDBRANCH  14  15
ENDBRANCH   3  14
TORSDOF 4
ENDMDL
MODEL 7
REMARK VINA RESULT:    -6.124      3.722      7.316
REMARK INTER + INTRA:          -8.104
REMARK INTER:                  -7.485
REMARK INTRA:                  -0.618
REMARK UNBOUND:                -0.548
REMARK  Name = 
REMARK  4 active torsions:
REMARK  status: ('A' for Active; 'I' for Inactive)
REMARK    1  A    between atoms: C_3  and  O_4
REMARK    2  A    between atoms: O_4  and  C_5
REMARK    3  A    between atoms: C_5  and  C_6
REMARK    4  A    between atoms: C_13  and  C_14
REMARK                            x       y       z     vdW  Elec       q    Type
REMARK                         _______ _______ _______ _____ _____    ______ ____
ROOT
ATOM      1  C   UNL     1      46.482   8.448  12.489  0.00  0.00    +0.000 A 
ATOM      2  C   UNL     1      47.509   7.842  13.209  0.00  0.00    +0.000 A 
ATOM      3  C   UNL     1      47.415   6.498  13.554  0.00  0.00    +0.000 A 
ATOM      4  C   UNL     1      46.245   5.793  13.257  0.00  0.00    +0.000 A 
ATOM      5  C   UNL     1      45.165   6.399  12.590  0.00  0.00    +0.000 A 
ATOM      6  C   UNL     1      45.325   7.728  12.169  0.00  0.00    +0.000 A 
ENDROOT
BRANCH   5   7
ATOM      7  C   UNL     1      43.831   5.650  12.551  0.00  0.00    +0.000 C 
ATOM      8  C   UNL     1      43.864   4.221  13.130  0.00  0.00    +0.000 C 
ATOM      9  C   UNL     1      44.328   3.185  12.113  0.00  0.00    +0.000 C 
ATOM     10  N   UNL     1      43.505   3.215  10.904  0.00  0.00    +0.000 NA
ATOM     11  C   UNL     1      43.556   4.530  10.272  0.00  0.00    +0.000 C 
ATOM     12  C   UNL     1      43.074   5.634  11.212  0.00  0.00    +0.000 C 
ATOM     13  H   UNL     1      42.541   2.996  11.149  0.00  0.00    +0.000 HD
ENDBRANCH   5   7
BRANCH   3  14
ATOM     14  O   UNL     1      48.483   5.985  14.235  0.00  0.00    +0.000 OA
BRANCH  14  15
ATOM     15  C   UNL     1      48.588   6.388  15.602  0.00  0.00    +0.000 C 
BRANCH  15  16
ATOM     16  C   UNL     1      48.479   5.204  16.531  0.00  0.00    +0.000 A 
ATOM     17  C   UNL     1      47.362   4.364  16.547  0.00  0.00    +0.000 A 
ATOM     18  C   UNL     1      47.348   3.296  17.427  0.00  0.00    +0.000 A 
ATOM     19  N   UNL     1      48.361   2.997  18.271  0.00  0.00    +0.000 NA
ATOM     20  C   UNL     1      49.437   3.808  18.230  0.00  0.00    +0.000 A 
ATOM     21  C   UNL     1      49.543   4.905  17.389  0.00  0.00    +0.000 A 
ENDBRANCH  15  16
ENDBRANCH  14  15
ENDBRANCH   3  14
TORSDOF 4
ENDMDL
MODEL 8
REMARK VINA RESULT:    -5.932      2.988      7.097
REMARK INTER + INTRA:          -7.867
REMARK INTER:                  -7.285
REMARK INTRA:                  -0.583
REMARK UNBOUND:                -0.548
REMARK  Name = 
REMARK  4 active torsions:
REMARK  status: ('A' for Active; 'I' for Inactive)
REMARK    1  A    between atoms: C_3  and  O_4
REMARK    2  A    between atoms: O_4  and  C_5
REMARK    3  A    between atoms: C_5  and  C_6
REMARK    4  A    between atoms: C_13  and  C_14
REMARK                            x       y       z     vdW  Elec       q    Type
REMARK                         _______ _______ _______ _____ _____    ______ ____
ROOT
ATOM      1  C   UNL     1      46.893   5.204  13.739  0.00  0.00    +0.000 A 
ATOM      2  C   UNL     1      47.809   6.110  13.211  0.00  0.00    +0.000 A 
ATOM      3  C   UNL     1      47.509   6.799  12.041  0.00  0.00    +0.000 A 
ATOM      4  C   UNL     1      46.328   6.502  11.353  0.00  0.00    +0.000 A 
ATOM      5  C   UNL     1      45.416   5.541  11.828  0.00  0.00    +0.000 A 
ATOM      6  C   UNL     1      45.698   4.932  13.060  0.00  0.00    +0.000 A 
ENDROOT
BRANCH   5   7
ATOM      7  C   UNL     1      44.301   5.080  10.888  0.00  0.00    +0.000 C 
ATOM      8  C   UNL     1      43.137   4.330  11.568  0.00  0.00    +0.000 C 
ATOM      9  C   UNL     1      43.422   2.843  11.750  0.00  0.00    +0.000 C 
ATOM     10  N   UNL     1      43.754   2.202  10.477  0.00  0.00    +0.000 NA
ATOM     11  C   UNL     1      44.929   2.822   9.873  0.00  0.00    +0.000 C 
ATOM     12  C   UNL     1      44.722   4.314   9.621  0.00  0.00    +0.000 C 
ATOM     13  H   UNL     1      42.963   2.289   9.842  0.00  0.00    +0.000 HD
ENDBRANCH   5   7
BRANCH   3  14
ATOM     14  O   UNL     1      48.456   7.687  11.615  0.00  0.00    +0.000 OA
BRANCH  14  15
ATOM     15  C   UNL     1      48.588   8.867  12.410  0.00  0.00    +0.000 C 
BRANCH  15  16
ATOM     16  C   UNL     1      47.863  10.032  11.781  0.00  0.00    +0.000 A 
ATOM     17  C   UNL     1      46.511  10.291  12.022  0.00  0.00    +0.000 A 
ATOM     18  C   UNL     1      45.926  11.385  11.408  0.00  0.00    +0.000 A 
ATOM     19  N   UNL     1      46.587  12.240  10.596  0.00  0.00    +0.000 NA
ATOM     20  C   UNL     1      47.894  11.984  10.388  0.00  0.00    +0.000 A 
ATOM     21  C   UNL     1      48.567  10.911  10.951  0.00  0.00    +0.000 A 
ENDBRANCH  15  16
ENDBRANCH  14  15
ENDBRANCH   3  14
TORSDOF 4
ENDMDL
MODEL 9
REMARK VINA RESULT:    -5.623      3.914      6.248
REMARK INTER + INTRA:          -7.486
REMARK INTER:                  -6.898
REMARK INTRA:                  -0.589
REMARK UNBOUND:                -0.548
REMARK  Name = 
REMARK  4 active torsions:
REMARK  status: ('A' for Active; 'I' for Inactive)
REMARK    1  A    between atoms: C_3  and  O_4
REMARK    2  A    between atoms: O_4  and  C_5
REMARK    3  A    between atoms: C_5  and  C_6
REMARK    4  A    between atoms: C_13  and  C_14
REMARK                            x       y       z     vdW  Elec       q    Type
REMARK                         _______ _______ _______ _____ _____    ______ ____
ROOT
ATOM      1  C   UNL     1      49.031   7.439  15.540  0.00  0.00    +0.000 A 
ATOM      2  C   UNL     1      48.463   6.980  14.354  0.00  0.00    +0.000 A 
ATOM      3  C   UNL     1      47.764   5.778  14.338  0.00  0.00    +0.000 A 
ATOM      4  C   UNL     1      47.721   4.993  15.495  0.00  0.00    +0.000 A 
ATOM      5  C   UNL     1      48.343   5.401  16.690  0.00  0.00    +0.000 A 
ATOM      6  C   UNL     1      48.959   6.662  16.703  0.00  0.00    +0.000 A 
ENDROOT
BRANCH   5   7
ATOM      7  C   UNL     1      48.486   4.374  17.814  0.00  0.00    +0.000 C 
ATOM      8  C   UNL     1      49.777   4.491  18.650  0.00  0.00    +0.000 C 
ATOM      9  C   UNL     1      50.958   3.767  18.014  0.00  0.00    +0.000 C 
ATOM     10  N   UNL     1      50.651   2.359  17.764  0.00  0.00    +0.000 NA
ATOM     11  C   UNL     1      49.501   2.227  16.874  0.00  0.00    +0.000 C 
ATOM     12  C   UNL     1      48.255   2.897  17.449  0.00  0.00    +0.000 C 
ATOM     13  H   UNL     1      50.448   1.898  18.648  0.00  0.00    +0.000 HD
ENDBRANCH   5   7
BRANCH   3  14
ATOM     14  O   UNL     1      47.219   5.424  13.136  0.00  0.00    +0.000 OA
BRANCH  14  15
ATOM     15  C   UNL     1      45.966   6.037  12.829  0.00  0.00    +0.000 C 
BRANCH  15  16
ATOM     16  C   UNL     1      45.015   5.049  12.199  0.00  0.00    +0.000 A 
ATOM     17  C   UNL     1      44.454   3.988  12.915  0.00  0.00    +0.000 A 
ATOM     18  C   UNL     1      43.586   3.132  12.260  0.00  0.00    +0.000 A 
ATOM     19  N   UNL     1      43.226   3.264  10.964  0.00  0.00    +0.000 NA
ATOM     20  C   UNL     1      43.764   4.303  10.294  0.00  0.00    +0.000 A 
ATOM     21  C   UNL     1      44.647   5.210  10.859  0.00  0.00    +0.000 A 
ENDBRANCH  15  16
ENDBRANCH  14  15
ENDBRANCH   3  14
TORSDOF 4
ENDMDL
