MODEL 1
REMARK VINA RESULT:    -7.059      0.000      0.000
REMARK INTER + INTRA:          -9.841
REMARK INTER:                  -9.328
REMARK INTRA:                  -0.513
REMARK UNBOUND:                -0.513
REMARK  Name = 
REMARK  8 active torsions:
REMARK  status: ('A' for Active; 'I' for Inactive)
REMARK    1  A    between atoms: C_1  and  C_2
REMARK    2  A    between atoms: C_5  and  C_6
REMARK    3  A    between atoms: C_6  and  C_7
REMARK    4  A    between atoms: C_6  and  C_8
REMARK    5  A    between atoms: C_8  and  O_9
REMARK    6  A    between atoms: O_9  and  C_10
REMARK    7  A    between atoms: C_14  and  C_15
REMARK    8  A    between atoms: C_15  and  N_16
REMARK                            x       y       z     vdW  Elec       q    Type
REMARK                         _______ _______ _______ _____ _____    ______ ____
ROOT
ATOM      1  O   UNL     1      45.527   3.856  12.722  0.00  0.00    +0.000 OA
ENDROOT
BRANCH   1   2
ATOM      2  C   UNL     1      46.370   4.516  13.592  0.00  0.00    +0.000 A 
ATOM      3  N   UNL     1      46.904   5.654  13.128  0.00  0.00    +0.000 NA
ATOM      4  C   UNL     1      47.757   6.275  13.965  0.00  0.00    +0.000 A 
ATOM      5  C   UNL     1      48.076   5.804  15.222  0.00  0.00    +0.000 A 
ATOM      6  C   UNL     1      47.472   4.628  15.608  0.00  0.00    +0.000 A 
ATOM      7  N   UNL     1      46.607   3.980  14.801  0.00  0.00    +0.000 NA
BRANCH   6   8
ATOM      8  C   UNL     1      47.734   3.998  16.957  0.00  0.00    +0.000 C 
BRANCH   8   9
ATOM      9  N   UNL     1      46.628   3.171  17.446  0.00  0.00    +0.000 NA
ATOM     10  H   UNL     1      45.832   3.300  16.819  0.00  0.00    +0.000 HD
ATOM     11  H   UNL     1      46.323   3.546  18.345  0.00  0.00    +0.000 HD
ENDBRANCH   8   9
ENDBRANCH   6   8
ENDBRANCH   1   2
BRANCH   1  12
ATOM     12  C   UNL     1      44.783   4.768  11.902  0.00  0.00    +0.000 C 
BRANCH  12  13
ATOM     13  C   UNL     1      43.986   3.992  10.835  0.00  0.00    +0.000 C 
ATOM     14  C   UNL     1      43.270   2.789  11.463  0.00  0.00    +0.000 C 
BRANCH  13  19
ATOM     15  C   UNL     1      47.308   2.301   6.310  0.00  0.00    +0.000 C 
ATOM     16  C   UNL     1      46.465   2.746   7.470  0.00  0.00    +0.000 A 
ATOM     17  C   UNL     1      46.237   4.101   7.724  0.00  0.00    +0.000 A 
ATOM     18  C   UNL     1      45.450   4.504   8.807  0.00  0.00    +0.000 A 
ATOM     19  C   UNL     1      44.865   3.556   9.669  0.00  0.00    +0.000 A 
ATOM     20  C   UNL     1      45.103   2.198   9.402  0.00  0.00    +0.000 A 
ATOM     21  C   UNL     1      45.890   1.795   8.319  0.00  0.00    +0.000 A 
ENDBRANCH  13  19
ENDBRANCH  12  13
ENDBRANCH   1  12
TORSDOF 6
ENDMDL
MODEL 2
REMARK VINA RESULT:    -6.762      1.819      3.292
REMARK INTER + INTRA:          -9.449
REMARK INTER:                  -8.922
REMARK INTRA:                  -0.527
REMARK UNBOUND:                -0.513
REMARK  Name = 
REMARK  8 active torsions:
REMARK  status: ('A' for Active; 'I' for Inactive)
REMARK    1  A    between atoms: C_1  and  C_2
REMARK    2  A    between atoms: C_5  and  C_6
REMARK    3  A    between atoms: C_6  and  C_7
REMARK    4  A    between atoms: C_6  and  C_8
REMARK    5  A    between atoms: C_8  and  O_9
REMARK    6  A    between atoms: O_9  and  C_10
REMARK    7  A    between atoms: C_14  and  C_15
REMARK    8  A    between atoms: C_15  and  N_16
REMARK                            x       y       z     vdW  Elec       q    Type
REMARK                         _______ _______ _______ _____ _____    ______ ____
ROOT
ATOM      1  O   UNL     1      44.658   4.934  12.352  0.00  0.00    +0.000 OA
ENDROOT
BRANCH   1   2
ATOM      2  C   UNL     1      45.587   5.900  12.681  0.00  0.00    +0.000 A 
ATOM      3  N   UNL     1      46.685   5.456  13.306  0.00  0.00    +0.000 NA
ATOM      4  C   UNL     1      47.571   6.406  13.662  0.00  0.00    +0.000 A 
ATOM      5  C   UNL     1      47.394   7.751  13.409  0.00  0.00    +0.000 A 
ATOM      6  C   UNL     1      46.234   8.106  12.758  0.00  0.00    +0.000 A 
ATOM      7  N   UNL     1      45.326   7.183  12.380  0.00  0.00    +0.000 NA
BRANCH   6   8
ATOM      8  C   UNL     1      45.911   9.544  12.421  0.00  0.00    +0.000 C 
BRANCH   8   9
ATOM      9  N   UNL     1      44.504   9.895  12.629  0.00  0.00    +0.000 NA
ATOM     10  H   UNL     1      43.927   9.178  12.186  0.00  0.00    +0.000 HD
ATOM     11  H   UNL     1      44.310  10.753  12.110  0.00  0.00    +0.000 HD
ENDBRANCH   8   9
ENDBRANCH   6   8
ENDBRANCH   1   2
BRANCH   1  12
ATOM     12  C   UNL     1      44.081   5.164  11.058  0.00  0.00    +0.000 C 
BRANCH  12  13
ATOM     13  C   UNL     1      43.720   3.821  10.393  0.00  0.00    +0.000 C 
ATOM     14  C   UNL     1      43.530   2.727  11.451  0.00  0.00    +0.000 C 
BRANCH  13  19
ATOM     15  C   UNL     1      47.742   2.226   6.438  0.00  0.00    +0.000 C 
ATOM     16  C   UNL     1      46.706   2.622   7.449  0.00  0.00    +0.000 A 
ATOM     17  C   UNL     1      46.068   1.668   8.247  0.00  0.00    +0.000 A 
ATOM     18  C   UNL     1      45.103   2.049   9.185  0.00  0.00    +0.000 A 
ATOM     19  C   UNL     1      44.752   3.402   9.353  0.00  0.00    +0.000 A 
ATOM     20  C   UNL     1      45.400   4.350   8.545  0.00  0.00    +0.000 A 
ATOM     21  C   UNL     1      46.364   3.969   7.606  0.00  0.00    +0.000 A 
ENDBRANCH  13  19
ENDBRANCH  12  13
ENDBRANCH   1  12
TORSDOF 6
ENDMDL
MODEL 3
REMARK VINA RESULT:    -6.740      1.428      2.472
REMARK INTER + INTRA:          -9.419
REMARK INTER:                  -8.976
REMARK INTRA:                  -0.443
REMARK UNBOUND:                -0.513
REMARK  Name = 
REMARK  8 active torsions:
REMARK  status: ('A' for Active; 'I' for Inactive)
REMARK    1  A    between atoms: C_1  and  C_2
REMARK    2  A    between atoms: C_5  and  C_6
REMARK    3  A    between atoms: C_6  and  C_7
REMARK    4  A    between atoms: C_6  and  C_8
REMARK    5  A    between atoms: C_8  and  O_9
REMARK    6  A    between atoms: O_9  and  C_10
REMARK    7  A    between atoms: C_14  and  C_15
REMARK    8  A    between atoms: C_15  and  N_16
REMARK                            x       y       z     vdW  Elec       q    Type
REMARK                         _______ _______ _______ _____ _____    ______ ____
ROOT
ATOM      1  O   UNL     1      44.058   5.335  12.347  0.00  0.00    +0.000 OA
ENDROOT
BRANCH   1   2
ATOM      2  C   UNL     1      45.307   5.363  12.932  0.00  0.00    +0.000 A 
ATOM      3  N   UNL     1      45.504   4.475  13.916  0.00  0.00    +0.000 NA
ATOM      4  C   UNL     1      46.711   4.532  14.512  0.00  0.00    +0.000 A 
ATOM      5  C   UNL     1      47.701   5.423  14.153  0.00  0.00    +0.000 A 
ATOM      6  C   UNL     1      47.402   6.292  13.127  0.00  0.00    +0.000 A 
ATOM      7  N   UNL     1      46.208   6.262  12.501  0.00  0.00    +0.000 NA
BRANCH   6   8
ATOM      8  C   UNL     1      48.394   7.323  12.635  0.00  0.00    +0.000 C 
BRANCH   8   9
ATOM      9  N   UNL     1      49.783   6.856  12.648  0.00  0.00    +0.000 NA
ATOM     10  H   UNL     1      50.362   7.590  13.058  0.00  0.00    +0.000 HD
ATOM     11  H   UNL     1      50.099   6.772  11.682  0.00  0.00    +0.000 HD
ENDBRANCH   8   9
ENDBRANCH   6   8
ENDBRANCH   1   2
BRANCH   1  12
ATOM     12  C   UNL     1      44.135   5.396  10.915  0.00  0.00    +0.000 C 
BRANCH  12  13
ATOM     13  C   UNL     1      43.693   4.052  10.304  0.00  0.00    +0.000 C 
ATOM     14  C   UNL     1      43.363   3.038  11.408  0.00  0.00    +0.000 C 
BRANCH  13  19
ATOM     15  C   UNL     1      47.637   1.877   6.553  0.00  0.00    +0.000 C 
ATOM     16  C   UNL     1      46.635   2.445   7.514  0.00  0.00    +0.000 A 
ATOM     17  C   UNL     1      46.390   3.820   7.579  0.00  0.00    +0.000 A 
ATOM     18  C   UNL     1      45.454   4.339   8.479  0.00  0.00    +0.000 A 
ATOM     19  C   UNL     1      44.732   3.491   9.341  0.00  0.00    +0.000 A 
ATOM     20  C   UNL     1      44.988   2.112   9.266  0.00  0.00    +0.000 A 
ATOM     21  C   UNL     1      45.925   1.594   8.366  0.00  0.00    +0.000 A 
ENDBRANCH  13  19
ENDBRANCH  12  13
ENDBRANCH   1  12
TORSDOF 6
ENDMDL
MODEL 4
REMARK VINA RESULT:    -6.301      2.916      7.463
REMARK INTER + INTRA:          -8.840
REMARK INTER:                  -8.401
REMARK INTRA:                  -0.439
REMARK UNBOUND:                -0.513
REMARK  Name = 
REMARK  8 active torsions:
REMARK  status: ('A' for Active; 'I' for Inactive)
REMARK    1  A    between atoms: C_1  and  C_2
REMARK    2  A    between atoms: C_5  and  C_6
REMARK    3  A    between atoms: C_6  and  C_7
REMARK    4  A    between atoms: C_6  and  C_8
REMARK    5  A    between atoms: C_8  and  O_9
REMARK    6  A    between atoms: O_9  and  C_10
REMARK    7  A    between atoms: C_14  and  C_15
REMARK    8  A    between atoms: C_15  and  N_16
REMARK                            x       y       z     vdW  Elec       q    Type
REMARK                         _______ _______ _______ _____ _____    ______ ____
ROOT
ATOM      1  O   UNL     1      46.925   3.533  14.559  0.00  0.00    +0.000 OA
ENDROOT
BRANCH   1   2
ATOM      2  C   UNL     1      46.302   4.099  13.467  0.00  0.00    +0.000 A 
ATOM      3  N   UNL     1      46.849   5.235  13.013  0.00  0.00    +0.000 NA
ATOM      4  C   UNL     1      46.215   5.806  11.972  0.00  0.00    +0.000 A 
ATOM      5  C   UNL     1      45.082   5.283  11.384  0.00  0.00    +0.000 A 
ATOM      6  C   UNL     1      44.599   4.109  11.920  0.00  0.00    +0.000 A 
ATOM      7  N   UNL     1      45.210   3.504  12.959  0.00  0.00    +0.000 NA
BRANCH   6   8
ATOM      8  C   UNL     1      43.363   3.428  11.376  0.00  0.00    +0.000 C 
BRANCH   8   9
ATOM      9  N   UNL     1      43.249   2.020  11.763  0.00  0.00    +0.000 NA
ATOM     10  H   UNL     1      43.402   1.447  10.932  0.00  0.00    +0.000 HD
ATOM     11  H   UNL     1      42.282   1.842  12.037  0.00  0.00    +0.000 HD
ENDBRANCH   8   9
ENDBRANCH   6   8
ENDBRANCH   1   2
BRANCH   1  12
ATOM     12  C   UNL     1      47.345   4.524  15.509  0.00  0.00    +0.000 C 
BRANCH  12  13
ATOM     13  C   UNL     1      47.504   3.886  16.903  0.00  0.00    +0.000 C 
ATOM     14  C   UNL     1      47.024   4.850  17.997  0.00  0.00    +0.000 C 
BRANCH  13  19
ATOM     15  C   UNL     1      53.021   2.145  17.845  0.00  0.00    +0.000 C 
ATOM     16  C   UNL     1      51.609   2.600  17.615  0.00  0.00    +0.000 A 
ATOM     17  C   UNL     1      51.209   3.904  17.915  0.00  0.00    +0.000 A 
ATOM     18  C   UNL     1      49.891   4.317  17.697  0.00  0.00    +0.000 A 
ATOM     19  C   UNL     1      48.934   3.431  17.166  0.00  0.00    +0.000 A 
ATOM     20  C   UNL     1      49.349   2.123  16.869  0.00  0.00    +0.000 A 
ATOM     21  C   UNL     1      50.667   1.710  17.088  0.00  0.00    +0.000 A 
ENDBRANCH  13  19
ENDBRANCH  12  13
ENDBRANCH   1  12
TORSDOF 6
ENDMDL
MODEL 5
REMARK VINA RESULT:    -6.260      1.426      2.594
REMARK INTER + INTRA:          -8.786
REMARK INTER:                  -8.344
REMARK INTRA:                  -0.441
REMARK UNBOUND:                -0.513
REMARK  Name = 
REMARK  8 active torsions:
REMARK  status: ('A' for Active; 'I' for Inactive)
REMARK    1  A    between atoms: C_1  and  C_2
REMARK    2  A    between atoms: C_5  and  C_6
REMARK    3  A    between atoms: C_6  and  C_7
REMARK    4  A    between atoms: C_6  and  C_8
REMARK    5  A    between atoms: C_8  and  O_9
REMARK    6  A    between atoms: O_9  and  C_10
REMARK    7  A    between atoms: C_14  and  C_15
REMARK    8  A    between atoms: C_15  and  N_16
REMARK                            x       y       z     vdW  Elec       q    Type
REMARK                         _______ _______ _______ _____ _____    ______ ____
ROOT
ATOM      1  O   UNL     1      46.135   3.925  13.818  0.00  0.00    +0.000 OA
ENDROOT
BRANCH   1   2
ATOM      2  C   UNL     1      46.961   4.411  14.810  0.00  0.00    +0.000 A 
ATOM      3  N   UNL     1      46.966   3.712  15.952  0.00  0.00    +0.000 NA
ATOM      4  C   UNL     1      47.743   4.212  16.932  0.00  0.00    +0.000 A 
ATOM      5  C   UNL     1      48.499   5.358  16.800  0.00  0.00    +0.000 A 
ATOM      6  C   UNL     1      48.430   6.003  15.585  0.00  0.00    +0.000 A 
ATOM      7  N   UNL     1      47.668   5.530  14.577  0.00  0.00    +0.000 NA
BRANCH   6   8
ATOM      8  C   UNL     1      49.204   7.271  15.305  0.00  0.00    +0.000 C 
BRANCH   8   9
ATOM      9  N   UNL     1      50.464   7.045  14.592  0.00  0.00    +0.000 NA
ATOM     10  H   UNL     1      51.212   6.963  15.283  0.00  0.00    +0.000 HD
ATOM     11  H   UNL     1      50.684   7.887  14.058  0.00  0.00    +0.000 HD
ENDBRANCH   8   9
ENDBRANCH   6   8
ENDBRANCH   1   2
BRANCH   1  12
ATOM     12  C   UNL     1      45.884   4.906  12.801  0.00  0.00    +0.000 C 
BRANCH  12  13
ATOM     13  C   UNL     1      44.652   4.502  11.968  0.00  0.00    +0.000 C 
ATOM     14  C   UNL     1      43.874   3.376  12.662  0.00  0.00    +0.000 C 
BRANCH  13  19
ATOM     15  C   UNL     1      46.163   2.988   6.511  0.00  0.00    +0.000 C 
ATOM     16  C   UNL     1      45.766   3.366   7.908  0.00  0.00    +0.000 A 
ATOM     17  C   UNL     1      45.278   2.413   8.806  0.00  0.00    +0.000 A 
ATOM     18  C   UNL     1      44.911   2.776  10.106  0.00  0.00    +0.000 A 
ATOM     19  C   UNL     1      45.026   4.109  10.545  0.00  0.00    +0.000 A 
ATOM     20  C   UNL     1      45.518   5.056   9.632  0.00  0.00    +0.000 A 
ATOM     21  C   UNL     1      45.884   4.693   8.332  0.00  0.00    +0.000 A 
ENDBRANCH  13  19
ENDBRANCH  12  13
ENDBRANCH   1  12
TORSDOF 6
ENDMDL
MODEL 6
REMARK VINA RESULT:    -6.063      3.021      8.491
REMARK INTER + INTRA:          -8.526
REMARK INTER:                  -8.091
REMARK INTRA:                  -0.434
REMARK UNBOUND:                -0.513
REMARK  Name = 
REMARK  8 active torsions:
REMARK  status: ('A' for Active; 'I' for Inactive)
REMARK    1  A    between atoms: C_1  and  C_2
REMARK    2  A    between atoms: C_5  and  C_6
REMARK    3  A    between atoms: C_6  and  C_7
REMARK    4  A    between atoms: C_6  and  C_8
REMARK    5  A    between atoms: C_8  and  O_9
REMARK    6  A    between atoms: O_9  and  C_10
REMARK    7  A    between atoms: C_14  and  C_15
REMARK    8  A    between atoms: C_15  and  N_16
REMARK                            x       y       z     vdW  Elec       q    Type
REMARK                         _______ _______ _______ _____ _____    ______ ____
ROOT
ATOM      1  O   UNL     1      47.630   3.155  14.890  0.00  0.00    +0.000 OA
ENDROOT
BRANCH   1   2
ATOM      2  C   UNL     1      46.984   3.857  13.893  0.00  0.00    +0.000 A 
ATOM      3  N   UNL     1      47.494   5.064  13.614  0.00  0.00    +0.000 NA
ATOM      4  C   UNL     1      46.838   5.764  12.669  0.00  0.00    +0.000 A 
ATOM      5  C   UNL     1      45.720   5.298  12.009  0.00  0.00    +0.000 A 
ATOM      6  C   UNL     1      45.276   4.043  12.364  0.00  0.00    +0.000 A 
ATOM      7  N   UNL     1      45.910   3.309  13.302  0.00  0.00    +0.000 NA
BRANCH   6   8
ATOM      8  C   UNL     1      44.060   3.412  11.724  0.00  0.00    +0.000 C 
BRANCH   8   9
ATOM      9  N   UNL     1      43.580   2.217  12.424  0.00  0.00    +0.000 NA
ATOM     10  H   UNL     1      43.198   2.507  13.325  0.00  0.00    +0.000 HD
ATOM     11  H   UNL     1      44.387   1.634  12.650  0.00  0.00    +0.000 HD
ENDBRANCH   8   9
ENDBRANCH   6   8
ENDBRANCH   1   2
BRANCH   1  12
ATOM     12  C   UNL     1      47.305   3.656  16.195  0.00  0.00    +0.000 C 
BRANCH  12  13
ATOM     13  C   UNL     1      48.592   3.879  17.012  0.00  0.00    +0.000 C 
ATOM     14  C   UNL     1      49.363   2.562  17.177  0.00  0.00    +0.000 C 
BRANCH  13  19
ATOM     15  C   UNL     1      47.560   6.377  22.213  0.00  0.00    +0.000 C 
ATOM     16  C   UNL     1      47.811   5.740  20.878  0.00  0.00    +0.000 A 
ATOM     17  C   UNL     1      47.158   6.188  19.726  0.00  0.00    +0.000 A 
ATOM     18  C   UNL     1      47.399   5.587  18.487  0.00  0.00    +0.000 A 
ATOM     19  C   UNL     1      48.308   4.518  18.366  0.00  0.00    +0.000 A 
ATOM     20  C   UNL     1      48.957   4.078  19.531  0.00  0.00    +0.000 A 
ATOM     21  C   UNL     1      48.715   4.679  20.770  0.00  0.00    +0.000 A 
ENDBRANCH  13  19
ENDBRANCH  12  13
ENDBRANCH   1  12
TORSDOF 6
ENDMDL
MODEL 7
REMARK VINA RESULT:    -5.952      3.116      6.742
REMARK INTER + INTRA:          -8.378
REMARK INTER:                  -7.887
REMARK INTRA:                  -0.491
REMARK UNBOUND:                -0.513
REMARK  Name = 
REMARK  8 active torsions:
REMARK  status: ('A' for Active; 'I' for Inactive)
REMARK    1  A    between atoms: C_1  and  C_2
REMARK    2  A    between atoms: C_5  and  C_6
REMARK    3  A    between atoms: C_6  and  C_7
REMARK    4  A    between atoms: C_6  and  C_8
REMARK    5  A    between atoms: C_8  and  O_9
REMARK    6  A    between atoms: O_9  and  C_10
REMARK    7  A    between atoms: C_14  and  C_15
REMARK    8  A    between atoms: C_15  and  N_16
REMARK                            x       y       z     vdW  Elec       q    Type
REMARK                         _______ _______ _______ _____ _____    ______ ____
ROOT
ATOM      1  O   UNL     1      43.786   5.304  10.604  0.00  0.00    +0.000 OA
ENDROOT
BRANCH   1   2
ATOM      2  C   UNL     1      44.313   4.280   9.845  0.00  0.00    +0.000 A 
ATOM      3  N   UNL     1      43.954   3.043  10.214  0.00  0.00    +0.000 NA
ATOM      4  C   UNL     1      44.502   2.044   9.497  0.00  0.00    +0.000 A 
ATOM      5  C   UNL     1      45.370   2.244   8.444  0.00  0.00    +0.000 A 
ATOM      6  C   UNL     1      45.674   3.553   8.139  0.00  0.00    +0.000 A 
ATOM      7  N   UNL     1      45.141   4.581   8.830  0.00  0.00    +0.000 NA
BRANCH   6   8
ATOM      8  C   UNL     1      46.614   3.916   7.012  0.00  0.00    +0.000 C 
BRANCH   8   9
ATOM      9  N   UNL     1      47.760   3.010   6.887  0.00  0.00    +0.000 NA
ATOM     10  H   UNL     1      48.541   3.410   7.409  0.00  0.00    +0.000 HD
ATOM     11  H   UNL     1      48.061   3.010   5.912  0.00  0.00    +0.000 HD
ENDBRANCH   8   9
ENDBRANCH   6   8
ENDBRANCH   1   2
BRANCH   1  12
ATOM     12  C   UNL     1      44.164   5.197  11.984  0.00  0.00    +0.000 C 
BRANCH  12  13
ATOM     13  C   UNL     1      45.699   5.248  12.118  0.00  0.00    +0.000 C 
ATOM     14  C   UNL     1      46.163   4.444  13.340  0.00  0.00    +0.000 C 
BRANCH  13  19
ATOM     15  C   UNL     1      47.719  10.743  12.410  0.00  0.00    +0.000 C 
ATOM     16  C   UNL     1      47.210   9.334  12.324  0.00  0.00    +0.000 A 
ATOM     17  C   UNL     1      48.043   8.285  11.925  0.00  0.00    +0.000 A 
ATOM     18  C   UNL     1      47.559   6.976  11.848  0.00  0.00    +0.000 A 
ATOM     19  C   UNL     1      46.221   6.678  12.175  0.00  0.00    +0.000 A 
ATOM     20  C   UNL     1      45.396   7.741  12.576  0.00  0.00    +0.000 A 
ATOM     21  C   UNL     1      45.880   9.051  12.651  0.00  0.00    +0.000 A 
ENDBRANCH  13  19
ENDBRANCH  12  13
ENDBRANCH   1  12
TORSDOF 6
ENDMDL
MODEL 8
REMARK VINA RESULT:    -5.787      3.643      4.879
REMARK INTER + INTRA:          -8.160
REMARK INTER:                  -7.580
REMARK INTRA:                  -0.580
REMARK UNBOUND:                -0.513
REMARK  Name = 
REMARK  8 active torsions:
REMARK  status: ('A' for Active; 'I' for Inactive)
REMARK    1  A    between atoms: C_1  and  C_2
REMARK    2  A    between atoms: C_5  and  C_6
REMARK    3  A    between atoms: C_6  and  C_7
REMARK    4  A    between atoms: C_6  and  C_8
REMARK    5  A    between atoms: C_8  and  O_9
REMARK    6  A    between atoms: O_9  and  C_10
REMARK    7  A    between atoms: C_14  and  C_15
REMARK    8  A    between atoms: C_15  and  N_16
REMARK                            x       y       z     vdW  Elec       q    Type
REMARK                         _______ _______ _______ _____ _____    ______ ____
ROOT
ATOM      1  O   UNL     1      49.481   6.537  14.955  0.00  0.00    +0.000 OA
ENDROOT
BRANCH   1   2
ATOM      2  C   UNL     1      48.965   6.200  16.189  0.00  0.00    +0.000 A 
ATOM      3  N   UNL     1      48.807   7.217  17.047  0.00  0.00    +0.000 NA
ATOM      4  C   UNL     1      48.341   6.879  18.265  0.00  0.00    +0.000 A 
ATOM      5  C   UNL     1      48.031   5.586  18.634  0.00  0.00    +0.000 A 
ATOM      6  C   UNL     1      48.224   4.612  17.680  0.00  0.00    +0.000 A 
ATOM      7  N   UNL     1      48.683   4.912  16.447  0.00  0.00    +0.000 NA
BRANCH   6   8
ATOM      8  C   UNL     1      47.928   3.154  17.951  0.00  0.00    +0.000 C 
BRANCH   8   9
ATOM      9  N   UNL     1      46.538   2.776  17.684  0.00  0.00    +0.000 NA
ATOM     10  H   UNL     1      46.471   1.758  17.726  0.00  0.00    +0.000 HD
ATOM     11  H   UNL     1      46.322   3.019  16.716  0.00  0.00    +0.000 HD
ENDBRANCH   8   9
ENDBRANCH   6   8
ENDBRANCH   1   2
BRANCH   1  12
ATOM     12  C   UNL     1      48.560   7.327  14.187  0.00  0.00    +0.000 C 
BRANCH  12  13
ATOM     13  C   UNL     1      48.325   6.675  12.810  0.00  0.00    +0.000 C 
ATOM     14  C   UNL     1      48.802   7.603  11.684  0.00  0.00    +0.000 C 
BRANCH  13  19
ATOM     15  C   UNL     1      42.744   5.094  11.971  0.00  0.00    +0.000 C 
ATOM     16  C   UNL     1      44.172   5.495  12.199  0.00  0.00    +0.000 A 
ATOM     17  C   UNL     1      44.968   4.838  13.141  0.00  0.00    +0.000 A 
ATOM     18  C   UNL     1      46.298   5.221  13.346  0.00  0.00    +0.000 A 
ATOM     19  C   UNL     1      46.870   6.274  12.607  0.00  0.00    +0.000 A 
ATOM     20  C   UNL     1      46.058   6.925  11.664  0.00  0.00    +0.000 A 
ATOM     21  C   UNL     1      44.729   6.543  11.460  0.00  0.00    +0.000 A 
ENDBRANCH  13  19
ENDBRANCH  12  13
ENDBRANCH   1  12
TORSDOF 6
ENDMDL
MODEL 9
REMARK VINA RESULT:    -5.434      2.418      7.100
REMARK INTER + INTRA:          -7.694
REMARK INTER:                  -7.127
REMARK INTRA:                  -0.567
REMARK UNBOUND:                -0.513
REMARK  Name = 
REMARK  8 active torsions:
REMARK  status: ('A' for Active; 'I' for Inactive)
REMARK    1  A    between atoms: C_1  and  C_2
REMARK    2  A    between atoms: C_5  and  C_6
REMARK    3  A    between atoms: C_6  and  C_7
REMARK    4  A    between atoms: C_6  and  C_8
REMARK    5  A    between atoms: C_8  and  O_9
REMARK    6  A    between atoms: O_9  and  C_10
REMARK    7  A    between atoms: C_14  and  C_15
REMARK    8  A    between atoms: C_15  and  N_16
REMARK                            x       y       z     vdW  Elec       q    Type
REMARK                         _______ _______ _______ _____ _____    ______ ____
ROOT
ATOM      1  O   UNL     1      45.693   6.588  10.748  0.00  0.00    +0.000 OA
ENDROOT
BRANCH   1   2
ATOM      2  C   UNL     1      45.264   5.369  10.266  0.00  0.00    +0.000 A 
ATOM      3  N   UNL     1      44.470   4.670  11.087  0.00  0.00    +0.000 NA
ATOM      4  C   UNL     1      44.086   3.463  10.630  0.00  0.00    +0.000 A 
ATOM      5  C   UNL     1      44.459   2.954   9.404  0.00  0.00    +0.000 A 
ATOM      6  C   UNL     1      45.273   3.752   8.631  0.00  0.00    +0.000 A 
ATOM      7  N   UNL     1      45.674   4.969   9.051  0.00  0.00    +0.000 NA
BRANCH   6   8
ATOM      8  C   UNL     1      45.761   3.316   7.267  0.00  0.00    +0.000 C 
BRANCH   8   9
ATOM      9  N   UNL     1      46.820   4.169   6.721  0.00  0.00    +0.000 NA
ATOM     10  H   UNL     1      46.632   4.316   5.729  0.00  0.00    +0.000 HD
ATOM     11  H   UNL     1      47.697   3.647   6.753  0.00  0.00    +0.000 HD
ENDBRANCH   8   9
ENDBRANCH   6   8
ENDBRANCH   1   2
BRANCH   1  12
ATOM     12  C   UNL     1      46.990   6.498  11.355  0.00  0.00    +0.000 C 
BRANCH  12  13
ATOM     13  C   UNL     1      47.006   7.271  12.688  0.00  0.00    +0.000 C 
ATOM     14  C   UNL     1      47.978   8.457  12.615  0.00  0.00    +0.000 C 
BRANCH  13  19
ATOM     15  C   UNL     1      48.316   3.758  17.194  0.00  0.00    +0.000 C 
ATOM     16  C   UNL     1      47.983   4.669  16.049  0.00  0.00    +0.000 A 
ATOM     17  C   UNL     1      48.614   5.907  15.899  0.00  0.00    +0.000 A 
ATOM     18  C   UNL     1      48.296   6.748  14.828  0.00  0.00    +0.000 A 
ATOM     19  C   UNL     1      47.335   6.368  13.870  0.00  0.00    +0.000 A 
ATOM     20  C   UNL     1      46.709   5.122  14.033  0.00  0.00    +0.000 A 
ATOM     21  C   UNL     1      47.027   4.282  15.105  0.00  0.00    +0.000 A 
ENDBRANCH  13  19
ENDBRANCH  12  13
ENDBRANCH   1  12
TORSDOF 6
ENDMDL
