MODEL 1
REMARK VINA RESULT:    -8.784      0.000      0.000
REMARK INTER + INTRA:         -13.376
REMARK INTER:                 -12.379
REMARK INTRA:                  -0.997
REMARK UNBOUND:                -0.997
REMARK  Name = 
REMARK  8 active torsions:
REMARK  status: ('A' for Active; 'I' for Inactive)
REMARK    1  A    between atoms: C_1  and  C_2
REMARK    2  A    between atoms: C_2  and  N_3
REMARK    3  A    between atoms: C_2  and  C_25
REMARK    4  A    between atoms: N_3  and  C_4
REMARK    5  A    between atoms: C_4  and  C_5
REMARK    6  A    between atoms: C_9  and  C_10
REMARK    7  A    between atoms: C_10  and  N_11
REMARK    8  A    between atoms: C_12  and  C_14
REMARK                            x       y       z     vdW  Elec       q    Type
REMARK                         _______ _______ _______ _____ _____    ______ ____
ROOT
ATOM      1  C   UNL     1      45.065   5.262  11.006  0.00  0.00    +0.000 A 
ATOM      2  C   UNL     1      46.006   6.229  10.663  0.00  0.00    +0.000 A 
ATOM      3  C   UNL     1      46.950   6.612  11.611  0.00  0.00    +0.000 A 
ATOM      4  C   UNL     1      46.934   6.018  12.870  0.00  0.00    +0.000 A 
ATOM      5  C   UNL     1      45.984   5.042  13.141  0.00  0.00    +0.000 A 
ATOM      6  N   UNL     1      45.055   4.666  12.227  0.00  0.00    +0.000 NA
ENDROOT
BRANCH   1   7
ATOM      7  C   UNL     1      44.020   4.812   9.999  0.00  0.00    +0.000 C 
BRANCH   7   8
ATOM      8  N   UNL     1      44.622   4.227   8.800  0.00  0.00    +0.000 NA
ATOM      9  H   UNL     1      45.266   4.897   8.383  0.00  0.00    +0.000 HD
BRANCH   8  11
ATOM     10  C   UNL     1      44.347   1.798   9.329  0.00  0.00    +0.000 C 
ATOM     11  C   UNL     1      45.310   2.955   9.024  0.00  0.00    +0.000 C 
BRANCH  11  12
ATOM     12  C   UNL     1      46.143   2.608   7.795  0.00  0.00    +0.000 A 
ATOM     13  C   UNL     1      46.751   1.350   7.675  0.00  0.00    +0.000 A 
ATOM     14  C   UNL     1      47.476   1.019   6.526  0.00  0.00    +0.000 A 
ATOM     15  C   UNL     1      47.602   1.941   5.488  0.00  0.00    +0.000 A 
ATOM     16  C   UNL     1      47.018   3.200   5.600  0.00  0.00    +0.000 A 
ATOM     17  C   UNL     1      46.300   3.533   6.748  0.00  0.00    +0.000 A 
ENDBRANCH  11  12
ENDBRANCH   8  11
ENDBRANCH   7   8
ENDBRANCH   1   7
BRANCH   5  18
ATOM     18  C   UNL     1      45.927   4.380  14.498  0.00  0.00    +0.000 C 
BRANCH  18  19
ATOM     19  N   UNL     1      47.134   4.622  15.260  0.00  0.00    +0.000 N 
ATOM     20  C   UNL     1      47.324   4.068  16.498  0.00  0.00    +0.000 C 
ATOM     21  O   UNL     1      46.523   3.276  16.988  0.00  0.00    +0.000 OA
ATOM     22  H   UNL     1      47.667   5.443  14.986  0.00  0.00    +0.000 HD
BRANCH  20  23
ATOM     23  C   UNL     1      48.573   4.405  17.192  0.00  0.00    +0.000 A 
ATOM     24  C   UNL     1      48.705   5.645  17.800  0.00  0.00    +0.000 A 
ATOM     25  S   UNL     1      50.205   5.871  18.580  0.00  0.00    +0.000 S 
ATOM     26  C   UNL     1      50.750   4.335  18.091  0.00  0.00    +0.000 A 
ATOM     27  N   UNL     1      52.002   3.907  18.403  0.00  0.00    +0.000 NA
ATOM     28  C   UNL     1      52.292   2.734  17.946  0.00  0.00    +0.000 A 
ATOM     29  N   UNL     1      51.440   1.947  17.216  0.00  0.00    +0.000 N 
ATOM     30  C   UNL     1      50.157   2.327  16.902  0.00  0.00    +0.000 A 
ATOM     31  O   UNL     1      49.400   1.584  16.289  0.00  0.00    +0.000 OA
ATOM     32  C   UNL     1      49.789   3.648  17.372  0.00  0.00    +0.000 A 
ATOM     33  H   UNL     1      51.720   1.028  16.905  0.00  0.00    +0.000 HD
ENDBRANCH  20  23
ENDBRANCH  18  19
ENDBRANCH   5  18
TORSDOF 7
ENDMDL
MODEL 2
REMARK VINA RESULT:    -8.647      1.902      2.688
REMARK INTER + INTRA:         -13.182
REMARK INTER:                 -11.963
REMARK INTRA:                  -1.219
REMARK UNBOUND:                -0.997
REMARK  Name = 
REMARK  8 active torsions:
REMARK  status: ('A' for Active; 'I' for Inactive)
REMARK    1  A    between atoms: C_1  and  C_2
REMARK    2  A    between atoms: C_2  and  N_3
REMARK    3  A    between atoms: C_2  and  C_25
REMARK    4  A    between atoms: N_3  and  C_4
REMARK    5  A    between atoms: C_4  and  C_5
REMARK    6  A    between atoms: C_9  and  C_10
REMARK    7  A    between atoms: C_10  and  N_11
REMARK    8  A    between atoms: C_12  and  C_14
REMARK                            x       y       z     vdW  Elec       q    Type
REMARK                         _______ _______ _______ _____ _____    ______ ____
ROOT
ATOM      1  C   UNL     1      44.085   4.896  10.551  0.00  0.00    +0.000 A 
ATOM      2  C   UNL     1      43.131   4.449  11.461  0.00  0.00    +0.000 A 
ATOM      3  C   UNL     1      43.191   4.907  12.774  0.00  0.00    +0.000 A 
ATOM      4  C   UNL     1      44.195   5.798  13.141  0.00  0.00    +0.000 A 
ATOM      5  C   UNL     1      45.101   6.225  12.179  0.00  0.00    +0.000 A 
ATOM      6  N   UNL     1      45.056   5.781  10.899  0.00  0.00    +0.000 NA
ENDROOT
BRANCH   1   7
ATOM      7  C   UNL     1      44.052   4.424   9.106  0.00  0.00    +0.000 C 
BRANCH   7   8
ATOM      8  N   UNL     1      45.391   4.143   8.586  0.00  0.00    +0.000 NA
ATOM      9  H   UNL     1      46.065   4.759   9.035  0.00  0.00    +0.000 HD
BRANCH   8  11
ATOM     10  C   UNL     1      44.673   1.809   9.128  0.00  0.00    +0.000 C 
ATOM     11  C   UNL     1      45.820   2.751   8.731  0.00  0.00    +0.000 C 
BRANCH  11  12
ATOM     12  C   UNL     1      46.436   2.274   7.421  0.00  0.00    +0.000 A 
ATOM     13  C   UNL     1      46.850   0.942   7.269  0.00  0.00    +0.000 A 
ATOM     14  C   UNL     1      47.373   0.497   6.051  0.00  0.00    +0.000 A 
ATOM     15  C   UNL     1      47.489   1.376   4.975  0.00  0.00    +0.000 A 
ATOM     16  C   UNL     1      47.096   2.705   5.116  0.00  0.00    +0.000 A 
ATOM     17  C   UNL     1      46.581   3.152   6.332  0.00  0.00    +0.000 A 
ENDBRANCH  11  12
ENDBRANCH   8  11
ENDBRANCH   7   8
ENDBRANCH   1   7
BRANCH   5  18
ATOM     18  C   UNL     1      46.210   7.185  12.540  0.00  0.00    +0.000 C 
BRANCH  18  19
ATOM     19  N   UNL     1      46.790   6.870  13.828  0.00  0.00    +0.000 N 
ATOM     20  C   UNL     1      48.098   6.483  13.951  0.00  0.00    +0.000 C 
ATOM     21  O   UNL     1      48.865   6.463  12.991  0.00  0.00    +0.000 OA
ATOM     22  H   UNL     1      46.125   6.646  14.564  0.00  0.00    +0.000 HD
BRANCH  20  23
ATOM     23  C   UNL     1      48.571   6.159  15.303  0.00  0.00    +0.000 A 
ATOM     24  C   UNL     1      49.571   6.929  15.880  0.00  0.00    +0.000 A 
ATOM     25  S   UNL     1      49.992   6.435  17.457  0.00  0.00    +0.000 S 
ATOM     26  C   UNL     1      48.884   5.145  17.406  0.00  0.00    +0.000 A 
ATOM     27  N   UNL     1      48.767   4.283  18.451  0.00  0.00    +0.000 NA
ATOM     28  C   UNL     1      47.908   3.336  18.266  0.00  0.00    +0.000 A 
ATOM     29  N   UNL     1      47.148   3.180  17.136  0.00  0.00    +0.000 N 
ATOM     30  C   UNL     1      47.213   4.043  16.069  0.00  0.00    +0.000 A 
ATOM     31  O   UNL     1      46.488   3.907  15.090  0.00  0.00    +0.000 OA
ATOM     32  C   UNL     1      48.181   5.112  16.216  0.00  0.00    +0.000 A 
ATOM     33  H   UNL     1      46.478   2.429  17.061  0.00  0.00    +0.000 HD
ENDBRANCH  20  23
ENDBRANCH  18  19
ENDBRANCH   5  18
TORSDOF 7
ENDMDL
MODEL 3
REMARK VINA RESULT:    -8.208      2.826      4.018
REMARK INTER + INTRA:         -12.563
REMARK INTER:                 -11.601
REMARK INTRA:                  -0.963
REMARK UNBOUND:                -0.997
REMARK  Name = 
REMARK  8 active torsions:
REMARK  status: ('A' for Active; 'I' for Inactive)
REMARK    1  A    between atoms: C_1  and  C_2
REMARK    2  A    between atoms: C_2  and  N_3
REMARK    3  A    between atoms: C_2  and  C_25
REMARK    4  A    between atoms: N_3  and  C_4
REMARK    5  A    between atoms: C_4  and  C_5
REMARK    6  A    between atoms: C_9  and  C_10
REMARK    7  A    between atoms: C_10  and  N_11
REMARK    8  A    between atoms: C_12  and  C_14
REMARK                            x       y       z     vdW  Elec       q    Type
REMARK                         _______ _______ _______ _____ _____    ______ ____
ROOT
ATOM      1  C   UNL     1      45.488   4.320  12.365  0.00  0.00    +0.000 A 
ATOM      2  C   UNL     1      45.904   5.514  11.783  0.00  0.00    +0.000 A 
ATOM      3  C   UNL     1      46.834   6.300  12.457  0.00  0.00    +0.000 A 
ATOM      4  C   UNL     1      47.326   5.873  13.687  0.00  0.00    +0.000 A 
ATOM      5  C   UNL     1      46.889   4.659  14.202  0.00  0.00    +0.000 A 
ATOM      6  N   UNL     1      45.978   3.888  13.557  0.00  0.00    +0.000 NA
ENDROOT
BRANCH   1   7
ATOM      7  C   UNL     1      44.477   3.431  11.660  0.00  0.00    +0.000 C 
BRANCH   7   8
ATOM      8  N   UNL     1      45.093   2.618  10.609  0.00  0.00    +0.000 NA
ATOM      9  H   UNL     1      44.996   1.632  10.844  0.00  0.00    +0.000 HD
BRANCH   8  11
ATOM     10  C   UNL     1      44.099   4.309   9.058  0.00  0.00    +0.000 C 
ATOM     11  C   UNL     1      44.567   2.862   9.266  0.00  0.00    +0.000 C 
BRANCH  11  12
ATOM     12  C   UNL     1      45.639   2.524   8.236  0.00  0.00    +0.000 A 
ATOM     13  C   UNL     1      46.090   3.495   7.329  0.00  0.00    +0.000 A 
ATOM     14  C   UNL     1      47.106   3.195   6.416  0.00  0.00    +0.000 A 
ATOM     15  C   UNL     1      47.680   1.924   6.399  0.00  0.00    +0.000 A 
ATOM     16  C   UNL     1      47.231   0.945   7.282  0.00  0.00    +0.000 A 
ATOM     17  C   UNL     1      46.213   1.242   8.189  0.00  0.00    +0.000 A 
ENDBRANCH  11  12
ENDBRANCH   8  11
ENDBRANCH   7   8
ENDBRANCH   1   7
BRANCH   5  18
ATOM     18  C   UNL     1      47.392   4.164  15.537  0.00  0.00    +0.000 C 
BRANCH  18  19
ATOM     19  N   UNL     1      47.352   5.206  16.541  0.00  0.00    +0.000 N 
ATOM     20  C   UNL     1      48.497   5.759  17.048  0.00  0.00    +0.000 C 
ATOM     21  O   UNL     1      49.609   5.461  16.620  0.00  0.00    +0.000 OA
ATOM     22  H   UNL     1      46.482   5.277  17.064  0.00  0.00    +0.000 HD
BRANCH  20  23
ATOM     23  C   UNL     1      48.338   6.788  18.083  0.00  0.00    +0.000 A 
ATOM     24  C   UNL     1      48.297   6.414  19.419  0.00  0.00    +0.000 A 
ATOM     25  S   UNL     1      48.129   7.728  20.493  0.00  0.00    +0.000 S 
ATOM     26  C   UNL     1      48.057   8.840  19.207  0.00  0.00    +0.000 A 
ATOM     27  N   UNL     1      47.877  10.167  19.441  0.00  0.00    +0.000 NA
ATOM     28  C   UNL     1      47.815  10.891  18.373  0.00  0.00    +0.000 A 
ATOM     29  N   UNL     1      47.928  10.410  17.094  0.00  0.00    +0.000 N 
ATOM     30  C   UNL     1      48.139   9.081  16.813  0.00  0.00    +0.000 A 
ATOM     31  O   UNL     1      48.283   8.685  15.662  0.00  0.00    +0.000 OA
ATOM     32  C   UNL     1      48.192   8.220  17.978  0.00  0.00    +0.000 A 
ATOM     33  H   UNL     1      47.892  11.032  16.300  0.00  0.00    +0.000 HD
ENDBRANCH  20  23
ENDBRANCH  18  19
ENDBRANCH   5  18
TORSDOF 7
ENDMDL
MODEL 4
REMARK VINA RESULT:    -8.107      1.944      2.443
REMARK INTER + INTRA:         -12.421
REMARK INTER:                 -11.269
REMARK INTRA:                  -1.153
REMARK UNBOUND:                -0.997
REMARK  Name = 
REMARK  8 active torsions:
REMARK  status: ('A' for Active; 'I' for Inactive)
REMARK    1  A    between atoms: C_1  and  C_2
REMARK    2  A    between atoms: C_2  and  N_3
REMARK    3  A    between atoms: C_2  and  C_25
REMARK    4  A    between atoms: N_3  and  C_4
REMARK    5  A    between atoms: C_4  and  C_5
REMARK    6  A    between atoms: C_9  and  C_10
REMARK    7  A    between atoms: C_10  and  N_11
REMARK    8  A    between atoms: C_12  and  C_14
REMARK                            x       y       z     vdW  Elec       q    Type
REMARK                         _______ _______ _______ _____ _____    ______ ____
ROOT
ATOM      1  C   UNL     1      44.967   5.213  10.923  0.00  0.00    +0.000 A 
ATOM      2  C   UNL     1      45.634   6.406  10.661  0.00  0.00    +0.000 A 
ATOM      3  C   UNL     1      46.614   6.836  11.552  0.00  0.00    +0.000 A 
ATOM      4  C   UNL     1      46.903   6.064  12.673  0.00  0.00    +0.000 A 
ATOM      5  C   UNL     1      46.218   4.871  12.864  0.00  0.00    +0.000 A 
ATOM      6  N   UNL     1      45.257   4.446  12.006  0.00  0.00    +0.000 NA
ENDROOT
BRANCH   1   7
ATOM      7  C   UNL     1      43.893   4.707   9.973  0.00  0.00    +0.000 C 
BRANCH   7   8
ATOM      8  N   UNL     1      44.462   4.098   8.770  0.00  0.00    +0.000 NA
ATOM      9  H   UNL     1      45.052   4.777   8.293  0.00  0.00    +0.000 HD
BRANCH   8  11
ATOM     10  C   UNL     1      44.321   1.663   9.323  0.00  0.00    +0.000 C 
ATOM     11  C   UNL     1      45.219   2.869   9.010  0.00  0.00    +0.000 C 
BRANCH  11  12
ATOM     12  C   UNL     1      46.077   2.558   7.788  0.00  0.00    +0.000 A 
ATOM     13  C   UNL     1      46.716   1.316   7.661  0.00  0.00    +0.000 A 
ATOM     14  C   UNL     1      47.464   1.017   6.518  0.00  0.00    +0.000 A 
ATOM     15  C   UNL     1      47.581   1.954   5.493  0.00  0.00    +0.000 A 
ATOM     16  C   UNL     1      46.965   3.197   5.612  0.00  0.00    +0.000 A 
ATOM     17  C   UNL     1      46.225   3.499   6.754  0.00  0.00    +0.000 A 
ENDBRANCH  11  12
ENDBRANCH   8  11
ENDBRANCH   7   8
ENDBRANCH   1   7
BRANCH   5  18
ATOM     18  C   UNL     1      46.497   4.008  14.073  0.00  0.00    +0.000 C 
BRANCH  18  19
ATOM     19  N   UNL     1      47.002   4.791  15.180  0.00  0.00    +0.000 N 
ATOM     20  C   UNL     1      47.767   4.228  16.167  0.00  0.00    +0.000 C 
ATOM     21  O   UNL     1      48.130   3.056  16.120  0.00  0.00    +0.000 OA
ATOM     22  H   UNL     1      46.515   5.667  15.355  0.00  0.00    +0.000 HD
BRANCH  20  23
ATOM     23  C   UNL     1      48.200   5.110  17.257  0.00  0.00    +0.000 A 
ATOM     24  C   UNL     1      47.805   4.835  18.558  0.00  0.00    +0.000 A 
ATOM     25  S   UNL     1      48.410   5.942  19.707  0.00  0.00    +0.000 S 
ATOM     26  C   UNL     1      49.183   6.856  18.498  0.00  0.00    +0.000 A 
ATOM     27  N   UNL     1      49.867   7.989  18.809  0.00  0.00    +0.000 NA
ATOM     28  C   UNL     1      50.381   8.597  17.792  0.00  0.00    +0.000 A 
ATOM     29  N   UNL     1      50.283   8.167  16.494  0.00  0.00    +0.000 N 
ATOM     30  C   UNL     1      49.627   7.014  16.137  0.00  0.00    +0.000 A 
ATOM     31  O   UNL     1      49.594   6.628  14.974  0.00  0.00    +0.000 OA
ATOM     32  C   UNL     1      49.010   6.306  17.241  0.00  0.00    +0.000 A 
ATOM     33  H   UNL     1      50.726   8.677  15.743  0.00  0.00    +0.000 HD
ENDBRANCH  20  23
ENDBRANCH  18  19
ENDBRANCH   5  18
TORSDOF 7
ENDMDL
MODEL 5
REMARK VINA RESULT:    -7.902      2.452      3.126
REMARK INTER + INTRA:         -12.133
REMARK INTER:                 -11.242
REMARK INTRA:                  -0.891
REMARK UNBOUND:                -0.997
REMARK  Name = 
REMARK  8 active torsions:
REMARK  status: ('A' for Active; 'I' for Inactive)
REMARK    1  A    between atoms: C_1  and  C_2
REMARK    2  A    between atoms: C_2  and  N_3
REMARK    3  A    between atoms: C_2  and  C_25
REMARK    4  A    between atoms: N_3  and  C_4
REMARK    5  A    between atoms: C_4  and  C_5
REMARK    6  A    between atoms: C_9  and  C_10
REMARK    7  A    between atoms: C_10  and  N_11
REMARK    8  A    between atoms: C_12  and  C_14
REMARK                            x       y       z     vdW  Elec       q    Type
REMARK                         _______ _______ _______ _____ _____    ______ ____
ROOT
ATOM      1  C   UNL     1      45.411   4.470  12.455  0.00  0.00    +0.000 A 
ATOM      2  C   UNL     1      45.925   5.619  11.863  0.00  0.00    +0.000 A 
ATOM      3  C   UNL     1      46.930   6.321  12.522  0.00  0.00    +0.000 A 
ATOM      4  C   UNL     1      47.397   5.856  13.748  0.00  0.00    +0.000 A 
ATOM      5  C   UNL     1      46.860   4.689  14.274  0.00  0.00    +0.000 A 
ATOM      6  N   UNL     1      45.875   4.000  13.644  0.00  0.00    +0.000 NA
ENDROOT
BRANCH   1   7
ATOM      7  C   UNL     1      44.316   3.671  11.767  0.00  0.00    +0.000 C 
BRANCH   7   8
ATOM      8  N   UNL     1      44.854   2.719  10.794  0.00  0.00    +0.000 NA
ATOM      9  H   UNL     1      44.613   1.772  11.079  0.00  0.00    +0.000 HD
BRANCH   8  11
ATOM     10  C   UNL     1      44.004   4.402   9.151  0.00  0.00    +0.000 C 
ATOM     11  C   UNL     1      44.419   2.947   9.416  0.00  0.00    +0.000 C 
BRANCH  11  12
ATOM     12  C   UNL     1      45.542   2.559   8.461  0.00  0.00    +0.000 A 
ATOM     13  C   UNL     1      46.001   1.236   8.397  0.00  0.00    +0.000 A 
ATOM     14  C   UNL     1      47.000   0.875   7.487  0.00  0.00    +0.000 A 
ATOM     15  C   UNL     1      47.549   1.831   6.634  0.00  0.00    +0.000 A 
ATOM     16  C   UNL     1      47.114   3.153   6.697  0.00  0.00    +0.000 A 
ATOM     17  C   UNL     1      46.123   3.515   7.609  0.00  0.00    +0.000 A 
ENDBRANCH  11  12
ENDBRANCH   8  11
ENDBRANCH   7   8
ENDBRANCH   1   7
BRANCH   5  18
ATOM     18  C   UNL     1      47.333   4.156  15.606  0.00  0.00    +0.000 C 
BRANCH  18  19
ATOM     19  N   UNL     1      47.446   5.210  16.591  0.00  0.00    +0.000 N 
ATOM     20  C   UNL     1      48.648   5.536  17.159  0.00  0.00    +0.000 C 
ATOM     21  O   UNL     1      49.701   5.011  16.803  0.00  0.00    +0.000 OA
ATOM     22  H   UNL     1      46.580   5.466  17.059  0.00  0.00    +0.000 HD
BRANCH  20  23
ATOM     23  C   UNL     1      48.640   6.601  18.169  0.00  0.00    +0.000 A 
ATOM     24  C   UNL     1      48.556   7.926  17.765  0.00  0.00    +0.000 A 
ATOM     25  S   UNL     1      48.537   9.037  19.059  0.00  0.00    +0.000 S 
ATOM     26  C   UNL     1      48.689   7.788  20.204  0.00  0.00    +0.000 A 
ATOM     27  N   UNL     1      48.772   8.065  21.533  0.00  0.00    +0.000 NA
ATOM     28  C   UNL     1      48.912   7.024  22.285  0.00  0.00    +0.000 A 
ATOM     29  N   UNL     1      48.963   5.732  21.830  0.00  0.00    +0.000 N 
ATOM     30  C   UNL     1      48.854   5.404  20.500  0.00  0.00    +0.000 A 
ATOM     31  O   UNL     1      48.857   4.237  20.125  0.00  0.00    +0.000 OA
ATOM     32  C   UNL     1      48.720   6.540  19.609  0.00  0.00    +0.000 A 
ATOM     33  H   UNL     1      49.053   4.958  22.472  0.00  0.00    +0.000 HD
ENDBRANCH  20  23
ENDBRANCH  18  19
ENDBRANCH   5  18
TORSDOF 7
ENDMDL
MODEL 6
REMARK VINA RESULT:    -7.699      3.463      8.881
REMARK INTER + INTRA:         -11.846
REMARK INTER:                 -10.702
REMARK INTRA:                  -1.144
REMARK UNBOUND:                -0.997
REMARK  Name = 
REMARK  8 active torsions:
REMARK  status: ('A' for Active; 'I' for Inactive)
REMARK    1  A    between atoms: C_1  and  C_2
REMARK    2  A    between atoms: C_2  and  N_3
REMARK    3  A    between atoms: C_2  and  C_25
REMARK    4  A    between atoms: N_3  and  C_4
REMARK    5  A    between atoms: C_4  and  C_5
REMARK    6  A    between atoms: C_9  and  C_10
REMARK    7  A    between atoms: C_10  and  N_11
REMARK    8  A    between atoms: C_12  and  C_14
REMARK                            x       y       z     vdW  Elec       q    Type
REMARK                         _______ _______ _______ _____ _____    ______ ____
ROOT
ATOM      1  C   UNL     1      49.379   7.109  15.124  0.00  0.00    +0.000 A 
ATOM      2  C   UNL     1      50.664   7.641  15.071  0.00  0.00    +0.000 A 
ATOM      3  C   UNL     1      51.072   8.297  13.913  0.00  0.00    +0.000 A 
ATOM      4  C   UNL     1      50.187   8.408  12.844  0.00  0.00    +0.000 A 
ATOM      5  C   UNL     1      48.910   7.877  12.969  0.00  0.00    +0.000 A 
ATOM      6  N   UNL     1      48.504   7.230  14.090  0.00  0.00    +0.000 NA
ENDROOT
BRANCH   1   7
ATOM      7  C   UNL     1      48.893   6.389  16.371  0.00  0.00    +0.000 C 
BRANCH   7   8
ATOM      8  N   UNL     1      48.754   4.948  16.159  0.00  0.00    +0.000 NA
ATOM      9  H   UNL     1      49.490   4.626  15.534  0.00  0.00    +0.000 HD
BRANCH   8  11
ATOM     10  C   UNL     1      47.623   3.119  17.437  0.00  0.00    +0.000 C 
ATOM     11  C   UNL     1      48.761   4.149  17.385  0.00  0.00    +0.000 C 
BRANCH  11  12
ATOM     12  C   UNL     1      50.100   3.430  17.511  0.00  0.00    +0.000 A 
ATOM     13  C   UNL     1      51.246   4.121  17.930  0.00  0.00    +0.000 A 
ATOM     14  C   UNL     1      52.461   3.448  18.089  0.00  0.00    +0.000 A 
ATOM     15  C   UNL     1      52.544   2.081  17.830  0.00  0.00    +0.000 A 
ATOM     16  C   UNL     1      51.418   1.384  17.397  0.00  0.00    +0.000 A 
ATOM     17  C   UNL     1      50.207   2.056  17.232  0.00  0.00    +0.000 A 
ENDBRANCH  11  12
ENDBRANCH   8  11
ENDBRANCH   7   8
ENDBRANCH   1   7
BRANCH   5  18
ATOM     18  C   UNL     1      47.924   7.970  11.829  0.00  0.00    +0.000 C 
BRANCH  18  19
ATOM     19  N   UNL     1      47.134   6.763  11.708  0.00  0.00    +0.000 N 
ATOM     20  C   UNL     1      45.766   6.792  11.758  0.00  0.00    +0.000 C 
ATOM     21  O   UNL     1      45.139   7.846  11.823  0.00  0.00    +0.000 OA
ATOM     22  H   UNL     1      47.629   5.896  11.902  0.00  0.00    +0.000 HD
BRANCH  20  23
ATOM     23  C   UNL     1      45.069   5.504  11.654  0.00  0.00    +0.000 A 
ATOM     24  C   UNL     1      44.378   5.010  12.751  0.00  0.00    +0.000 A 
ATOM     25  S   UNL     1      43.607   3.516  12.460  0.00  0.00    +0.000 S 
ATOM     26  C   UNL     1      44.211   3.454  10.870  0.00  0.00    +0.000 A 
ATOM     27  N   UNL     1      43.948   2.391  10.065  0.00  0.00    +0.000 NA
ATOM     28  C   UNL     1      44.490   2.464   8.894  0.00  0.00    +0.000 A 
ATOM     29  N   UNL     1      45.260   3.509   8.453  0.00  0.00    +0.000 N 
ATOM     30  C   UNL     1      45.527   4.616   9.222  0.00  0.00    +0.000 A 
ATOM     31  O   UNL     1      46.180   5.557   8.786  0.00  0.00    +0.000 OA
ATOM     32  C   UNL     1      44.961   4.573  10.556  0.00  0.00    +0.000 A 
ATOM     33  H   UNL     1      45.640   3.516   7.518  0.00  0.00    +0.000 HD
ENDBRANCH  20  23
ENDBRANCH  18  19
ENDBRANCH   5  18
TORSDOF 7
ENDMDL
MODEL 7
REMARK VINA RESULT:    -7.662      3.940      7.201
REMARK INTER + INTRA:         -11.794
REMARK INTER:                 -10.123
REMARK INTRA:                  -1.671
REMARK UNBOUND:                -0.997
REMARK  Name = 
REMARK  8 active torsions:
REMARK  status: ('A' for Active; 'I' for Inactive)
REMARK    1  A    between atoms: C_1  and  C_2
REMARK    2  A    between atoms: C_2  and  N_3
REMARK    3  A    between atoms: C_2  and  C_25
REMARK    4  A    between atoms: N_3  and  C_4
REMARK    5  A    between atoms: C_4  and  C_5
REMARK    6  A    between atoms: C_9  and  C_10
REMARK    7  A    between atoms: C_10  and  N_11
REMARK    8  A    between atoms: C_12  and  C_14
REMARK                            x       y       z     vdW  Elec       q    Type
REMARK                         _______ _______ _______ _____ _____    ______ ____
ROOT
ATOM      1  C   UNL     1      47.074   4.713  14.340  0.00  0.00    +0.000 A 
ATOM      2  C   UNL     1      47.267   4.225  15.629  0.00  0.00    +0.000 A 
ATOM      3  C   UNL     1      48.076   4.944  16.504  0.00  0.00    +0.000 A 
ATOM      4  C   UNL     1      48.665   6.129  16.072  0.00  0.00    +0.000 A 
ATOM      5  C   UNL     1      48.412   6.575  14.781  0.00  0.00    +0.000 A 
ATOM      6  N   UNL     1      47.631   5.879  13.918  0.00  0.00    +0.000 NA
ENDROOT
BRANCH   1   7
ATOM      7  C   UNL     1      46.194   3.961  13.355  0.00  0.00    +0.000 C 
BRANCH   7   8
ATOM      8  N   UNL     1      45.294   4.854  12.622  0.00  0.00    +0.000 NA
ATOM      9  H   UNL     1      45.831   5.396  11.949  0.00  0.00    +0.000 HD
BRANCH   8  11
ATOM     10  C   UNL     1      42.917   5.040  11.870  0.00  0.00    +0.000 C 
ATOM     11  C   UNL     1      44.187   4.180  11.945  0.00  0.00    +0.000 C 
BRANCH  11  12
ATOM     12  C   UNL     1      44.619   3.792  10.535  0.00  0.00    +0.000 A 
ATOM     13  C   UNL     1      45.188   4.742   9.674  0.00  0.00    +0.000 A 
ATOM     14  C   UNL     1      45.625   4.372   8.399  0.00  0.00    +0.000 A 
ATOM     15  C   UNL     1      45.498   3.052   7.970  0.00  0.00    +0.000 A 
ATOM     16  C   UNL     1      44.921   2.100   8.808  0.00  0.00    +0.000 A 
ATOM     17  C   UNL     1      44.478   2.470  10.078  0.00  0.00    +0.000 A 
ENDBRANCH  11  12
ENDBRANCH   8  11
ENDBRANCH   7   8
ENDBRANCH   1   7
BRANCH   5  18
ATOM     18  C   UNL     1      49.039   7.851  14.271  0.00  0.00    +0.000 C 
BRANCH  18  19
ATOM     19  N   UNL     1      48.040   8.781  13.791  0.00  0.00    +0.000 N 
ATOM     20  C   UNL     1      47.938   9.103  12.464  0.00  0.00    +0.000 C 
ATOM     21  O   UNL     1      48.631   8.561  11.607  0.00  0.00    +0.000 OA
ATOM     22  H   UNL     1      47.646   9.401  14.494  0.00  0.00    +0.000 HD
BRANCH  20  23
ATOM     23  C   UNL     1      46.906  10.080  12.094  0.00  0.00    +0.000 A 
ATOM     24  C   UNL     1      47.187  11.436  12.175  0.00  0.00    +0.000 A 
ATOM     25  S   UNL     1      45.891  12.435  11.691  0.00  0.00    +0.000 S 
ATOM     26  C   UNL     1      44.892  11.088  11.402  0.00  0.00    +0.000 A 
ATOM     27  N   UNL     1      43.605  11.249  10.993  0.00  0.00    +0.000 NA
ATOM     28  C   UNL     1      42.955  10.144  10.838  0.00  0.00    +0.000 A 
ATOM     29  N   UNL     1      43.478   8.893  11.042  0.00  0.00    +0.000 N 
ATOM     30  C   UNL     1      44.780   8.683  11.427  0.00  0.00    +0.000 A 
ATOM     31  O   UNL     1      45.236   7.553  11.558  0.00  0.00    +0.000 OA
ATOM     32  C   UNL     1      45.548   9.895  11.639  0.00  0.00    +0.000 A 
ATOM     33  H   UNL     1      42.923   8.066  10.883  0.00  0.00    +0.000 HD
ENDBRANCH  20  23
ENDBRANCH  18  19
ENDBRANCH   5  18
TORSDOF 7
ENDMDL
MODEL 8
REMARK VINA RESULT:    -7.586      2.411      3.401
REMARK INTER + INTRA:         -11.687
REMARK INTER:                 -10.070
REMARK INTRA:                  -1.617
REMARK UNBOUND:                -0.997
REMARK  Name = 
REMARK  8 active torsions:
REMARK  status: ('A' for Active; 'I' for Inactive)
REMARK    1  A    between atoms: C_1  and  C_2
REMARK    2  A    between atoms: C_2  and  N_3
REMARK    3  A    between atoms: C_2  and  C_25
REMARK    4  A    between atoms: N_3  and  C_4
REMARK    5  A    between atoms: C_4  and  C_5
REMARK    6  A    between atoms: C_9  and  C_10
REMARK    7  A    between atoms: C_10  and  N_11
REMARK    8  A    between atoms: C_12  and  C_14
REMARK                            x       y       z     vdW  Elec       q    Type
REMARK                         _______ _______ _______ _____ _____    ______ ____
ROOT
ATOM      1  C   UNL     1      45.079   7.128  12.540  0.00  0.00    +0.000 A 
ATOM      2  C   UNL     1      44.530   8.045  11.648  0.00  0.00    +0.000 A 
ATOM      3  C   UNL     1      45.155   9.277  11.484  0.00  0.00    +0.000 A 
ATOM      4  C   UNL     1      46.310   9.559  12.209  0.00  0.00    +0.000 A 
ATOM      5  C   UNL     1      46.821   8.592  13.064  0.00  0.00    +0.000 A 
ATOM      6  N   UNL     1      46.216   7.390  13.237  0.00  0.00    +0.000 NA
ENDROOT
BRANCH   1   7
ATOM      7  C   UNL     1      44.429   5.769  12.746  0.00  0.00    +0.000 C 
BRANCH   7   8
ATOM      8  N   UNL     1      45.338   4.667  12.423  0.00  0.00    +0.000 NA
ATOM      9  H   UNL     1      45.789   4.341  13.276  0.00  0.00    +0.000 HD
BRANCH   8  11
ATOM     10  C   UNL     1      43.174   3.573  11.812  0.00  0.00    +0.000 C 
ATOM     11  C   UNL     1      44.707   3.541  11.736  0.00  0.00    +0.000 C 
BRANCH  11  12
ATOM     12  C   UNL     1      45.140   3.535  10.274  0.00  0.00    +0.000 A 
ATOM     13  C   UNL     1      45.102   2.352   9.521  0.00  0.00    +0.000 A 
ATOM     14  C   UNL     1      45.457   2.361   8.169  0.00  0.00    +0.000 A 
ATOM     15  C   UNL     1      45.853   3.548   7.555  0.00  0.00    +0.000 A 
ATOM     16  C   UNL     1      45.911   4.728   8.294  0.00  0.00    +0.000 A 
ATOM     17  C   UNL     1      45.564   4.719   9.645  0.00  0.00    +0.000 A 
ENDBRANCH  11  12
ENDBRANCH   8  11
ENDBRANCH   7   8
ENDBRANCH   1   7
BRANCH   5  18
ATOM     18  C   UNL     1      48.067   8.862  13.875  0.00  0.00    +0.000 C 
BRANCH  18  19
ATOM     19  N   UNL     1      48.160   7.979  15.018  0.00  0.00    +0.000 N 
ATOM     20  C   UNL     1      49.311   7.295  15.305  0.00  0.00    +0.000 C 
ATOM     21  O   UNL     1      50.344   7.458  14.659  0.00  0.00    +0.000 OA
ATOM     22  H   UNL     1      47.273   7.656  15.394  0.00  0.00    +0.000 HD
BRANCH  20  23
ATOM     23  C   UNL     1      49.283   6.406  16.473  0.00  0.00    +0.000 A 
ATOM     24  C   UNL     1      50.048   6.716  17.587  0.00  0.00    +0.000 A 
ATOM     25  S   UNL     1      49.888   5.595  18.862  0.00  0.00    +0.000 S 
ATOM     26  C   UNL     1      48.826   4.628  17.950  0.00  0.00    +0.000 A 
ATOM     27  N   UNL     1      48.331   3.467  18.454  0.00  0.00    +0.000 NA
ATOM     28  C   UNL     1      47.559   2.821  17.644  0.00  0.00    +0.000 A 
ATOM     29  N   UNL     1      47.227   3.240  16.382  0.00  0.00    +0.000 N 
ATOM     30  C   UNL     1      47.680   4.420  15.843  0.00  0.00    +0.000 A 
ATOM     31  O   UNL     1      47.330   4.792  14.729  0.00  0.00    +0.000 OA
ATOM     32  C   UNL     1      48.572   5.171  16.704  0.00  0.00    +0.000 A 
ATOM     33  H   UNL     1      46.600   2.699  15.804  0.00  0.00    +0.000 HD
ENDBRANCH  20  23
ENDBRANCH  18  19
ENDBRANCH   5  18
TORSDOF 7
ENDMDL
MODEL 9
REMARK VINA RESULT:    -7.429      4.079      8.283
REMARK INTER + INTRA:         -11.466
REMARK INTER:                 -10.219
REMARK INTRA:                  -1.247
REMARK UNBOUND:                -0.997
REMARK  Name = 
REMARK  8 active torsions:
REMARK  status: ('A' for Active; 'I' for Inactive)
REMARK    1  A    between atoms: C_1  and  C_2
REMARK    2  A    between atoms: C_2  and  N_3
REMARK    3  A    between atoms: C_2  and  C_25
REMARK    4  A    between atoms: N_3  and  C_4
REMARK    5  A    between atoms: C_4  and  C_5
REMARK    6  A    between atoms: C_9  and  C_10
REMARK    7  A    between atoms: C_10  and  N_11
REMARK    8  A    between atoms: C_12  and  C_14
REMARK                            x       y       z     vdW  Elec       q    Type
REMARK                         _______ _______ _______ _____ _____    ______ ____
ROOT
ATOM      1  C   UNL     1      50.489   5.360  16.940  0.00  0.00    +0.000 A 
ATOM      2  C   UNL     1      51.395   4.442  17.464  0.00  0.00    +0.000 A 
ATOM      3  C   UNL     1      50.954   3.153  17.748  0.00  0.00    +0.000 A 
ATOM      4  C   UNL     1      49.628   2.814  17.499  0.00  0.00    +0.000 A 
ATOM      5  C   UNL     1      48.780   3.769  16.952  0.00  0.00    +0.000 A 
ATOM      6  N   UNL     1      49.197   5.030  16.677  0.00  0.00    +0.000 NA
ENDROOT
BRANCH   1   7
ATOM      7  C   UNL     1      50.931   6.777  16.611  0.00  0.00    +0.000 C 
BRANCH   7   8
ATOM      8  N   UNL     1      50.911   7.043  15.172  0.00  0.00    +0.000 NA
ATOM      9  H   UNL     1      49.967   6.905  14.816  0.00  0.00    +0.000 HD
BRANCH   8  11
ATOM     10  C   UNL     1      52.881   8.381  14.411  0.00  0.00    +0.000 C 
ATOM     11  C   UNL     1      51.393   8.370  14.791  0.00  0.00    +0.000 C 
BRANCH  11  12
ATOM     12  C   UNL     1      50.568   8.891  13.620  0.00  0.00    +0.000 A 
ATOM     13  C   UNL     1      50.241  10.252  13.525  0.00  0.00    +0.000 A 
ATOM     14  C   UNL     1      49.524  10.733  12.425  0.00  0.00    +0.000 A 
ATOM     15  C   UNL     1      49.126   9.862  11.412  0.00  0.00    +0.000 A 
ATOM     16  C   UNL     1      49.429   8.506  11.501  0.00  0.00    +0.000 A 
ATOM     17  C   UNL     1      50.139   8.023  12.600  0.00  0.00    +0.000 A 
ENDBRANCH  11  12
ENDBRANCH   8  11
ENDBRANCH   7   8
ENDBRANCH   1   7
BRANCH   5  18
ATOM     18  C   UNL     1      47.331   3.444  16.675  0.00  0.00    +0.000 C 
BRANCH  18  19
ATOM     19  N   UNL     1      46.741   4.388  15.750  0.00  0.00    +0.000 N 
ATOM     20  C   UNL     1      46.756   4.173  14.398  0.00  0.00    +0.000 C 
ATOM     21  O   UNL     1      47.195   3.136  13.908  0.00  0.00    +0.000 OA
ATOM     22  H   UNL     1      46.608   5.329  16.111  0.00  0.00    +0.000 HD
BRANCH  20  23
ATOM     23  C   UNL     1      46.154   5.212  13.553  0.00  0.00    +0.000 A 
ATOM     24  C   UNL     1      46.825   6.410  13.357  0.00  0.00    +0.000 A 
ATOM     25  S   UNL     1      46.001   7.499  12.336  0.00  0.00    +0.000 S 
ATOM     26  C   UNL     1      44.694   6.425  12.156  0.00  0.00    +0.000 A 
ATOM     27  N   UNL     1      43.606   6.767  11.416  0.00  0.00    +0.000 NA
ATOM     28  C   UNL     1      42.679   5.868  11.387  0.00  0.00    +0.000 A 
ATOM     29  N   UNL     1      42.747   4.654  12.021  0.00  0.00    +0.000 N 
ATOM     30  C   UNL     1      43.838   4.255  12.755  0.00  0.00    +0.000 A 
ATOM     31  O   UNL     1      43.892   3.146  13.272  0.00  0.00    +0.000 OA
ATOM     32  C   UNL     1      44.899   5.240  12.839  0.00  0.00    +0.000 A 
ATOM     33  H   UNL     1      41.996   3.985  11.943  0.00  0.00    +0.000 HD
ENDBRANCH  20  23
ENDBRANCH  18  19
ENDBRANCH   5  18
TORSDOF 7
ENDMDL
