MODEL 1
REMARK VINA RESULT:    -7.162      0.000      0.000
REMARK INTER + INTRA:          -9.900
REMARK INTER:                  -9.256
REMARK INTRA:                  -0.644
REMARK UNBOUND:                -0.644
REMARK  Name = 
REMARK  7 active torsions:
REMARK  status: ('A' for Active; 'I' for Inactive)
REMARK    1  A    between atoms: C_1  and  C_2
REMARK    2  A    between atoms: C_6  and  C_7
REMARK    3  A    between atoms: C_7  and  C_8
REMARK    4  A    between atoms: C_11  and  C_12
REMARK    5  A    between atoms: C_12  and  N_13
REMARK    6  A    between atoms: N_13  and  C_14
REMARK    7  A    between atoms: C_15  and  C_17
REMARK                            x       y       z     vdW  Elec       q    Type
REMARK                         _______ _______ _______ _____ _____    ______ ____
ROOT
ATOM      1  C   UNL     1      48.852   6.533  14.579  0.00  0.00    +0.000 C 
ENDROOT
BRANCH   1   5
ATOM      2  C   UNL     1      45.337   5.967  12.168  0.00  0.00    +0.000 A 
ATOM      3  C   UNL     1      45.806   7.261  12.349  0.00  0.00    +0.000 A 
ATOM      4  C   UNL     1      46.897   7.482  13.192  0.00  0.00    +0.000 A 
ATOM      5  C   UNL     1      47.556   6.407  13.798  0.00  0.00    +0.000 A 
ATOM      6  C   UNL     1      46.940   5.166  13.650  0.00  0.00    +0.000 A 
ATOM      7  N   UNL     1      45.854   4.923  12.863  0.00  0.00    +0.000 NA
BRANCH   2   8
ATOM      8  C   UNL     1      44.282   5.712  11.106  0.00  0.00    +0.000 C 
BRANCH   8  14
ATOM      9  C   UNL     1      46.665   3.870   7.071  0.00  0.00    +0.000 C 
ATOM     10  C   UNL     1      45.760   3.641   8.243  0.00  0.00    +0.000 A 
ATOM     11  C   UNL     1      45.223   2.375   8.498  0.00  0.00    +0.000 A 
ATOM     12  C   UNL     1      44.359   2.186   9.573  0.00  0.00    +0.000 A 
ATOM     13  C   UNL     1      44.027   3.260  10.406  0.00  0.00    +0.000 A 
ATOM     14  C   UNL     1      44.575   4.536  10.188  0.00  0.00    +0.000 A 
ATOM     15  C   UNL     1      45.443   4.708   9.098  0.00  0.00    +0.000 A 
ENDBRANCH   8  14
ENDBRANCH   2   8
ENDBRANCH   1   5
BRANCH   1  16
ATOM     16  N   UNL     1      48.726   6.696  16.038  0.00  0.00    +0.000 N 
ATOM     17  C   UNL     1      48.866   8.003  16.650  0.00  0.00    +0.000 C 
ATOM     18  C   UNL     1      48.660   5.520  16.830  0.00  0.00    +0.000 C 
ATOM     19  O   UNL     1      48.724   4.413  16.349  0.00  0.00    +0.000 OA
BRANCH  18  20
ATOM     20  C   UNL     1      48.492   5.725  18.289  0.00  0.00    +0.000 A 
ATOM     21  C   UNL     1      47.318   6.103  18.897  0.00  0.00    +0.000 A 
ATOM     22  S   UNL     1      47.386   6.120  20.595  0.00  0.00    +0.000 S 
ATOM     23  C   UNL     1      49.000   5.588  20.570  0.00  0.00    +0.000 A 
ATOM     24  N   UNL     1      49.646   5.276  21.717  0.00  0.00    +0.000 NA
ATOM     25  C   UNL     1      50.856   4.827  21.539  0.00  0.00    +0.000 A 
ATOM     26  N   UNL     1      51.475   4.707  20.324  0.00  0.00    +0.000 N 
ATOM     27  C   UNL     1      50.873   5.063  19.141  0.00  0.00    +0.000 A 
ATOM     28  O   UNL     1      51.495   5.017  18.070  0.00  0.00    +0.000 OA
ATOM     29  C   UNL     1      49.497   5.483  19.280  0.00  0.00    +0.000 A 
ATOM     30  H   UNL     1      52.422   4.370  20.253  0.00  0.00    +0.000 HD
ENDBRANCH  18  20
ENDBRANCH   1  16
TORSDOF 5
ENDMDL
MODEL 2
REMARK VINA RESULT:    -7.120      1.743      2.087
REMARK INTER + INTRA:          -9.845
REMARK INTER:                  -8.980
REMARK INTRA:                  -0.866
REMARK UNBOUND:                -0.644
REMARK  Name = 
REMARK  7 active torsions:
REMARK  status: ('A' for Active; 'I' for Inactive)
REMARK    1  A    between atoms: C_1  and  C_2
REMARK    2  A    between atoms: C_6  and  C_7
REMARK    3  A    between atoms: C_7  and  C_8
REMARK    4  A    between atoms: C_11  and  C_12
REMARK    5  A    between atoms: C_12  and  N_13
REMARK    6  A    between atoms: N_13  and  C_14
REMARK    7  A    between atoms: C_15  and  C_17
REMARK                            x       y       z     vdW  Elec       q    Type
REMARK                         _______ _______ _______ _____ _____    ______ ____
ROOT
ATOM      1  C   UNL     1      48.919   7.290  13.862  0.00  0.00    +0.000 C 
ENDROOT
BRANCH   1   5
ATOM      2  C   UNL     1      45.296   6.094  11.879  0.00  0.00    +0.000 A 
ATOM      3  C   UNL     1      45.728   7.404  11.721  0.00  0.00    +0.000 A 
ATOM      4  C   UNL     1      46.856   7.841  12.418  0.00  0.00    +0.000 A 
ATOM      5  C   UNL     1      47.586   6.955  13.216  0.00  0.00    +0.000 A 
ATOM      6  C   UNL     1      47.008   5.701  13.403  0.00  0.00    +0.000 A 
ATOM      7  N   UNL     1      45.889   5.256  12.766  0.00  0.00    +0.000 NA
BRANCH   2   8
ATOM      8  C   UNL     1      44.192   5.572  10.976  0.00  0.00    +0.000 C 
BRANCH   8  14
ATOM      9  C   UNL     1      46.683   3.868   6.946  0.00  0.00    +0.000 C 
ATOM     10  C   UNL     1      45.833   3.581   8.146  0.00  0.00    +0.000 A 
ATOM     11  C   UNL     1      45.445   2.273   8.453  0.00  0.00    +0.000 A 
ATOM     12  C   UNL     1      44.628   2.026   9.553  0.00  0.00    +0.000 A 
ATOM     13  C   UNL     1      44.196   3.085  10.359  0.00  0.00    +0.000 A 
ATOM     14  C   UNL     1      44.595   4.406  10.088  0.00  0.00    +0.000 A 
ATOM     15  C   UNL     1      45.417   4.634   8.974  0.00  0.00    +0.000 A 
ENDBRANCH   8  14
ENDBRANCH   2   8
ENDBRANCH   1   5
BRANCH   1  16
ATOM     16  N   UNL     1      48.885   7.649  15.291  0.00  0.00    +0.000 N 
ATOM     17  C   UNL     1      48.109   8.785  15.748  0.00  0.00    +0.000 C 
ATOM     18  C   UNL     1      49.779   6.974  16.162  0.00  0.00    +0.000 C 
ATOM     19  O   UNL     1      50.565   6.146  15.765  0.00  0.00    +0.000 OA
BRANCH  18  20
ATOM     20  C   UNL     1      49.686   7.333  17.597  0.00  0.00    +0.000 A 
ATOM     21  C   UNL     1      50.383   8.357  18.196  0.00  0.00    +0.000 A 
ATOM     22  S   UNL     1      49.966   8.627  19.820  0.00  0.00    +0.000 S 
ATOM     23  C   UNL     1      48.806   7.385  19.765  0.00  0.00    +0.000 A 
ATOM     24  N   UNL     1      47.983   7.158  20.814  0.00  0.00    +0.000 NA
ATOM     25  C   UNL     1      47.107   6.216  20.607  0.00  0.00    +0.000 A 
ATOM     26  N   UNL     1      47.021   5.467  19.465  0.00  0.00    +0.000 N 
ATOM     27  C   UNL     1      47.871   5.631  18.398  0.00  0.00    +0.000 A 
ATOM     28  O   UNL     1      47.814   4.878  17.415  0.00  0.00    +0.000 OA
ATOM     29  C   UNL     1      48.803   6.725  18.547  0.00  0.00    +0.000 A 
ATOM     30  H   UNL     1      46.332   4.737  19.371  0.00  0.00    +0.000 HD
ENDBRANCH  18  20
ENDBRANCH   1  16
TORSDOF 5
ENDMDL
MODEL 3
REMARK VINA RESULT:    -7.072      2.511      4.398
REMARK INTER + INTRA:          -9.784
REMARK INTER:                 -10.425
REMARK INTRA:                   0.641
REMARK UNBOUND:                -0.644
REMARK  Name = 
REMARK  7 active torsions:
REMARK  status: ('A' for Active; 'I' for Inactive)
REMARK    1  A    between atoms: C_1  and  C_2
REMARK    2  A    between atoms: C_6  and  C_7
REMARK    3  A    between atoms: C_7  and  C_8
REMARK    4  A    between atoms: C_11  and  C_12
REMARK    5  A    between atoms: C_12  and  N_13
REMARK    6  A    between atoms: N_13  and  C_14
REMARK    7  A    between atoms: C_15  and  C_17
REMARK                            x       y       z     vdW  Elec       q    Type
REMARK                         _______ _______ _______ _____ _____    ______ ____
ROOT
ATOM      1  C   UNL     1      44.848   4.366  12.492  0.00  0.00    +0.000 C 
ENDROOT
BRANCH   1   5
ATOM      2  C   UNL     1      45.835   4.130   8.314  0.00  0.00    +0.000 A 
ATOM      3  C   UNL     1      45.905   5.369   8.935  0.00  0.00    +0.000 A 
ATOM      4  C   UNL     1      45.512   5.490  10.269  0.00  0.00    +0.000 A 
ATOM      5  C   UNL     1      45.115   4.363  10.997  0.00  0.00    +0.000 A 
ATOM      6  C   UNL     1      44.966   3.193  10.256  0.00  0.00    +0.000 A 
ATOM      7  N   UNL     1      45.306   3.052   8.945  0.00  0.00    +0.000 NA
BRANCH   2   8
ATOM      8  C   UNL     1      46.442   3.968   6.932  0.00  0.00    +0.000 C 
BRANCH   8  14
ATOM      9  C   UNL     1      46.824   0.565   3.240  0.00  0.00    +0.000 C 
ATOM     10  C   UNL     1      46.888   0.885   4.703  0.00  0.00    +0.000 A 
ATOM     11  C   UNL     1      47.178  -0.109   5.643  0.00  0.00    +0.000 A 
ATOM     12  C   UNL     1      47.202   0.199   7.000  0.00  0.00    +0.000 A 
ATOM     13  C   UNL     1      46.941   1.504   7.430  0.00  0.00    +0.000 A 
ATOM     14  C   UNL     1      46.674   2.527   6.504  0.00  0.00    +0.000 A 
ATOM     15  C   UNL     1      46.652   2.198   5.141  0.00  0.00    +0.000 A 
ENDBRANCH   8  14
ENDBRANCH   2   8
ENDBRANCH   1   5
BRANCH   1  16
ATOM     16  N   UNL     1      45.771   5.159  13.323  0.00  0.00    +0.000 N 
ATOM     17  C   UNL     1      45.671   6.605  13.361  0.00  0.00    +0.000 C 
ATOM     18  C   UNL     1      46.867   4.484  13.919  0.00  0.00    +0.000 C 
ATOM     19  O   UNL     1      47.069   3.304  13.749  0.00  0.00    +0.000 OA
BRANCH  18  20
ATOM     20  C   UNL     1      47.749   5.307  14.780  0.00  0.00    +0.000 A 
ATOM     21  C   UNL     1      48.541   6.339  14.331  0.00  0.00    +0.000 A 
ATOM     22  S   UNL     1      49.333   7.198  15.565  0.00  0.00    +0.000 S 
ATOM     23  C   UNL     1      48.612   6.221  16.755  0.00  0.00    +0.000 A 
ATOM     24  N   UNL     1      48.774   6.495  18.069  0.00  0.00    +0.000 NA
ATOM     25  C   UNL     1      48.115   5.699  18.863  0.00  0.00    +0.000 A 
ATOM     26  N   UNL     1      47.352   4.640  18.450  0.00  0.00    +0.000 N 
ATOM     27  C   UNL     1      47.205   4.297  17.128  0.00  0.00    +0.000 A 
ATOM     28  O   UNL     1      46.573   3.282  16.799  0.00  0.00    +0.000 OA
ATOM     29  C   UNL     1      47.846   5.205  16.205  0.00  0.00    +0.000 A 
ATOM     30  H   UNL     1      46.881   4.047  19.115  0.00  0.00    +0.000 HD
ENDBRANCH  18  20
ENDBRANCH   1  16
TORSDOF 5
ENDMDL
MODEL 4
REMARK VINA RESULT:    -6.871      4.066      5.626
REMARK INTER + INTRA:          -9.523
REMARK INTER:                  -8.721
REMARK INTRA:                  -0.803
REMARK UNBOUND:                -0.644
REMARK  Name = 
REMARK  7 active torsions:
REMARK  status: ('A' for Active; 'I' for Inactive)
REMARK    1  A    between atoms: C_1  and  C_2
REMARK    2  A    between atoms: C_6  and  C_7
REMARK    3  A    between atoms: C_7  and  C_8
REMARK    4  A    between atoms: C_11  and  C_12
REMARK    5  A    between atoms: C_12  and  N_13
REMARK    6  A    between atoms: N_13  and  C_14
REMARK    7  A    between atoms: C_15  and  C_17
REMARK                            x       y       z     vdW  Elec       q    Type
REMARK                         _______ _______ _______ _____ _____    ______ ____
ROOT
ATOM      1  C   UNL     1      45.812   6.283  13.538  0.00  0.00    +0.000 C 
ENDROOT
BRANCH   1   5
ATOM      2  C   UNL     1      45.242   4.365   9.733  0.00  0.00    +0.000 A 
ATOM      3  C   UNL     1      45.036   3.614  10.882  0.00  0.00    +0.000 A 
ATOM      4  C   UNL     1      45.293   4.188  12.129  0.00  0.00    +0.000 A 
ATOM      5  C   UNL     1      45.688   5.526  12.227  0.00  0.00    +0.000 A 
ATOM      6  C   UNL     1      45.980   6.155  11.019  0.00  0.00    +0.000 A 
ATOM      7  N   UNL     1      45.774   5.611   9.787  0.00  0.00    +0.000 NA
BRANCH   2   8
ATOM      8  C   UNL     1      44.779   3.803   8.399  0.00  0.00    +0.000 C 
BRANCH   8  14
ATOM      9  C   UNL     1      46.956  -0.686   7.727  0.00  0.00    +0.000 C 
ATOM     10  C   UNL     1      46.840   0.756   7.337  0.00  0.00    +0.000 A 
ATOM     11  C   UNL     1      47.639   1.290   6.320  0.00  0.00    +0.000 A 
ATOM     12  C   UNL     1      47.542   2.639   5.991  0.00  0.00    +0.000 A 
ATOM     13  C   UNL     1      46.642   3.466   6.672  0.00  0.00    +0.000 A 
ATOM     14  C   UNL     1      45.808   2.948   7.679  0.00  0.00    +0.000 A 
ATOM     15  C   UNL     1      45.922   1.586   7.997  0.00  0.00    +0.000 A 
ENDBRANCH   8  14
ENDBRANCH   2   8
ENDBRANCH   1   5
BRANCH   1  16
ATOM     16  N   UNL     1      46.875   7.302  13.609  0.00  0.00    +0.000 N 
ATOM     17  C   UNL     1      46.636   8.653  13.140  0.00  0.00    +0.000 C 
ATOM     18  C   UNL     1      48.180   6.869  13.963  0.00  0.00    +0.000 C 
ATOM     19  O   UNL     1      48.439   5.709  14.183  0.00  0.00    +0.000 OA
BRANCH  18  20
ATOM     20  C   UNL     1      49.212   7.928  14.064  0.00  0.00    +0.000 A 
ATOM     21  C   UNL     1      49.561   8.574  15.228  0.00  0.00    +0.000 A 
ATOM     22  S   UNL     1      50.876   9.638  15.067  0.00  0.00    +0.000 S 
ATOM     23  C   UNL     1      51.040   9.242  13.422  0.00  0.00    +0.000 A 
ATOM     24  N   UNL     1      52.073   9.722  12.693  0.00  0.00    +0.000 NA
ATOM     25  C   UNL     1      52.103   9.287  11.465  0.00  0.00    +0.000 A 
ATOM     26  N   UNL     1      51.169   8.456  10.907  0.00  0.00    +0.000 N 
ATOM     27  C   UNL     1      50.076   7.990  11.598  0.00  0.00    +0.000 A 
ATOM     28  O   UNL     1      49.209   7.307  11.035  0.00  0.00    +0.000 OA
ATOM     29  C   UNL     1      50.049   8.375  12.991  0.00  0.00    +0.000 A 
ATOM     30  H   UNL     1      51.236   8.169   9.943  0.00  0.00    +0.000 HD
ENDBRANCH  18  20
ENDBRANCH   1  16
TORSDOF 5
ENDMDL
MODEL 5
REMARK VINA RESULT:    -6.444      1.387      1.987
REMARK INTER + INTRA:          -8.972
REMARK INTER:                  -8.093
REMARK INTRA:                  -0.880
REMARK UNBOUND:                -0.644
REMARK  Name = 
REMARK  7 active torsions:
REMARK  status: ('A' for Active; 'I' for Inactive)
REMARK    1  A    between atoms: C_1  and  C_2
REMARK    2  A    between atoms: C_6  and  C_7
REMARK    3  A    between atoms: C_7  and  C_8
REMARK    4  A    between atoms: C_11  and  C_12
REMARK    5  A    between atoms: C_12  and  N_13
REMARK    6  A    between atoms: N_13  and  C_14
REMARK    7  A    between atoms: C_15  and  C_17
REMARK                            x       y       z     vdW  Elec       q    Type
REMARK                         _______ _______ _______ _____ _____    ______ ____
ROOT
ATOM      1  C   UNL     1      50.001   7.480  14.586  0.00  0.00    +0.000 C 
ENDROOT
BRANCH   1   5
ATOM      2  C   UNL     1      46.385   7.482  12.259  0.00  0.00    +0.000 A 
ATOM      3  C   UNL     1      47.496   6.827  11.744  0.00  0.00    +0.000 A 
ATOM      4  C   UNL     1      48.705   6.879  12.440  0.00  0.00    +0.000 A 
ATOM      5  C   UNL     1      48.785   7.527  13.677  0.00  0.00    +0.000 A 
ATOM      6  C   UNL     1      47.654   8.251  14.049  0.00  0.00    +0.000 A 
ATOM      7  N   UNL     1      46.471   8.249  13.374  0.00  0.00    +0.000 NA
BRANCH   2   8
ATOM      8  C   UNL     1      45.034   7.261  11.601  0.00  0.00    +0.000 C 
BRANCH   8  14
ATOM      9  C   UNL     1      44.400   2.798   9.359  0.00  0.00    +0.000 C 
ATOM     10  C   UNL     1      44.246   3.656  10.578  0.00  0.00    +0.000 A 
ATOM     11  C   UNL     1      43.674   3.144  11.747  0.00  0.00    +0.000 A 
ATOM     12  C   UNL     1      43.509   3.963  12.860  0.00  0.00    +0.000 A 
ATOM     13  C   UNL     1      43.920   5.300  12.818  0.00  0.00    +0.000 A 
ATOM     14  C   UNL     1      44.524   5.831  11.664  0.00  0.00    +0.000 A 
ATOM     15  C   UNL     1      44.679   4.990  10.551  0.00  0.00    +0.000 A 
ENDBRANCH   8  14
ENDBRANCH   2   8
ENDBRANCH   1   5
BRANCH   1  16
ATOM     16  N   UNL     1      49.739   7.524  16.035  0.00  0.00    +0.000 N 
ATOM     17  C   UNL     1      50.124   8.681  16.820  0.00  0.00    +0.000 C 
ATOM     18  C   UNL     1      49.284   6.333  16.660  0.00  0.00    +0.000 C 
ATOM     19  O   UNL     1      49.129   5.302  16.050  0.00  0.00    +0.000 OA
BRANCH  18  20
ATOM     20  C   UNL     1      48.993   6.429  18.110  0.00  0.00    +0.000 A 
ATOM     21  C   UNL     1      47.847   6.970  18.646  0.00  0.00    +0.000 A 
ATOM     22  S   UNL     1      47.724   6.813  20.333  0.00  0.00    +0.000 S 
ATOM     23  C   UNL     1      49.205   5.981  20.398  0.00  0.00    +0.000 A 
ATOM     24  N   UNL     1      49.648   5.443  21.557  0.00  0.00    +0.000 NA
ATOM     25  C   UNL     1      50.767   4.784  21.443  0.00  0.00    +0.000 A 
ATOM     26  N   UNL     1      51.486   4.661  20.286  0.00  0.00    +0.000 N 
ATOM     27  C   UNL     1      51.098   5.237  19.100  0.00  0.00    +0.000 A 
ATOM     28  O   UNL     1      51.818   5.172  18.094  0.00  0.00    +0.000 OA
ATOM     29  C   UNL     1      49.817   5.903  19.158  0.00  0.00    +0.000 A 
ATOM     30  H   UNL     1      52.357   4.154  20.265  0.00  0.00    +0.000 HD
ENDBRANCH  18  20
ENDBRANCH   1  16
TORSDOF 5
ENDMDL
MODEL 6
REMARK VINA RESULT:    -6.420      3.160      5.056
REMARK INTER + INTRA:          -8.941
REMARK INTER:                  -9.022
REMARK INTRA:                   0.082
REMARK UNBOUND:                -0.644
REMARK  Name = 
REMARK  7 active torsions:
REMARK  status: ('A' for Active; 'I' for Inactive)
REMARK    1  A    between atoms: C_1  and  C_2
REMARK    2  A    between atoms: C_6  and  C_7
REMARK    3  A    between atoms: C_7  and  C_8
REMARK    4  A    between atoms: C_11  and  C_12
REMARK    5  A    between atoms: C_12  and  N_13
REMARK    6  A    between atoms: N_13  and  C_14
REMARK    7  A    between atoms: C_15  and  C_17
REMARK                            x       y       z     vdW  Elec       q    Type
REMARK                         _______ _______ _______ _____ _____    ______ ____
ROOT
ATOM      1  C   UNL     1      44.747   4.258  12.460  0.00  0.00    +0.000 C 
ENDROOT
BRANCH   1   5
ATOM      2  C   UNL     1      45.853   4.133   8.307  0.00  0.00    +0.000 A 
ATOM      3  C   UNL     1      45.981   5.339   8.983  0.00  0.00    +0.000 A 
ATOM      4  C   UNL     1      45.553   5.428  10.309  0.00  0.00    +0.000 A 
ATOM      5  C   UNL     1      45.062   4.301  10.975  0.00  0.00    +0.000 A 
ATOM      6  C   UNL     1      44.863   3.174  10.180  0.00  0.00    +0.000 A 
ATOM      7  N   UNL     1      45.237   3.066   8.874  0.00  0.00    +0.000 NA
BRANCH   2   8
ATOM      8  C   UNL     1      46.493   3.990   6.938  0.00  0.00    +0.000 C 
BRANCH   8  14
ATOM      9  C   UNL     1      46.815   0.638   3.195  0.00  0.00    +0.000 C 
ATOM     10  C   UNL     1      46.901   0.938   4.661  0.00  0.00    +0.000 A 
ATOM     11  C   UNL     1      47.203  -0.070   5.583  0.00  0.00    +0.000 A 
ATOM     12  C   UNL     1      47.247   0.219   6.944  0.00  0.00    +0.000 A 
ATOM     13  C   UNL     1      46.995   1.519   7.396  0.00  0.00    +0.000 A 
ATOM     14  C   UNL     1      46.716   2.555   6.487  0.00  0.00    +0.000 A 
ATOM     15  C   UNL     1      46.674   2.244   5.120  0.00  0.00    +0.000 A 
ENDBRANCH   8  14
ENDBRANCH   2   8
ENDBRANCH   1   5
BRANCH   1  16
ATOM     16  N   UNL     1      45.601   5.079  13.336  0.00  0.00    +0.000 N 
ATOM     17  C   UNL     1      45.339   6.495  13.506  0.00  0.00    +0.000 C 
ATOM     18  C   UNL     1      46.787   4.487  13.844  0.00  0.00    +0.000 C 
ATOM     19  O   UNL     1      47.116   3.359  13.565  0.00  0.00    +0.000 OA
BRANCH  18  20
ATOM     20  C   UNL     1      47.598   5.331  14.754  0.00  0.00    +0.000 A 
ATOM     21  C   UNL     1      47.615   5.213  16.124  0.00  0.00    +0.000 A 
ATOM     22  S   UNL     1      48.749   6.217  16.896  0.00  0.00    +0.000 S 
ATOM     23  C   UNL     1      49.278   6.828  15.400  0.00  0.00    +0.000 A 
ATOM     24  N   UNL     1      50.339   7.664  15.328  0.00  0.00    +0.000 NA
ATOM     25  C   UNL     1      50.667   8.002  14.113  0.00  0.00    +0.000 A 
ATOM     26  N   UNL     1      49.999   7.608  12.986  0.00  0.00    +0.000 N 
ATOM     27  C   UNL     1      48.886   6.802  13.019  0.00  0.00    +0.000 A 
ATOM     28  O   UNL     1      48.261   6.535  11.983  0.00  0.00    +0.000 OA
ATOM     29  C   UNL     1      48.538   6.330  14.340  0.00  0.00    +0.000 A 
ATOM     30  H   UNL     1      50.290   7.920  12.072  0.00  0.00    +0.000 HD
ENDBRANCH  18  20
ENDBRANCH   1  16
TORSDOF 5
ENDMDL
MODEL 7
REMARK VINA RESULT:    -6.400      4.230      5.065
REMARK INTER + INTRA:          -8.915
REMARK INTER:                  -8.962
REMARK INTRA:                   0.047
REMARK UNBOUND:                -0.644
REMARK  Name = 
REMARK  7 active torsions:
REMARK  status: ('A' for Active; 'I' for Inactive)
REMARK    1  A    between atoms: C_1  and  C_2
REMARK    2  A    between atoms: C_6  and  C_7
REMARK    3  A    between atoms: C_7  and  C_8
REMARK    4  A    between atoms: C_11  and  C_12
REMARK    5  A    between atoms: C_12  and  N_13
REMARK    6  A    between atoms: N_13  and  C_14
REMARK    7  A    between atoms: C_15  and  C_17
REMARK                            x       y       z     vdW  Elec       q    Type
REMARK                         _______ _______ _______ _____ _____    ______ ____
ROOT
ATOM      1  C   UNL     1      45.530   8.074  12.992  0.00  0.00    +0.000 C 
ENDROOT
BRANCH   1   5
ATOM      2  C   UNL     1      44.713   4.565  10.647  0.00  0.00    +0.000 A 
ATOM      3  C   UNL     1      44.087   4.689  11.880  0.00  0.00    +0.000 A 
ATOM      4  C   UNL     1      44.397   5.778  12.697  0.00  0.00    +0.000 A 
ATOM      5  C   UNL     1      45.276   6.771  12.254  0.00  0.00    +0.000 A 
ATOM      6  C   UNL     1      45.939   6.497  11.060  0.00  0.00    +0.000 A 
ATOM      7  N   UNL     1      45.686   5.426  10.257  0.00  0.00    +0.000 NA
BRANCH   2   8
ATOM      8  C   UNL     1      44.232   3.491   9.687  0.00  0.00    +0.000 C 
BRANCH   8  14
ATOM      9  C   UNL     1      46.903  -0.264   7.658  0.00  0.00    +0.000 C 
ATOM     10  C   UNL     1      46.544   1.191   7.680  0.00  0.00    +0.000 A 
ATOM     11  C   UNL     1      47.132   2.088   6.781  0.00  0.00    +0.000 A 
ATOM     12  C   UNL     1      46.812   3.441   6.836  0.00  0.00    +0.000 A 
ATOM     13  C   UNL     1      45.898   3.910   7.785  0.00  0.00    +0.000 A 
ATOM     14  C   UNL     1      45.272   3.025   8.681  0.00  0.00    +0.000 A 
ATOM     15  C   UNL     1      45.609   1.665   8.612  0.00  0.00    +0.000 A 
ENDBRANCH   8  14
ENDBRANCH   2   8
ENDBRANCH   1   5
BRANCH   1  16
ATOM     16  N   UNL     1      46.919   8.567  12.995  0.00  0.00    +0.000 N 
ATOM     17  C   UNL     1      47.298   9.711  12.189  0.00  0.00    +0.000 C 
ATOM     18  C   UNL     1      47.898   7.775  13.650  0.00  0.00    +0.000 C 
ATOM     19  O   UNL     1      47.630   6.720  14.176  0.00  0.00    +0.000 OA
BRANCH  18  20
ATOM     20  C   UNL     1      49.275   8.323  13.667  0.00  0.00    +0.000 A 
ATOM     21  C   UNL     1      50.214   8.113  12.684  0.00  0.00    +0.000 A 
ATOM     22  S   UNL     1      51.657   8.985  12.900  0.00  0.00    +0.000 S 
ATOM     23  C   UNL     1      51.052   9.701  14.318  0.00  0.00    +0.000 A 
ATOM     24  N   UNL     1      51.749  10.667  14.960  0.00  0.00    +0.000 NA
ATOM     25  C   UNL     1      51.136  11.165  15.996  0.00  0.00    +0.000 A 
ATOM     26  N   UNL     1      49.916  10.748  16.457  0.00  0.00    +0.000 N 
ATOM     27  C   UNL     1      49.200   9.736  15.865  0.00  0.00    +0.000 A 
ATOM     28  O   UNL     1      48.138   9.332  16.360  0.00  0.00    +0.000 OA
ATOM     29  C   UNL     1      49.801   9.213  14.659  0.00  0.00    +0.000 A 
ATOM     30  H   UNL     1      49.500  11.160  17.278  0.00  0.00    +0.000 HD
ENDBRANCH  18  20
ENDBRANCH   1  16
TORSDOF 5
ENDMDL
MODEL 8
REMARK VINA RESULT:    -6.323      5.091      8.670
REMARK INTER + INTRA:          -8.816
REMARK INTER:                  -8.099
REMARK INTRA:                  -0.717
REMARK UNBOUND:                -0.644
REMARK  Name = 
REMARK  7 active torsions:
REMARK  status: ('A' for Active; 'I' for Inactive)
REMARK    1  A    between atoms: C_1  and  C_2
REMARK    2  A    between atoms: C_6  and  C_7
REMARK    3  A    between atoms: C_7  and  C_8
REMARK    4  A    between atoms: C_11  and  C_12
REMARK    5  A    between atoms: C_12  and  N_13
REMARK    6  A    between atoms: N_13  and  C_14
REMARK    7  A    between atoms: C_15  and  C_17
REMARK                            x       y       z     vdW  Elec       q    Type
REMARK                         _______ _______ _______ _____ _____    ______ ____
ROOT
ATOM      1  C   UNL     1      46.960   8.203  13.070  0.00  0.00    +0.000 C 
ENDROOT
BRANCH   1   5
ATOM      2  C   UNL     1      51.111   8.666  12.047  0.00  0.00    +0.000 A 
ATOM      3  C   UNL     1      50.776   8.548  13.389  0.00  0.00    +0.000 A 
ATOM      4  C   UNL     1      49.430   8.478  13.755  0.00  0.00    +0.000 A 
ATOM      5  C   UNL     1      48.429   8.459  12.779  0.00  0.00    +0.000 A 
ATOM      6  C   UNL     1      48.857   8.701  11.475  0.00  0.00    +0.000 A 
ATOM      7  N   UNL     1      50.159   8.810  11.091  0.00  0.00    +0.000 NA
BRANCH   2   8
ATOM      8  C   UNL     1      52.570   8.547  11.643  0.00  0.00    +0.000 C 
BRANCH   8  14
ATOM      9  C   UNL     1      53.021   5.832   7.427  0.00  0.00    +0.000 C 
ATOM     10  C   UNL     1      53.000   7.174   8.094  0.00  0.00    +0.000 A 
ATOM     11  C   UNL     1      53.171   8.347   7.351  0.00  0.00    +0.000 A 
ATOM     12  C   UNL     1      53.181   9.583   7.990  0.00  0.00    +0.000 A 
ATOM     13  C   UNL     1      53.014   9.660   9.377  0.00  0.00    +0.000 A 
ATOM     14  C   UNL     1      52.812   8.498  10.143  0.00  0.00    +0.000 A 
ATOM     15  C   UNL     1      52.807   7.261   9.481  0.00  0.00    +0.000 A 
ENDBRANCH   8  14
ENDBRANCH   2   8
ENDBRANCH   1   5
BRANCH   1  16
ATOM     16  N   UNL     1      46.474   6.832  12.835  0.00  0.00    +0.000 N 
ATOM     17  C   UNL     1      47.273   5.688  13.230  0.00  0.00    +0.000 C 
ATOM     18  C   UNL     1      45.306   6.673  12.044  0.00  0.00    +0.000 C 
ATOM     19  O   UNL     1      44.726   7.612  11.553  0.00  0.00    +0.000 OA
BRANCH  18  20
ATOM     20  C   UNL     1      44.825   5.282  11.866  0.00  0.00    +0.000 A 
ATOM     21  C   UNL     1      44.127   4.566  12.811  0.00  0.00    +0.000 A 
ATOM     22  S   UNL     1      43.581   3.050  12.274  0.00  0.00    +0.000 S 
ATOM     23  C   UNL     1      44.245   3.318  10.732  0.00  0.00    +0.000 A 
ATOM     24  N   UNL     1      44.032   2.442   9.723  0.00  0.00    +0.000 NA
ATOM     25  C   UNL     1      44.551   2.807   8.585  0.00  0.00    +0.000 A 
ATOM     26  N   UNL     1      45.290   3.943   8.392  0.00  0.00    +0.000 N 
ATOM     27  C   UNL     1      45.573   4.831   9.402  0.00  0.00    +0.000 A 
ATOM     28  O   UNL     1      46.314   5.805   9.206  0.00  0.00    +0.000 OA
ATOM     29  C   UNL     1      44.943   4.513  10.663  0.00  0.00    +0.000 A 
ATOM     30  H   UNL     1      45.683   4.162   7.490  0.00  0.00    +0.000 HD
ENDBRANCH  18  20
ENDBRANCH   1  16
TORSDOF 5
ENDMDL
MODEL 9
REMARK VINA RESULT:    -6.199      1.938      2.670
REMARK INTER + INTRA:          -8.655
REMARK INTER:                  -7.869
REMARK INTRA:                  -0.786
REMARK UNBOUND:                -0.644
REMARK  Name = 
REMARK  7 active torsions:
REMARK  status: ('A' for Active; 'I' for Inactive)
REMARK    1  A    between atoms: C_1  and  C_2
REMARK    2  A    between atoms: C_6  and  C_7
REMARK    3  A    between atoms: C_7  and  C_8
REMARK    4  A    between atoms: C_11  and  C_12
REMARK    5  A    between atoms: C_12  and  N_13
REMARK    6  A    between atoms: N_13  and  C_14
REMARK    7  A    between atoms: C_15  and  C_17
REMARK                            x       y       z     vdW  Elec       q    Type
REMARK                         _______ _______ _______ _____ _____    ______ ____
ROOT
ATOM      1  C   UNL     1      48.063   4.052  15.832  0.00  0.00    +0.000 C 
ENDROOT
BRANCH   1   5
ATOM      2  C   UNL     1      45.811   5.589  12.508  0.00  0.00    +0.000 A 
ATOM      3  C   UNL     1      47.038   6.173  12.795  0.00  0.00    +0.000 A 
ATOM      4  C   UNL     1      47.752   5.748  13.916  0.00  0.00    +0.000 A 
ATOM      5  C   UNL     1      47.274   4.699  14.708  0.00  0.00    +0.000 A 
ATOM      6  C   UNL     1      45.985   4.262  14.409  0.00  0.00    +0.000 A 
ATOM      7  N   UNL     1      45.248   4.681  13.344  0.00  0.00    +0.000 NA
BRANCH   2   8
ATOM      8  C   UNL     1      45.135   5.917  11.188  0.00  0.00    +0.000 C 
BRANCH   8  14
ATOM      9  C   UNL     1      46.513   3.843   6.813  0.00  0.00    +0.000 C 
ATOM     10  C   UNL     1      45.749   3.741   8.097  0.00  0.00    +0.000 A 
ATOM     11  C   UNL     1      45.003   2.597   8.399  0.00  0.00    +0.000 A 
ATOM     12  C   UNL     1      44.273   2.531   9.582  0.00  0.00    +0.000 A 
ATOM     13  C   UNL     1      44.286   3.605  10.478  0.00  0.00    +0.000 A 
ATOM     14  C   UNL     1      45.051   4.755  10.212  0.00  0.00    +0.000 A 
ATOM     15  C   UNL     1      45.778   4.804   9.013  0.00  0.00    +0.000 A 
ENDBRANCH   8  14
ENDBRANCH   2   8
ENDBRANCH   1   5
BRANCH   1  16
ATOM     16  N   UNL     1      48.162   4.814  17.089  0.00  0.00    +0.000 N 
ATOM     17  C   UNL     1      46.991   5.024  17.918  0.00  0.00    +0.000 C 
ATOM     18  C   UNL     1      49.380   5.493  17.356  0.00  0.00    +0.000 C 
ATOM     19  O   UNL     1      50.310   5.477  16.584  0.00  0.00    +0.000 OA
BRANCH  18  20
ATOM     20  C   UNL     1      49.454   6.215  18.648  0.00  0.00    +0.000 A 
ATOM     21  C   UNL     1      49.827   5.645  19.843  0.00  0.00    +0.000 A 
ATOM     22  S   UNL     1      49.961   6.747  21.129  0.00  0.00    +0.000 S 
ATOM     23  C   UNL     1      49.545   8.042  20.108  0.00  0.00    +0.000 A 
ATOM     24  N   UNL     1      49.586   9.318  20.554  0.00  0.00    +0.000 NA
ATOM     25  C   UNL     1      49.300  10.207  19.646  0.00  0.00    +0.000 A 
ATOM     26  N   UNL     1      48.940   9.919  18.357  0.00  0.00    +0.000 N 
ATOM     27  C   UNL     1      48.835   8.635  17.880  0.00  0.00    +0.000 A 
ATOM     28  O   UNL     1      48.426   8.413  16.731  0.00  0.00    +0.000 OA
ATOM     29  C   UNL     1      49.229   7.618  18.828  0.00  0.00    +0.000 A 
ATOM     30  H   UNL     1      48.711  10.652  17.704  0.00  0.00    +0.000 HD
ENDBRANCH  18  20
ENDBRANCH   1  16
TORSDOF 5
ENDMDL
