MODEL 1
REMARK VINA RESULT:    -6.056      0.000      0.000
REMARK INTER + INTRA:          -9.315
REMARK INTER:                  -8.180
REMARK INTRA:                  -1.135
REMARK UNBOUND:                -1.135
REMARK  Name = 
REMARK  7 active torsions:
REMARK  status: ('A' for Active; 'I' for Inactive)
REMARK    1  A    between atoms: C_1  and  O_2
REMARK    2  A    between atoms: O_2  and  C_3
REMARK    3  A    between atoms: C_3  and  C_4
REMARK    4  A    between atoms: C_4  and  N_5
REMARK    5  A    between atoms: N_5  and  C_6
REMARK    6  A    between atoms: C_6  and  C_7
REMARK    7  A    between atoms: C_13  and  C_15
REMARK                            x       y       z     vdW  Elec       q    Type
REMARK                         _______ _______ _______ _____ _____    ______ ____
ROOT
ATOM      1  N   UNL     1      46.194   7.024  12.269  0.00  0.00    +0.000 N 
ATOM      2  C   UNL     1      44.913   6.601  11.843  0.00  0.00    +0.000 C 
ATOM      3  O   UNL     1      43.995   7.376  11.607  0.00  0.00    +0.000 OA
ENDROOT
BRANCH   2   4
ATOM      4  C   UNL     1      44.598   5.178  11.715  0.00  0.00    +0.000 A 
ATOM      5  C   UNL     1      43.870   4.428  12.627  0.00  0.00    +0.000 A 
ATOM      6  S   UNL     1      43.515   2.855  12.066  0.00  0.00    +0.000 S 
ATOM      7  C   UNL     1      44.226   3.175  10.549  0.00  0.00    +0.000 A 
ATOM      8  N   UNL     1      44.159   2.270   9.535  0.00  0.00    +0.000 NA
ATOM      9  C   UNL     1      44.655   2.694   8.419  0.00  0.00    +0.000 A 
ATOM     10  N   UNL     1      45.244   3.920   8.236  0.00  0.00    +0.000 N 
ATOM     11  C   UNL     1      45.458   4.806   9.268  0.00  0.00    +0.000 A 
ATOM     12  O   UNL     1      46.191   5.779   9.129  0.00  0.00    +0.000 OA
ATOM     13  C   UNL     1      44.805   4.421  10.507  0.00  0.00    +0.000 A 
ATOM     14  H   UNL     1      45.665   4.165   7.352  0.00  0.00    +0.000 HD
ENDBRANCH   2   4
BRANCH   1  15
ATOM     15  C   UNL     1      46.490   8.480  12.423  0.00  0.00    +0.000 C 
BRANCH  15  16
ATOM     16  C   UNL     1      47.904   8.941  12.029  0.00  0.00    +0.000 C 
BRANCH  16  18
ATOM     17  C   UNL     1      46.746  10.919  11.666  0.00  0.00    +0.000 C 
ATOM     18  O   UNL     1      48.047  10.361  11.895  0.00  0.00    +0.000 OA
ENDBRANCH  16  18
ENDBRANCH  15  16
ENDBRANCH   1  15
BRANCH   1  19
ATOM     19  C   UNL     1      47.268   6.052  12.533  0.00  0.00    +0.000 C 
BRANCH  19  20
ATOM     20  C   UNL     1      47.551   5.673  13.958  0.00  0.00    +0.000 A 
ATOM     21  C   UNL     1      46.936   4.568  14.561  0.00  0.00    +0.000 A 
ATOM     22  C   UNL     1      47.223   4.254  15.885  0.00  0.00    +0.000 A 
ATOM     23  C   UNL     1      48.126   5.052  16.565  0.00  0.00    +0.000 A 
ATOM     24  N   UNL     1      48.762   6.106  16.011  0.00  0.00    +0.000 NA
ATOM     25  C   UNL     1      48.463   6.391  14.723  0.00  0.00    +0.000 A 
ENDBRANCH  19  20
ENDBRANCH   1  19
TORSDOF 6
ENDMDL
MODEL 2
REMARK VINA RESULT:    -5.742      1.760      2.645
REMARK INTER + INTRA:          -8.891
REMARK INTER:                  -7.859
REMARK INTRA:                  -1.031
REMARK UNBOUND:                -1.135
REMARK  Name = 
REMARK  7 active torsions:
REMARK  status: ('A' for Active; 'I' for Inactive)
REMARK    1  A    between atoms: C_1  and  O_2
REMARK    2  A    between atoms: O_2  and  C_3
REMARK    3  A    between atoms: C_3  and  C_4
REMARK    4  A    between atoms: C_4  and  N_5
REMARK    5  A    between atoms: N_5  and  C_6
REMARK    6  A    between atoms: C_6  and  C_7
REMARK    7  A    between atoms: C_13  and  C_15
REMARK                            x       y       z     vdW  Elec       q    Type
REMARK                         _______ _______ _______ _____ _____    ______ ____
ROOT
ATOM      1  N   UNL     1      46.451   7.421  12.481  0.00  0.00    +0.000 N 
ATOM      2  C   UNL     1      45.365   7.310  11.582  0.00  0.00    +0.000 C 
ATOM      3  O   UNL     1      44.546   8.203  11.404  0.00  0.00    +0.000 OA
ENDROOT
BRANCH   2   4
ATOM      4  C   UNL     1      45.127   6.069  10.845  0.00  0.00    +0.000 A 
ATOM      5  C   UNL     1      45.714   5.723   9.637  0.00  0.00    +0.000 A 
ATOM      6  S   UNL     1      45.371   4.119   9.162  0.00  0.00    +0.000 S 
ATOM      7  C   UNL     1      44.524   3.812  10.611  0.00  0.00    +0.000 A 
ATOM      8  N   UNL     1      44.060   2.567  10.905  0.00  0.00    +0.000 NA
ATOM      9  C   UNL     1      43.527   2.468  12.079  0.00  0.00    +0.000 A 
ATOM     10  N   UNL     1      43.383   3.506  12.966  0.00  0.00    +0.000 N 
ATOM     11  C   UNL     1      43.710   4.807  12.652  0.00  0.00    +0.000 A 
ATOM     12  O   UNL     1      43.355   5.740  13.363  0.00  0.00    +0.000 OA
ATOM     13  C   UNL     1      44.425   4.937  11.394  0.00  0.00    +0.000 A 
ATOM     14  H   UNL     1      42.904   3.373  13.844  0.00  0.00    +0.000 HD
ENDBRANCH   2   4
BRANCH   1  15
ATOM     15  C   UNL     1      46.662   8.686  13.248  0.00  0.00    +0.000 C 
BRANCH  15  16
ATOM     16  C   UNL     1      48.016   9.391  13.056  0.00  0.00    +0.000 C 
BRANCH  16  18
ATOM     17  C   UNL     1      50.055   9.488  14.161  0.00  0.00    +0.000 C 
ATOM     18  O   UNL     1      48.657   9.783  14.277  0.00  0.00    +0.000 OA
ENDBRANCH  16  18
ENDBRANCH  15  16
ENDBRANCH   1  15
BRANCH   1  19
ATOM     19  C   UNL     1      47.413   6.321  12.653  0.00  0.00    +0.000 C 
BRANCH  19  20
ATOM     20  C   UNL     1      47.531   5.684  14.008  0.00  0.00    +0.000 A 
ATOM     21  C   UNL     1      48.360   6.220  15.002  0.00  0.00    +0.000 A 
ATOM     22  C   UNL     1      48.444   5.596  16.243  0.00  0.00    +0.000 A 
ATOM     23  C   UNL     1      47.687   4.457  16.455  0.00  0.00    +0.000 A 
ATOM     24  N   UNL     1      46.854   3.928  15.533  0.00  0.00    +0.000 NA
ATOM     25  C   UNL     1      46.793   4.552  14.335  0.00  0.00    +0.000 A 
ENDBRANCH  19  20
ENDBRANCH   1  19
TORSDOF 6
ENDMDL
MODEL 3
REMARK VINA RESULT:    -5.608      2.890      6.414
REMARK INTER + INTRA:          -8.710
REMARK INTER:                  -7.682
REMARK INTRA:                  -1.028
REMARK UNBOUND:                -1.135
REMARK  Name = 
REMARK  7 active torsions:
REMARK  status: ('A' for Active; 'I' for Inactive)
REMARK    1  A    between atoms: C_1  and  O_2
REMARK    2  A    between atoms: O_2  and  C_3
REMARK    3  A    between atoms: C_3  and  C_4
REMARK    4  A    between atoms: C_4  and  N_5
REMARK    5  A    between atoms: N_5  and  C_6
REMARK    6  A    between atoms: C_6  and  C_7
REMARK    7  A    between atoms: C_13  and  C_15
REMARK                            x       y       z     vdW  Elec       q    Type
REMARK                         _______ _______ _______ _____ _____    ______ ____
ROOT
ATOM      1  N   UNL     1      44.728   6.652  11.713  0.00  0.00    +0.000 N 
ATOM      2  C   UNL     1      45.919   5.924  11.485  0.00  0.00    +0.000 C 
ATOM      3  O   UNL     1      45.963   4.905  10.806  0.00  0.00    +0.000 OA
ENDROOT
BRANCH   2   4
ATOM      4  C   UNL     1      47.177   6.329  12.112  0.00  0.00    +0.000 A 
ATOM      5  C   UNL     1      48.057   7.279  11.614  0.00  0.00    +0.000 A 
ATOM      6  S   UNL     1      49.320   7.653  12.701  0.00  0.00    +0.000 S 
ATOM      7  C   UNL     1      48.660   6.641  13.905  0.00  0.00    +0.000 A 
ATOM      8  N   UNL     1      49.197   6.590  15.154  0.00  0.00    +0.000 NA
ATOM      9  C   UNL     1      48.530   5.856  15.984  0.00  0.00    +0.000 A 
ATOM     10  N   UNL     1      47.402   5.140  15.668  0.00  0.00    +0.000 N 
ATOM     11  C   UNL     1      46.909   5.052  14.385  0.00  0.00    +0.000 A 
ATOM     12  O   UNL     1      46.053   4.227  14.088  0.00  0.00    +0.000 OA
ATOM     13  C   UNL     1      47.554   5.961  13.453  0.00  0.00    +0.000 A 
ATOM     14  H   UNL     1      46.963   4.539  16.349  0.00  0.00    +0.000 HD
ENDBRANCH   2   4
BRANCH   1  15
ATOM     15  C   UNL     1      43.446   6.207  11.089  0.00  0.00    +0.000 C 
BRANCH  15  16
ATOM     16  C   UNL     1      42.466   5.443  11.996  0.00  0.00    +0.000 C 
BRANCH  16  18
ATOM     17  C   UNL     1      43.252   3.266  11.833  0.00  0.00    +0.000 C 
ATOM     18  O   UNL     1      43.059   4.366  12.732  0.00  0.00    +0.000 OA
ENDBRANCH  16  18
ENDBRANCH  15  16
ENDBRANCH   1  15
BRANCH   1  19
ATOM     19  C   UNL     1      44.729   7.876  12.531  0.00  0.00    +0.000 C 
BRANCH  19  20
ATOM     20  C   UNL     1      44.868   9.198  11.834  0.00  0.00    +0.000 A 
ATOM     21  C   UNL     1      45.960  10.043  12.072  0.00  0.00    +0.000 A 
ATOM     22  C   UNL     1      46.049  11.262  11.408  0.00  0.00    +0.000 A 
ATOM     23  C   UNL     1      45.044  11.596  10.516  0.00  0.00    +0.000 A 
ATOM     24  N   UNL     1      43.992  10.797  10.238  0.00  0.00    +0.000 NA
ATOM     25  C   UNL     1      43.929   9.619  10.899  0.00  0.00    +0.000 A 
ENDBRANCH  19  20
ENDBRANCH   1  19
TORSDOF 6
ENDMDL
MODEL 4
REMARK VINA RESULT:    -5.476      1.549      2.200
REMARK INTER + INTRA:          -8.531
REMARK INTER:                  -7.829
REMARK INTRA:                  -0.702
REMARK UNBOUND:                -1.135
REMARK  Name = 
REMARK  7 active torsions:
REMARK  status: ('A' for Active; 'I' for Inactive)
REMARK    1  A    between atoms: C_1  and  O_2
REMARK    2  A    between atoms: O_2  and  C_3
REMARK    3  A    between atoms: C_3  and  C_4
REMARK    4  A    between atoms: C_4  and  N_5
REMARK    5  A    between atoms: N_5  and  C_6
REMARK    6  A    between atoms: C_6  and  C_7
REMARK    7  A    between atoms: C_13  and  C_15
REMARK                            x       y       z     vdW  Elec       q    Type
REMARK                         _______ _______ _______ _____ _____    ______ ____
ROOT
ATOM      1  N   UNL     1      45.320   6.995  12.427  0.00  0.00    +0.000 N 
ATOM      2  C   UNL     1      44.229   6.384  11.767  0.00  0.00    +0.000 C 
ATOM      3  O   UNL     1      43.248   7.005  11.376  0.00  0.00    +0.000 OA
ENDROOT
BRANCH   2   4
ATOM      4  C   UNL     1      44.191   4.936  11.563  0.00  0.00    +0.000 A 
ATOM      5  C   UNL     1      43.468   4.032  12.328  0.00  0.00    +0.000 A 
ATOM      6  S   UNL     1      43.488   2.450  11.687  0.00  0.00    +0.000 S 
ATOM      7  C   UNL     1      44.366   2.955  10.315  0.00  0.00    +0.000 A 
ATOM      8  N   UNL     1      44.622   2.100   9.288  0.00  0.00    +0.000 NA
ATOM      9  C   UNL     1      45.210   2.653   8.277  0.00  0.00    +0.000 A 
ATOM     10  N   UNL     1      45.597   3.968   8.217  0.00  0.00    +0.000 N 
ATOM     11  C   UNL     1      45.485   4.829   9.286  0.00  0.00    +0.000 A 
ATOM     12  O   UNL     1      46.049   5.917   9.288  0.00  0.00    +0.000 OA
ATOM     13  C   UNL     1      44.718   4.282  10.392  0.00  0.00    +0.000 A 
ATOM     14  H   UNL     1      46.106   4.321   7.420  0.00  0.00    +0.000 HD
ENDBRANCH   2   4
BRANCH   1  15
ATOM     15  C   UNL     1      45.329   8.472  12.654  0.00  0.00    +0.000 C 
BRANCH  15  16
ATOM     16  C   UNL     1      44.966   9.356  11.448  0.00  0.00    +0.000 C 
BRANCH  16  18
ATOM     17  C   UNL     1      46.889  10.488  12.082  0.00  0.00    +0.000 C 
ATOM     18  O   UNL     1      45.619  10.631  11.433  0.00  0.00    +0.000 OA
ENDBRANCH  16  18
ENDBRANCH  15  16
ENDBRANCH   1  15
BRANCH   1  19
ATOM     19  C   UNL     1      46.480   6.205  12.871  0.00  0.00    +0.000 C 
BRANCH  19  20
ATOM     20  C   UNL     1      47.839   6.842  12.814  0.00  0.00    +0.000 A 
ATOM     21  C   UNL     1      48.416   7.236  11.600  0.00  0.00    +0.000 A 
ATOM     22  C   UNL     1      49.679   7.819  11.590  0.00  0.00    +0.000 A 
ATOM     23  C   UNL     1      50.325   7.998  12.801  0.00  0.00    +0.000 A 
ATOM     24  N   UNL     1      49.790   7.660  13.994  0.00  0.00    +0.000 NA
ATOM     25  C   UNL     1      48.562   7.093  13.974  0.00  0.00    +0.000 A 
ENDBRANCH  19  20
ENDBRANCH   1  19
TORSDOF 6
ENDMDL
MODEL 5
REMARK VINA RESULT:    -5.087      2.979      6.414
REMARK INTER + INTRA:          -8.006
REMARK INTER:                  -7.177
REMARK INTRA:                  -0.829
REMARK UNBOUND:                -1.135
REMARK  Name = 
REMARK  7 active torsions:
REMARK  status: ('A' for Active; 'I' for Inactive)
REMARK    1  A    between atoms: C_1  and  O_2
REMARK    2  A    between atoms: O_2  and  C_3
REMARK    3  A    between atoms: C_3  and  C_4
REMARK    4  A    between atoms: C_4  and  N_5
REMARK    5  A    between atoms: N_5  and  C_6
REMARK    6  A    between atoms: C_6  and  C_7
REMARK    7  A    between atoms: C_13  and  C_15
REMARK                            x       y       z     vdW  Elec       q    Type
REMARK                         _______ _______ _______ _____ _____    ______ ____
ROOT
ATOM      1  N   UNL     1      47.107   6.789  12.839  0.00  0.00    +0.000 N 
ATOM      2  C   UNL     1      47.087   8.131  13.286  0.00  0.00    +0.000 C 
ATOM      3  O   UNL     1      47.519   8.482  14.377  0.00  0.00    +0.000 OA
ENDROOT
BRANCH   2   4
ATOM      4  C   UNL     1      46.483   9.184  12.469  0.00  0.00    +0.000 A 
ATOM      5  C   UNL     1      45.148   9.560  12.496  0.00  0.00    +0.000 A 
ATOM      6  S   UNL     1      44.829  10.957  11.567  0.00  0.00    +0.000 S 
ATOM      7  C   UNL     1      46.483  11.158  11.199  0.00  0.00    +0.000 A 
ATOM      8  N   UNL     1      46.925  12.252  10.520  0.00  0.00    +0.000 NA
ATOM      9  C   UNL     1      48.212  12.313  10.404  0.00  0.00    +0.000 A 
ATOM     10  N   UNL     1      49.089  11.365  10.868  0.00  0.00    +0.000 N 
ATOM     11  C   UNL     1      48.675  10.179  11.433  0.00  0.00    +0.000 A 
ATOM     12  O   UNL     1      49.460   9.256  11.619  0.00  0.00    +0.000 OA
ATOM     13  C   UNL     1      47.247  10.129  11.695  0.00  0.00    +0.000 A 
ATOM     14  H   UNL     1      50.079  11.445  10.691  0.00  0.00    +0.000 HD
ENDBRANCH   2   4
BRANCH   1  15
ATOM     15  C   UNL     1      47.701   5.722  13.699  0.00  0.00    +0.000 C 
BRANCH  15  16
ATOM     16  C   UNL     1      46.721   4.713  14.323  0.00  0.00    +0.000 C 
BRANCH  16  18
ATOM     17  C   UNL     1      47.590   3.758  16.250  0.00  0.00    +0.000 C 
ATOM     18  O   UNL     1      47.342   3.537  14.856  0.00  0.00    +0.000 OA
ENDBRANCH  16  18
ENDBRANCH  15  16
ENDBRANCH   1  15
BRANCH   1  19
ATOM     19  C   UNL     1      46.583   6.420  11.515  0.00  0.00    +0.000 C 
BRANCH  19  20
ATOM     20  C   UNL     1      45.275   5.685  11.446  0.00  0.00    +0.000 A 
ATOM     21  C   UNL     1      45.114   4.542  10.652  0.00  0.00    +0.000 A 
ATOM     22  C   UNL     1      43.884   3.893  10.614  0.00  0.00    +0.000 A 
ATOM     23  C   UNL     1      42.852   4.404  11.381  0.00  0.00    +0.000 A 
ATOM     24  N   UNL     1      42.976   5.484  12.182  0.00  0.00    +0.000 NA
ATOM     25  C   UNL     1      44.181   6.097  12.199  0.00  0.00    +0.000 A 
ENDBRANCH  19  20
ENDBRANCH   1  19
TORSDOF 6
ENDMDL
MODEL 6
REMARK VINA RESULT:    -4.926      5.027      7.732
REMARK INTER + INTRA:          -7.789
REMARK INTER:                  -6.625
REMARK INTRA:                  -1.164
REMARK UNBOUND:                -1.135
REMARK  Name = 
REMARK  7 active torsions:
REMARK  status: ('A' for Active; 'I' for Inactive)
REMARK    1  A    between atoms: C_1  and  O_2
REMARK    2  A    between atoms: O_2  and  C_3
REMARK    3  A    between atoms: C_3  and  C_4
REMARK    4  A    between atoms: C_4  and  N_5
REMARK    5  A    between atoms: N_5  and  C_6
REMARK    6  A    between atoms: C_6  and  C_7
REMARK    7  A    between atoms: C_13  and  C_15
REMARK                            x       y       z     vdW  Elec       q    Type
REMARK                         _______ _______ _______ _____ _____    ______ ____
ROOT
ATOM      1  N   UNL     1      50.183   5.513  18.719  0.00  0.00    +0.000 N 
ATOM      2  C   UNL     1      49.025   6.216  18.312  0.00  0.00    +0.000 C 
ATOM      3  O   UNL     1      48.171   6.613  19.094  0.00  0.00    +0.000 OA
ENDROOT
BRANCH   2   4
ATOM      4  C   UNL     1      48.755   6.458  16.894  0.00  0.00    +0.000 A 
ATOM      5  C   UNL     1      49.330   7.457  16.123  0.00  0.00    +0.000 A 
ATOM      6  S   UNL     1      48.947   7.324  14.464  0.00  0.00    +0.000 S 
ATOM      7  C   UNL     1      48.099   5.866  14.719  0.00  0.00    +0.000 A 
ATOM      8  N   UNL     1      47.606   5.146  13.675  0.00  0.00    +0.000 NA
ATOM      9  C   UNL     1      47.076   4.018  14.018  0.00  0.00    +0.000 A 
ATOM     10  N   UNL     1      46.960   3.565  15.309  0.00  0.00    +0.000 N 
ATOM     11  C   UNL     1      47.316   4.324  16.401  0.00  0.00    +0.000 A 
ATOM     12  O   UNL     1      46.985   4.000  17.536  0.00  0.00    +0.000 OA
ATOM     13  C   UNL     1      48.029   5.541  16.053  0.00  0.00    +0.000 A 
ATOM     14  H   UNL     1      46.481   2.700  15.512  0.00  0.00    +0.000 HD
ENDBRANCH   2   4
BRANCH   1  15
ATOM     15  C   UNL     1      50.428   5.249  20.169  0.00  0.00    +0.000 C 
BRANCH  15  16
ATOM     16  C   UNL     1      51.535   6.077  20.844  0.00  0.00    +0.000 C 
BRANCH  16  18
ATOM     17  C   UNL     1      52.831   4.310  21.606  0.00  0.00    +0.000 C 
ATOM     18  O   UNL     1      52.838   5.484  20.783  0.00  0.00    +0.000 OA
ENDBRANCH  16  18
ENDBRANCH  15  16
ENDBRANCH   1  15
BRANCH   1  19
ATOM     19  C   UNL     1      51.185   5.063  17.739  0.00  0.00    +0.000 C 
BRANCH  19  20
ATOM     20  C   UNL     1      51.535   3.603  17.699  0.00  0.00    +0.000 A 
ATOM     21  C   UNL     1      52.805   3.141  18.066  0.00  0.00    +0.000 A 
ATOM     22  C   UNL     1      53.090   1.781  18.011  0.00  0.00    +0.000 A 
ATOM     23  C   UNL     1      52.089   0.920  17.596  0.00  0.00    +0.000 A 
ATOM     24  N   UNL     1      50.844   1.323  17.262  0.00  0.00    +0.000 NA
ATOM     25  C   UNL     1      50.595   2.650  17.323  0.00  0.00    +0.000 A 
ENDBRANCH  19  20
ENDBRANCH   1  19
TORSDOF 6
ENDMDL
MODEL 7
REMARK VINA RESULT:    -4.907      3.838      7.651
REMARK INTER + INTRA:          -7.763
REMARK INTER:                  -6.852
REMARK INTRA:                  -0.911
REMARK UNBOUND:                -1.135
REMARK  Name = 
REMARK  7 active torsions:
REMARK  status: ('A' for Active; 'I' for Inactive)
REMARK    1  A    between atoms: C_1  and  O_2
REMARK    2  A    between atoms: O_2  and  C_3
REMARK    3  A    between atoms: C_3  and  C_4
REMARK    4  A    between atoms: C_4  and  N_5
REMARK    5  A    between atoms: N_5  and  C_6
REMARK    6  A    between atoms: C_6  and  C_7
REMARK    7  A    between atoms: C_13  and  C_15
REMARK                            x       y       z     vdW  Elec       q    Type
REMARK                         _______ _______ _______ _____ _____    ______ ____
ROOT
ATOM      1  N   UNL     1      47.640   4.978  15.476  0.00  0.00    +0.000 N 
ATOM      2  C   UNL     1      47.334   4.471  16.760  0.00  0.00    +0.000 C 
ATOM      3  O   UNL     1      46.633   3.483  16.942  0.00  0.00    +0.000 OA
ENDROOT
BRANCH   2   4
ATOM      4  C   UNL     1      47.805   5.151  17.966  0.00  0.00    +0.000 A 
ATOM      5  C   UNL     1      47.021   5.909  18.823  0.00  0.00    +0.000 A 
ATOM      6  S   UNL     1      47.848   6.386  20.239  0.00  0.00    +0.000 S 
ATOM      7  C   UNL     1      49.235   5.497  19.796  0.00  0.00    +0.000 A 
ATOM      8  N   UNL     1      50.296   5.380  20.640  0.00  0.00    +0.000 NA
ATOM      9  C   UNL     1      51.229   4.597  20.206  0.00  0.00    +0.000 A 
ATOM     10  N   UNL     1      51.214   3.954  18.993  0.00  0.00    +0.000 N 
ATOM     11  C   UNL     1      50.229   4.157  18.053  0.00  0.00    +0.000 A 
ATOM     12  O   UNL     1      50.360   3.763  16.900  0.00  0.00    +0.000 OA
ATOM     13  C   UNL     1      49.103   4.930  18.551  0.00  0.00    +0.000 A 
ATOM     14  H   UNL     1      52.003   3.403  18.691  0.00  0.00    +0.000 HD
ENDBRANCH   2   4
BRANCH   1  15
ATOM     15  C   UNL     1      47.126   4.287  14.255  0.00  0.00    +0.000 C 
BRANCH  15  16
ATOM     16  C   UNL     1      45.733   4.710  13.758  0.00  0.00    +0.000 C 
BRANCH  16  18
ATOM     17  C   UNL     1      44.682   6.294  12.428  0.00  0.00    +0.000 C 
ATOM     18  O   UNL     1      45.727   5.314  12.458  0.00  0.00    +0.000 OA
ENDBRANCH  16  18
ENDBRANCH  15  16
ENDBRANCH   1  15
BRANCH   1  19
ATOM     19  C   UNL     1      48.495   6.164  15.309  0.00  0.00    +0.000 C 
BRANCH  19  20
ATOM     20  C   UNL     1      48.273   7.039  14.109  0.00  0.00    +0.000 A 
ATOM     21  C   UNL     1      48.920   6.796  12.892  0.00  0.00    +0.000 A 
ATOM     22  C   UNL     1      48.690   7.633  11.805  0.00  0.00    +0.000 A 
ATOM     23  C   UNL     1      47.808   8.688  11.969  0.00  0.00    +0.000 A 
ATOM     24  N   UNL     1      47.142   8.938  13.116  0.00  0.00    +0.000 NA
ATOM     25  C   UNL     1      47.387   8.110  14.157  0.00  0.00    +0.000 A 
ENDBRANCH  19  20
ENDBRANCH   1  19
TORSDOF 6
ENDMDL
MODEL 8
REMARK VINA RESULT:    -4.668      4.597      7.020
REMARK INTER + INTRA:          -7.441
REMARK INTER:                  -6.063
REMARK INTRA:                  -1.378
REMARK UNBOUND:                -1.135
REMARK  Name = 
REMARK  7 active torsions:
REMARK  status: ('A' for Active; 'I' for Inactive)
REMARK    1  A    between atoms: C_1  and  O_2
REMARK    2  A    between atoms: O_2  and  C_3
REMARK    3  A    between atoms: C_3  and  C_4
REMARK    4  A    between atoms: C_4  and  N_5
REMARK    5  A    between atoms: N_5  and  C_6
REMARK    6  A    between atoms: C_6  and  C_7
REMARK    7  A    between atoms: C_13  and  C_15
REMARK                            x       y       z     vdW  Elec       q    Type
REMARK                         _______ _______ _______ _____ _____    ______ ____
ROOT
ATOM      1  N   UNL     1      48.808   5.368  18.415  0.00  0.00    +0.000 N 
ATOM      2  C   UNL     1      49.379   5.375  17.121  0.00  0.00    +0.000 C 
ATOM      3  O   UNL     1      50.437   4.820  16.851  0.00  0.00    +0.000 OA
ENDROOT
BRANCH   2   4
ATOM      4  C   UNL     1      48.747   6.113  16.027  0.00  0.00    +0.000 A 
ATOM      5  C   UNL     1      49.136   7.362  15.565  0.00  0.00    +0.000 A 
ATOM      6  S   UNL     1      48.314   7.835  14.146  0.00  0.00    +0.000 S 
ATOM      7  C   UNL     1      47.502   6.338  14.049  0.00  0.00    +0.000 A 
ATOM      8  N   UNL     1      46.714   6.032  12.983  0.00  0.00    +0.000 NA
ATOM      9  C   UNL     1      46.247   4.826  13.004  0.00  0.00    +0.000 A 
ATOM     10  N   UNL     1      46.463   3.917  14.010  0.00  0.00    +0.000 N 
ATOM     11  C   UNL     1      47.135   4.233  15.170  0.00  0.00    +0.000 A 
ATOM     12  O   UNL     1      47.109   3.488  16.142  0.00  0.00    +0.000 OA
ATOM     13  C   UNL     1      47.781   5.534  15.129  0.00  0.00    +0.000 A 
ATOM     14  H   UNL     1      46.019   3.011  13.992  0.00  0.00    +0.000 HD
ENDBRANCH   2   4
BRANCH   1  15
ATOM     15  C   UNL     1      49.482   4.634  19.528  0.00  0.00    +0.000 C 
BRANCH  15  16
ATOM     16  C   UNL     1      50.575   5.398  20.296  0.00  0.00    +0.000 C 
BRANCH  16  18
ATOM     17  C   UNL     1      51.094   7.609  20.774  0.00  0.00    +0.000 C 
ATOM     18  O   UNL     1      50.936   6.657  19.714  0.00  0.00    +0.000 OA
ENDBRANCH  16  18
ENDBRANCH  15  16
ENDBRANCH   1  15
BRANCH   1  19
ATOM     19  C   UNL     1      47.529   6.045  18.687  0.00  0.00    +0.000 C 
BRANCH  19  20
ATOM     20  C   UNL     1      47.559   7.357  19.416  0.00  0.00    +0.000 A 
ATOM     21  C   UNL     1      47.686   8.575  18.736  0.00  0.00    +0.000 A 
ATOM     22  C   UNL     1      47.714   9.768  19.451  0.00  0.00    +0.000 A 
ATOM     23  C   UNL     1      47.604   9.706  20.829  0.00  0.00    +0.000 A 
ATOM     24  N   UNL     1      47.451   8.556  21.519  0.00  0.00    +0.000 NA
ATOM     25  C   UNL     1      47.430   7.411  20.800  0.00  0.00    +0.000 A 
ENDBRANCH  19  20
ENDBRANCH   1  19
TORSDOF 6
ENDMDL
MODEL 9
REMARK VINA RESULT:    -4.533      3.066      4.587
REMARK INTER + INTRA:          -7.258
REMARK INTER:                  -6.056
REMARK INTRA:                  -1.202
REMARK UNBOUND:                -1.135
REMARK  Name = 
REMARK  7 active torsions:
REMARK  status: ('A' for Active; 'I' for Inactive)
REMARK    1  A    between atoms: C_1  and  O_2
REMARK    2  A    between atoms: O_2  and  C_3
REMARK    3  A    between atoms: C_3  and  C_4
REMARK    4  A    between atoms: C_4  and  N_5
REMARK    5  A    between atoms: N_5  and  C_6
REMARK    6  A    between atoms: C_6  and  C_7
REMARK    7  A    between atoms: C_13  and  C_15
REMARK                            x       y       z     vdW  Elec       q    Type
REMARK                         _______ _______ _______ _____ _____    ______ ____
ROOT
ATOM      1  N   UNL     1      49.369   7.366  14.903  0.00  0.00    +0.000 N 
ATOM      2  C   UNL     1      48.847   7.012  13.637  0.00  0.00    +0.000 C 
ATOM      3  O   UNL     1      49.547   6.647  12.700  0.00  0.00    +0.000 OA
ENDROOT
BRANCH   2   4
ATOM      4  C   UNL     1      47.414   7.120  13.360  0.00  0.00    +0.000 A 
ATOM      5  C   UNL     1      46.768   8.250  12.882  0.00  0.00    +0.000 A 
ATOM      6  S   UNL     1      45.134   7.964  12.477  0.00  0.00    +0.000 S 
ATOM      7  C   UNL     1      45.281   6.301  12.823  0.00  0.00    +0.000 A 
ATOM      8  N   UNL     1      44.260   5.436  12.573  0.00  0.00    +0.000 NA
ATOM      9  C   UNL     1      44.554   4.197  12.794  0.00  0.00    +0.000 A 
ATOM     10  N   UNL     1      45.759   3.750  13.277  0.00  0.00    +0.000 N 
ATOM     11  C   UNL     1      46.765   4.600  13.676  0.00  0.00    +0.000 A 
ATOM     12  O   UNL     1      47.725   4.192  14.319  0.00  0.00    +0.000 OA
ATOM     13  C   UNL     1      46.521   5.990  13.327  0.00  0.00    +0.000 A 
ATOM     14  H   UNL     1      45.902   2.772  13.483  0.00  0.00    +0.000 HD
ENDBRANCH   2   4
BRANCH   1  15
ATOM     15  C   UNL     1      50.838   7.278  15.159  0.00  0.00    +0.000 C 
BRANCH  15  16
ATOM     16  C   UNL     1      51.566   8.600  15.459  0.00  0.00    +0.000 C 
BRANCH  16  18
ATOM     17  C   UNL     1      52.261   8.885  13.264  0.00  0.00    +0.000 C 
ATOM     18  O   UNL     1      51.594   9.521  14.362  0.00  0.00    +0.000 OA
ENDBRANCH  16  18
ENDBRANCH  15  16
ENDBRANCH   1  15
BRANCH   1  19
ATOM     19  C   UNL     1      48.484   7.791  16.000  0.00  0.00    +0.000 C 
BRANCH  19  20
ATOM     20  C   UNL     1      48.586   7.074  17.315  0.00  0.00    +0.000 A 
ATOM     21  C   UNL     1      48.860   7.757  18.506  0.00  0.00    +0.000 A 
ATOM     22  C   UNL     1      48.949   7.054  19.703  0.00  0.00    +0.000 A 
ATOM     23  C   UNL     1      48.753   5.684  19.672  0.00  0.00    +0.000 A 
ATOM     24  N   UNL     1      48.458   4.994  18.550  0.00  0.00    +0.000 NA
ATOM     25  C   UNL     1      48.379   5.701  17.401  0.00  0.00    +0.000 A 
ENDBRANCH  19  20
ENDBRANCH   1  19
TORSDOF 6
ENDMDL
