MODEL 1
REMARK VINA RESULT:    -7.516      0.000      0.000
REMARK INTER + INTRA:         -10.068
REMARK INTER:                  -9.713
REMARK INTRA:                  -0.355
REMARK UNBOUND:                -0.355
REMARK  Name = 
REMARK  5 active torsions:
REMARK  status: ('A' for Active; 'I' for Inactive)
REMARK    1  A    between atoms: C_4  and  C_5
REMARK    2  A    between atoms: C_10  and  C_11
REMARK    3  A    between atoms: C_11  and  C_12
REMARK    4  A    between atoms: C_12  and  C_13
REMARK    5  A    between atoms: C_17  and  C_18
REMARK                            x       y       z     vdW  Elec       q    Type
REMARK                         _______ _______ _______ _____ _____    ______ ____
ROOT
ATOM      1  C   UNL     1      45.578   6.543  12.195  0.00  0.00    +0.000 C 
ENDROOT
BRANCH   1   7
ATOM      2  N   UNL     1      43.467   2.284  12.443  0.00  0.00    +0.000 N 
ATOM      3  C   UNL     1      44.205   3.170  11.666  0.00  0.00    +0.000 A 
ATOM      4  C   UNL     1      44.497   2.874  10.346  0.00  0.00    +0.000 A 
ATOM      5  C   UNL     1      45.197   3.809   9.580  0.00  0.00    +0.000 A 
ATOM      6  C   UNL     1      45.568   5.019  10.178  0.00  0.00    +0.000 A 
ATOM      7  C   UNL     1      45.232   5.241  11.509  0.00  0.00    +0.000 A 
ATOM      8  N   UNL     1      44.552   4.330  12.244  0.00  0.00    +0.000 NA
ATOM      9  H   UNL     1      43.844   1.345  12.428  0.00  0.00    +0.000 HD
ATOM     10  H   UNL     1      43.434   2.669  13.384  0.00  0.00    +0.000 HD
BRANCH   5  11
ATOM     11  C   UNL     1      45.537   3.531   8.140  0.00  0.00    +0.000 C 
ATOM     12  F   UNL     1      44.461   3.579   7.306  0.00  0.00    +0.000 F 
ATOM     13  F   UNL     1      46.439   4.416   7.639  0.00  0.00    +0.000 F 
ATOM     14  F   UNL     1      46.086   2.297   7.968  0.00  0.00    +0.000 F 
ENDBRANCH   5  11
ENDBRANCH   1   7
BRANCH   1  15
ATOM     15  C   UNL     1      47.091   6.780  12.197  0.00  0.00    +0.000 C 
BRANCH  15  16
ATOM     16  C   UNL     1      47.812   6.492  13.497  0.00  0.00    +0.000 A 
ATOM     17  C   UNL     1      48.938   7.185  13.932  0.00  0.00    +0.000 A 
ATOM     18  C   UNL     1      49.484   6.854  15.167  0.00  0.00    +0.000 A 
ATOM     19  N   UNL     1      48.983   5.903  15.980  0.00  0.00    +0.000 NA
ATOM     20  C   UNL     1      47.879   5.239  15.575  0.00  0.00    +0.000 A 
ATOM     21  C   UNL     1      47.273   5.514  14.350  0.00  0.00    +0.000 A 
BRANCH  20  22
ATOM     22  C   UNL     1      47.298   4.164  16.481  0.00  0.00    +0.000 C 
ATOM     23  C   UNL     1      47.196   4.601  17.948  0.00  0.00    +0.000 C 
ATOM     24  C   UNL     1      48.532   4.531  18.689  0.00  0.00    +0.000 C 
ATOM     25  N   UNL     1      49.174   3.218  18.572  0.00  0.00    +0.000 NA
ATOM     26  C   UNL     1      49.360   2.824  17.174  0.00  0.00    +0.000 C 
ATOM     27  C   UNL     1      48.052   2.832  16.381  0.00  0.00    +0.000 C 
ATOM     28  H   UNL     1      48.610   2.522  19.051  0.00  0.00    +0.000 HD
ENDBRANCH  20  22
ENDBRANCH  15  16
ENDBRANCH   1  15
TORSDOF 5
ENDMDL
MODEL 2
REMARK VINA RESULT:    -7.385      2.515      4.101
REMARK INTER + INTRA:          -9.898
REMARK INTER:                  -8.907
REMARK INTRA:                  -0.991
REMARK UNBOUND:                -0.355
REMARK  Name = 
REMARK  5 active torsions:
REMARK  status: ('A' for Active; 'I' for Inactive)
REMARK    1  A    between atoms: C_4  and  C_5
REMARK    2  A    between atoms: C_10  and  C_11
REMARK    3  A    between atoms: C_11  and  C_12
REMARK    4  A    between atoms: C_12  and  C_13
REMARK    5  A    between atoms: C_17  and  C_18
REMARK                            x       y       z     vdW  Elec       q    Type
REMARK                         _______ _______ _______ _____ _____    ______ ____
ROOT
ATOM      1  C   UNL     1      43.635   6.271  11.080  0.00  0.00    +0.000 C 
ENDROOT
BRANCH   1   7
ATOM      2  N   UNL     1      43.309   1.530  11.344  0.00  0.00    +0.000 N 
ATOM      3  C   UNL     1      43.885   2.619  10.701  0.00  0.00    +0.000 A 
ATOM      4  C   UNL     1      44.703   2.435   9.600  0.00  0.00    +0.000 A 
ATOM      5  C   UNL     1      45.226   3.554   8.947  0.00  0.00    +0.000 A 
ATOM      6  C   UNL     1      44.890   4.825   9.429  0.00  0.00    +0.000 A 
ATOM      7  C   UNL     1      44.057   4.925  10.538  0.00  0.00    +0.000 A 
ATOM      8  N   UNL     1      43.554   3.835  11.164  0.00  0.00    +0.000 NA
ATOM      9  H   UNL     1      43.987   0.823  11.596  0.00  0.00    +0.000 HD
ATOM     10  H   UNL     1      42.812   1.892  12.154  0.00  0.00    +0.000 HD
BRANCH   5  11
ATOM     11  C   UNL     1      46.119   3.402   7.745  0.00  0.00    +0.000 C 
ATOM     12  F   UNL     1      45.440   3.272   6.572  0.00  0.00    +0.000 F 
ATOM     13  F   UNL     1      46.953   4.464   7.580  0.00  0.00    +0.000 F 
ATOM     14  F   UNL     1      46.922   2.306   7.834  0.00  0.00    +0.000 F 
ENDBRANCH   5  11
ENDBRANCH   1   7
BRANCH   1  15
ATOM     15  C   UNL     1      44.062   6.435  12.542  0.00  0.00    +0.000 C 
BRANCH  15  16
ATOM     16  C   UNL     1      45.534   6.239  12.836  0.00  0.00    +0.000 A 
ATOM     17  C   UNL     1      46.039   5.214  13.631  0.00  0.00    +0.000 A 
ATOM     18  C   UNL     1      47.417   5.117  13.790  0.00  0.00    +0.000 A 
ATOM     19  N   UNL     1      48.301   5.954  13.213  0.00  0.00    +0.000 NA
ATOM     20  C   UNL     1      47.821   6.940  12.424  0.00  0.00    +0.000 A 
ATOM     21  C   UNL     1      46.453   7.102  12.215  0.00  0.00    +0.000 A 
BRANCH  20  22
ATOM     22  C   UNL     1      48.805   7.892  11.762  0.00  0.00    +0.000 C 
ATOM     23  C   UNL     1      50.222   7.795  12.340  0.00  0.00    +0.000 C 
ATOM     24  C   UNL     1      50.379   8.529  13.673  0.00  0.00    +0.000 C 
ATOM     25  N   UNL     1      49.931   9.923  13.605  0.00  0.00    +0.000 NA
ATOM     26  C   UNL     1      48.547  10.029  13.139  0.00  0.00    +0.000 C 
ATOM     27  C   UNL     1      48.327   9.350  11.786  0.00  0.00    +0.000 C 
ATOM     28  H   UNL     1      50.542  10.444  12.984  0.00  0.00    +0.000 HD
ENDBRANCH  20  22
ENDBRANCH  15  16
ENDBRANCH   1  15
TORSDOF 5
ENDMDL
MODEL 3
REMARK VINA RESULT:    -7.263      1.566      2.325
REMARK INTER + INTRA:          -9.741
REMARK INTER:                  -9.419
REMARK INTRA:                  -0.322
REMARK UNBOUND:                -0.355
REMARK  Name = 
REMARK  5 active torsions:
REMARK  status: ('A' for Active; 'I' for Inactive)
REMARK    1  A    between atoms: C_4  and  C_5
REMARK    2  A    between atoms: C_10  and  C_11
REMARK    3  A    between atoms: C_11  and  C_12
REMARK    4  A    between atoms: C_12  and  C_13
REMARK    5  A    between atoms: C_17  and  C_18
REMARK                            x       y       z     vdW  Elec       q    Type
REMARK                         _______ _______ _______ _____ _____    ______ ____
ROOT
ATOM      1  C   UNL     1      46.418   7.550  11.889  0.00  0.00    +0.000 C 
ENDROOT
BRANCH   1   7
ATOM      2  N   UNL     1      42.004   5.771  11.790  0.00  0.00    +0.000 N 
ATOM      3  C   UNL     1      43.301   5.686  11.297  0.00  0.00    +0.000 A 
ATOM      4  C   UNL     1      43.614   4.786  10.293  0.00  0.00    +0.000 A 
ATOM      5  C   UNL     1      44.916   4.761   9.786  0.00  0.00    +0.000 A 
ATOM      6  C   UNL     1      45.853   5.660  10.309  0.00  0.00    +0.000 A 
ATOM      7  C   UNL     1      45.457   6.536  11.313  0.00  0.00    +0.000 A 
ATOM      8  N   UNL     1      44.193   6.554  11.798  0.00  0.00    +0.000 NA
ATOM      9  H   UNL     1      41.635   4.873  12.074  0.00  0.00    +0.000 HD
ATOM     10  H   UNL     1      42.021   6.439  12.557  0.00  0.00    +0.000 HD
BRANCH   5  11
ATOM     11  C   UNL     1      45.303   3.800   8.694  0.00  0.00    +0.000 C 
ATOM     12  F   UNL     1      46.435   4.157   8.027  0.00  0.00    +0.000 F 
ATOM     13  F   UNL     1      45.526   2.543   9.163  0.00  0.00    +0.000 F 
ATOM     14  F   UNL     1      44.335   3.679   7.744  0.00  0.00    +0.000 F 
ENDBRANCH   5  11
ENDBRANCH   1   7
BRANCH   1  15
ATOM     15  C   UNL     1      47.723   6.882  12.334  0.00  0.00    +0.000 C 
BRANCH  15  16
ATOM     16  C   UNL     1      47.660   6.077  13.615  0.00  0.00    +0.000 A 
ATOM     17  C   UNL     1      46.935   4.898  13.758  0.00  0.00    +0.000 A 
ATOM     18  C   UNL     1      46.992   4.228  14.975  0.00  0.00    +0.000 A 
ATOM     19  N   UNL     1      47.718   4.647  16.030  0.00  0.00    +0.000 NA
ATOM     20  C   UNL     1      48.440   5.780  15.894  0.00  0.00    +0.000 A 
ATOM     21  C   UNL     1      48.435   6.508  14.705  0.00  0.00    +0.000 A 
BRANCH  20  22
ATOM     22  C   UNL     1      49.268   6.267  17.074  0.00  0.00    +0.000 C 
ATOM     23  C   UNL     1      50.719   5.771  17.040  0.00  0.00    +0.000 C 
ATOM     24  C   UNL     1      50.869   4.323  17.507  0.00  0.00    +0.000 C 
ATOM     25  N   UNL     1      50.261   4.087  18.820  0.00  0.00    +0.000 NA
ATOM     26  C   UNL     1      48.849   4.474  18.845  0.00  0.00    +0.000 C 
ATOM     27  C   UNL     1      48.629   5.928  18.427  0.00  0.00    +0.000 C 
ATOM     28  H   UNL     1      50.771   4.609  19.527  0.00  0.00    +0.000 HD
ENDBRANCH  20  22
ENDBRANCH  15  16
ENDBRANCH   1  15
TORSDOF 5
ENDMDL
MODEL 4
REMARK VINA RESULT:    -7.259      1.602      2.127
REMARK INTER + INTRA:          -9.736
REMARK INTER:                  -9.131
REMARK INTRA:                  -0.605
REMARK UNBOUND:                -0.355
REMARK  Name = 
REMARK  5 active torsions:
REMARK  status: ('A' for Active; 'I' for Inactive)
REMARK    1  A    between atoms: C_4  and  C_5
REMARK    2  A    between atoms: C_10  and  C_11
REMARK    3  A    between atoms: C_11  and  C_12
REMARK    4  A    between atoms: C_12  and  C_13
REMARK    5  A    between atoms: C_17  and  C_18
REMARK                            x       y       z     vdW  Elec       q    Type
REMARK                         _______ _______ _______ _____ _____    ______ ____
ROOT
ATOM      1  C   UNL     1      46.378   7.456  11.847  0.00  0.00    +0.000 C 
ENDROOT
BRANCH   1   7
ATOM      2  N   UNL     1      42.041   5.501  11.711  0.00  0.00    +0.000 N 
ATOM      3  C   UNL     1      43.337   5.483  11.212  0.00  0.00    +0.000 A 
ATOM      4  C   UNL     1      43.683   4.624  10.183  0.00  0.00    +0.000 A 
ATOM      5  C   UNL     1      44.982   4.667   9.670  0.00  0.00    +0.000 A 
ATOM      6  C   UNL     1      45.884   5.589  10.215  0.00  0.00    +0.000 A 
ATOM      7  C   UNL     1      45.457   6.420  11.245  0.00  0.00    +0.000 A 
ATOM      8  N   UNL     1      44.195   6.372  11.735  0.00  0.00    +0.000 NA
ATOM      9  H   UNL     1      41.710   4.580  11.971  0.00  0.00    +0.000 HD
ATOM     10  H   UNL     1      42.033   6.147  12.497  0.00  0.00    +0.000 HD
BRANCH   5  11
ATOM     11  C   UNL     1      45.403   3.754   8.551  0.00  0.00    +0.000 C 
ATOM     12  F   UNL     1      44.444   3.576   7.600  0.00  0.00    +0.000 F 
ATOM     13  F   UNL     1      46.503   4.210   7.893  0.00  0.00    +0.000 F 
ATOM     14  F   UNL     1      45.723   2.506   8.994  0.00  0.00    +0.000 F 
ENDBRANCH   5  11
ENDBRANCH   1   7
BRANCH   1  15
ATOM     15  C   UNL     1      47.610   6.799  12.476  0.00  0.00    +0.000 C 
BRANCH  15  16
ATOM     16  C   UNL     1      48.054   7.351  13.814  0.00  0.00    +0.000 A 
ATOM     17  C   UNL     1      48.093   8.707  14.122  0.00  0.00    +0.000 A 
ATOM     18  C   UNL     1      48.480   9.085  15.402  0.00  0.00    +0.000 A 
ATOM     19  N   UNL     1      48.813   8.214  16.375  0.00  0.00    +0.000 NA
ATOM     20  C   UNL     1      48.760   6.895  16.091  0.00  0.00    +0.000 A 
ATOM     21  C   UNL     1      48.382   6.437  14.830  0.00  0.00    +0.000 A 
BRANCH  20  22
ATOM     22  C   UNL     1      49.131   5.897  17.178  0.00  0.00    +0.000 C 
ATOM     23  C   UNL     1      48.642   4.474  16.883  0.00  0.00    +0.000 C 
ATOM     24  C   UNL     1      47.156   4.276  17.181  0.00  0.00    +0.000 C 
ATOM     25  N   UNL     1      46.793   4.687  18.540  0.00  0.00    +0.000 NA
ATOM     26  C   UNL     1      47.173   6.075  18.810  0.00  0.00    +0.000 C 
ATOM     27  C   UNL     1      48.661   6.335  18.571  0.00  0.00    +0.000 C 
ATOM     28  H   UNL     1      47.244   4.073  19.211  0.00  0.00    +0.000 HD
ENDBRANCH  20  22
ENDBRANCH  15  16
ENDBRANCH   1  15
TORSDOF 5
ENDMDL
MODEL 5
REMARK VINA RESULT:    -7.216      1.597      2.741
REMARK INTER + INTRA:          -9.680
REMARK INTER:                  -9.196
REMARK INTRA:                  -0.483
REMARK UNBOUND:                -0.355
REMARK  Name = 
REMARK  5 active torsions:
REMARK  status: ('A' for Active; 'I' for Inactive)
REMARK    1  A    between atoms: C_4  and  C_5
REMARK    2  A    between atoms: C_10  and  C_11
REMARK    3  A    between atoms: C_11  and  C_12
REMARK    4  A    between atoms: C_12  and  C_13
REMARK    5  A    between atoms: C_17  and  C_18
REMARK                            x       y       z     vdW  Elec       q    Type
REMARK                         _______ _______ _______ _____ _____    ______ ____
ROOT
ATOM      1  C   UNL     1      45.350   6.607  11.427  0.00  0.00    +0.000 C 
ENDROOT
BRANCH   1   7
ATOM      2  N   UNL     1      43.135   2.397  11.567  0.00  0.00    +0.000 N 
ATOM      3  C   UNL     1      44.019   3.221  10.880  0.00  0.00    +0.000 A 
ATOM      4  C   UNL     1      44.536   2.833   9.656  0.00  0.00    +0.000 A 
ATOM      5  C   UNL     1      45.382   3.706   8.969  0.00  0.00    +0.000 A 
ATOM      6  C   UNL     1      45.668   4.950   9.545  0.00  0.00    +0.000 A 
ATOM      7  C   UNL     1      45.104   5.266  10.776  0.00  0.00    +0.000 A 
ATOM      8  N   UNL     1      44.283   4.414  11.435  0.00  0.00    +0.000 NA
ATOM      9  H   UNL     1      43.487   1.456  11.681  0.00  0.00    +0.000 HD
ATOM     10  H   UNL     1      42.942   2.845  12.459  0.00  0.00    +0.000 HD
BRANCH   5  11
ATOM     11  C   UNL     1      45.968   3.328   7.635  0.00  0.00    +0.000 C 
ATOM     12  F   UNL     1      46.819   4.262   7.127  0.00  0.00    +0.000 F 
ATOM     13  F   UNL     1      46.675   2.168   7.688  0.00  0.00    +0.000 F 
ATOM     14  F   UNL     1      45.011   3.140   6.685  0.00  0.00    +0.000 F 
ENDBRANCH   5  11
ENDBRANCH   1   7
BRANCH   1  15
ATOM     15  C   UNL     1      46.814   6.751  11.856  0.00  0.00    +0.000 C 
BRANCH  15  16
ATOM     16  C   UNL     1      47.178   6.163  13.203  0.00  0.00    +0.000 A 
ATOM     17  C   UNL     1      46.684   4.954  13.683  0.00  0.00    +0.000 A 
ATOM     18  C   UNL     1      47.129   4.501  14.920  0.00  0.00    +0.000 A 
ATOM     19  N   UNL     1      48.021   5.159  15.686  0.00  0.00    +0.000 NA
ATOM     20  C   UNL     1      48.520   6.324  15.219  0.00  0.00    +0.000 A 
ATOM     21  C   UNL     1      48.124   6.844  13.988  0.00  0.00    +0.000 A 
BRANCH  20  22
ATOM     22  C   UNL     1      49.530   7.081  16.069  0.00  0.00    +0.000 C 
ATOM     23  C   UNL     1      49.503   6.671  17.547  0.00  0.00    +0.000 C 
ATOM     24  C   UNL     1      48.347   7.302  18.323  0.00  0.00    +0.000 C 
ATOM     25  N   UNL     1      48.300   8.760  18.179  0.00  0.00    +0.000 NA
ATOM     26  C   UNL     1      48.235   9.167  16.774  0.00  0.00    +0.000 C 
ATOM     27  C   UNL     1      49.389   8.603  15.943  0.00  0.00    +0.000 C 
ATOM     28  H   UNL     1      49.120   9.170  18.616  0.00  0.00    +0.000 HD
ENDBRANCH  20  22
ENDBRANCH  15  16
ENDBRANCH   1  15
TORSDOF 5
ENDMDL
MODEL 6
REMARK VINA RESULT:    -7.181      2.423      3.181
REMARK INTER + INTRA:          -9.635
REMARK INTER:                  -8.620
REMARK INTRA:                  -1.015
REMARK UNBOUND:                -0.355
REMARK  Name = 
REMARK  5 active torsions:
REMARK  status: ('A' for Active; 'I' for Inactive)
REMARK    1  A    between atoms: C_4  and  C_5
REMARK    2  A    between atoms: C_10  and  C_11
REMARK    3  A    between atoms: C_11  and  C_12
REMARK    4  A    between atoms: C_12  and  C_13
REMARK    5  A    between atoms: C_17  and  C_18
REMARK                            x       y       z     vdW  Elec       q    Type
REMARK                         _______ _______ _______ _____ _____    ______ ____
ROOT
ATOM      1  C   UNL     1      48.043   7.671  12.590  0.00  0.00    +0.000 C 
ENDROOT
BRANCH   1   7
ATOM      2  N   UNL     1      43.555   8.057  11.054  0.00  0.00    +0.000 N 
ATOM      3  C   UNL     1      44.549   7.211  11.530  0.00  0.00    +0.000 A 
ATOM      4  C   UNL     1      44.336   5.845  11.602  0.00  0.00    +0.000 A 
ATOM      5  C   UNL     1      45.374   5.018  12.038  0.00  0.00    +0.000 A 
ATOM      6  C   UNL     1      46.599   5.606  12.376  0.00  0.00    +0.000 A 
ATOM      7  C   UNL     1      46.734   6.987  12.271  0.00  0.00    +0.000 A 
ATOM      8  N   UNL     1      45.722   7.781  11.846  0.00  0.00    +0.000 NA
ATOM      9  H   UNL     1      42.669   7.922  11.525  0.00  0.00    +0.000 HD
ATOM     10  H   UNL     1      43.901   9.008  11.153  0.00  0.00    +0.000 HD
BRANCH   5  11
ATOM     11  C   UNL     1      45.189   3.528  12.133  0.00  0.00    +0.000 C 
ATOM     12  F   UNL     1      45.205   2.897  10.926  0.00  0.00    +0.000 F 
ATOM     13  F   UNL     1      46.155   2.930  12.880  0.00  0.00    +0.000 F 
ATOM     14  F   UNL     1      44.004   3.190  12.713  0.00  0.00    +0.000 F 
ENDBRANCH   5  11
ENDBRANCH   1   7
BRANCH   1  15
ATOM     15  C   UNL     1      48.096   8.102  14.059  0.00  0.00    +0.000 C 
BRANCH  15  16
ATOM     16  C   UNL     1      49.058   7.341  14.946  0.00  0.00    +0.000 A 
ATOM     17  C   UNL     1      50.415   7.632  15.052  0.00  0.00    +0.000 A 
ATOM     18  C   UNL     1      51.186   6.885  15.935  0.00  0.00    +0.000 A 
ATOM     19  N   UNL     1      50.697   5.896  16.708  0.00  0.00    +0.000 NA
ATOM     20  C   UNL     1      49.378   5.619  16.627  0.00  0.00    +0.000 A 
ATOM     21  C   UNL     1      48.539   6.324  15.765  0.00  0.00    +0.000 A 
BRANCH  20  22
ATOM     22  C   UNL     1      48.808   4.507  17.494  0.00  0.00    +0.000 C 
ATOM     23  C   UNL     1      49.872   3.517  17.984  0.00  0.00    +0.000 C 
ATOM     24  C   UNL     1      50.284   2.502  16.918  0.00  0.00    +0.000 C 
ATOM     25  N   UNL     1      49.137   1.798  16.336  0.00  0.00    +0.000 NA
ATOM     26  C   UNL     1      48.150   2.728  15.782  0.00  0.00    +0.000 C 
ATOM     27  C   UNL     1      47.662   3.749  16.810  0.00  0.00    +0.000 C 
ATOM     28  H   UNL     1      48.700   1.219  17.046  0.00  0.00    +0.000 HD
ENDBRANCH  20  22
ENDBRANCH  15  16
ENDBRANCH   1  15
TORSDOF 5
ENDMDL
MODEL 7
REMARK VINA RESULT:    -7.146      1.520      2.029
REMARK INTER + INTRA:          -9.589
REMARK INTER:                  -8.996
REMARK INTRA:                  -0.594
REMARK UNBOUND:                -0.355
REMARK  Name = 
REMARK  5 active torsions:
REMARK  status: ('A' for Active; 'I' for Inactive)
REMARK    1  A    between atoms: C_4  and  C_5
REMARK    2  A    between atoms: C_10  and  C_11
REMARK    3  A    between atoms: C_11  and  C_12
REMARK    4  A    between atoms: C_12  and  C_13
REMARK    5  A    between atoms: C_17  and  C_18
REMARK                            x       y       z     vdW  Elec       q    Type
REMARK                         _______ _______ _______ _____ _____    ______ ____
ROOT
ATOM      1  C   UNL     1      46.216   4.697  13.653  0.00  0.00    +0.000 C 
ENDROOT
BRANCH   1   7
ATOM      2  N   UNL     1      42.134   6.161  11.691  0.00  0.00    +0.000 N 
ATOM      3  C   UNL     1      43.216   5.292  11.607  0.00  0.00    +0.000 A 
ATOM      4  C   UNL     1      43.362   4.454  10.516  0.00  0.00    +0.000 A 
ATOM      5  C   UNL     1      44.487   3.629  10.439  0.00  0.00    +0.000 A 
ATOM      6  C   UNL     1      45.432   3.691  11.471  0.00  0.00    +0.000 A 
ATOM      7  C   UNL     1      45.213   4.564  12.531  0.00  0.00    +0.000 A 
ATOM      8  N   UNL     1      44.120   5.361  12.596  0.00  0.00    +0.000 NA
ATOM      9  H   UNL     1      41.247   5.693  11.558  0.00  0.00    +0.000 HD
ATOM     10  H   UNL     1      42.193   6.623  12.595  0.00  0.00    +0.000 HD
BRANCH   5  11
ATOM     11  C   UNL     1      44.689   2.701   9.271  0.00  0.00    +0.000 C 
ATOM     12  F   UNL     1      43.957   1.555   9.351  0.00  0.00    +0.000 F 
ATOM     13  F   UNL     1      44.354   3.277   8.086  0.00  0.00    +0.000 F 
ATOM     14  F   UNL     1      45.986   2.306   9.143  0.00  0.00    +0.000 F 
ENDBRANCH   5  11
ENDBRANCH   1   7
BRANCH   1  15
ATOM     15  C   UNL     1      46.999   6.009  13.540  0.00  0.00    +0.000 C 
BRANCH  15  16
ATOM     16  C   UNL     1      48.124   6.205  14.534  0.00  0.00    +0.000 A 
ATOM     17  C   UNL     1      49.139   7.146  14.385  0.00  0.00    +0.000 A 
ATOM     18  C   UNL     1      50.093   7.256  15.390  0.00  0.00    +0.000 A 
ATOM     19  N   UNL     1      50.092   6.511  16.513  0.00  0.00    +0.000 NA
ATOM     20  C   UNL     1      49.100   5.610  16.676  0.00  0.00    +0.000 A 
ATOM     21  C   UNL     1      48.107   5.440  15.712  0.00  0.00    +0.000 A 
BRANCH  20  22
ATOM     22  C   UNL     1      49.081   4.761  17.938  0.00  0.00    +0.000 C 
ATOM     23  C   UNL     1      50.475   4.543  18.540  0.00  0.00    +0.000 C 
ATOM     24  C   UNL     1      51.283   3.471  17.808  0.00  0.00    +0.000 C 
ATOM     25  N   UNL     1      50.558   2.203  17.684  0.00  0.00    +0.000 NA
ATOM     26  C   UNL     1      49.259   2.380  17.029  0.00  0.00    +0.000 C 
ATOM     27  C   UNL     1      48.379   3.412  17.736  0.00  0.00    +0.000 C 
ATOM     28  H   UNL     1      50.423   1.799  18.605  0.00  0.00    +0.000 HD
ENDBRANCH  20  22
ENDBRANCH  15  16
ENDBRANCH   1  15
TORSDOF 5
ENDMDL
MODEL 8
REMARK VINA RESULT:    -6.926      4.627      7.930
REMARK INTER + INTRA:          -9.306
REMARK INTER:                  -9.005
REMARK INTRA:                  -0.300
REMARK UNBOUND:                -0.355
REMARK  Name = 
REMARK  5 active torsions:
REMARK  status: ('A' for Active; 'I' for Inactive)
REMARK    1  A    between atoms: C_4  and  C_5
REMARK    2  A    between atoms: C_10  and  C_11
REMARK    3  A    between atoms: C_11  and  C_12
REMARK    4  A    between atoms: C_12  and  C_13
REMARK    5  A    between atoms: C_17  and  C_18
REMARK                            x       y       z     vdW  Elec       q    Type
REMARK                         _______ _______ _______ _____ _____    ______ ____
ROOT
ATOM      1  C   UNL     1      46.910   4.323  14.900  0.00  0.00    +0.000 C 
ENDROOT
BRANCH   1   7
ATOM      2  N   UNL     1      50.190   1.414  16.752  0.00  0.00    +0.000 N 
ATOM      3  C   UNL     1      49.328   2.480  16.974  0.00  0.00    +0.000 A 
ATOM      4  C   UNL     1      49.327   3.144  18.189  0.00  0.00    +0.000 A 
ATOM      5  C   UNL     1      48.483   4.243  18.362  0.00  0.00    +0.000 A 
ATOM      6  C   UNL     1      47.673   4.638  17.290  0.00  0.00    +0.000 A 
ATOM      7  C   UNL     1      47.736   3.920  16.100  0.00  0.00    +0.000 A 
ATOM      8  N   UNL     1      48.559   2.857  15.941  0.00  0.00    +0.000 NA
ATOM      9  H   UNL     1      50.131   0.707  17.473  0.00  0.00    +0.000 HD
ATOM     10  H   UNL     1      49.972   1.041  15.831  0.00  0.00    +0.000 HD
BRANCH   5  11
ATOM     11  C   UNL     1      48.449   4.996  19.664  0.00  0.00    +0.000 C 
ATOM     12  F   UNL     1      48.710   4.218  20.752  0.00  0.00    +0.000 F 
ATOM     13  F   UNL     1      49.354   6.010  19.703  0.00  0.00    +0.000 F 
ATOM     14  F   UNL     1      47.235   5.568  19.900  0.00  0.00    +0.000 F 
ENDBRANCH   5  11
ENDBRANCH   1   7
BRANCH   1  15
ATOM     15  C   UNL     1      47.444   5.614  14.271  0.00  0.00    +0.000 C 
BRANCH  15  16
ATOM     16  C   UNL     1      46.535   6.298  13.272  0.00  0.00    +0.000 A 
ATOM     17  C   UNL     1      46.757   7.575  12.765  0.00  0.00    +0.000 A 
ATOM     18  C   UNL     1      45.870   8.075  11.819  0.00  0.00    +0.000 A 
ATOM     19  N   UNL     1      44.806   7.394  11.352  0.00  0.00    +0.000 NA
ATOM     20  C   UNL     1      44.593   6.147  11.823  0.00  0.00    +0.000 A 
ATOM     21  C   UNL     1      45.438   5.575  12.773  0.00  0.00    +0.000 A 
BRANCH  20  22
ATOM     22  C   UNL     1      43.398   5.362  11.305  0.00  0.00    +0.000 C 
ATOM     23  C   UNL     1      42.877   4.324  12.307  0.00  0.00    +0.000 C 
ATOM     24  C   UNL     1      43.721   3.050  12.345  0.00  0.00    +0.000 C 
ATOM     25  N   UNL     1      43.907   2.456  11.018  0.00  0.00    +0.000 NA
ATOM     26  C   UNL     1      44.488   3.409  10.070  0.00  0.00    +0.000 C 
ATOM     27  C   UNL     1      43.668   4.695   9.951  0.00  0.00    +0.000 C 
ATOM     28  H   UNL     1      43.013   2.127  10.667  0.00  0.00    +0.000 HD
ENDBRANCH  20  22
ENDBRANCH  15  16
ENDBRANCH   1  15
TORSDOF 5
ENDMDL
MODEL 9
REMARK VINA RESULT:    -6.902      3.857      7.294
REMARK INTER + INTRA:          -9.274
REMARK INTER:                  -8.423
REMARK INTRA:                  -0.851
REMARK UNBOUND:                -0.355
REMARK  Name = 
REMARK  5 active torsions:
REMARK  status: ('A' for Active; 'I' for Inactive)
REMARK    1  A    between atoms: C_4  and  C_5
REMARK    2  A    between atoms: C_10  and  C_11
REMARK    3  A    between atoms: C_11  and  C_12
REMARK    4  A    between atoms: C_12  and  C_13
REMARK    5  A    between atoms: C_17  and  C_18
REMARK                            x       y       z     vdW  Elec       q    Type
REMARK                         _______ _______ _______ _____ _____    ______ ____
ROOT
ATOM      1  C   UNL     1      49.346   7.666  14.308  0.00  0.00    +0.000 C 
ENDROOT
BRANCH   1   7
ATOM      2  N   UNL     1      52.159   5.603  17.546  0.00  0.00    +0.000 N 
ATOM      3  C   UNL     1      50.886   5.678  16.995  0.00  0.00    +0.000 A 
ATOM      4  C   UNL     1      49.842   4.945  17.533  0.00  0.00    +0.000 A 
ATOM      5  C   UNL     1      48.564   5.082  16.986  0.00  0.00    +0.000 A 
ATOM      6  C   UNL     1      48.386   5.968  15.917  0.00  0.00    +0.000 A 
ATOM      7  C   UNL     1      49.486   6.671  15.438  0.00  0.00    +0.000 A 
ATOM      8  N   UNL     1      50.722   6.534  15.974  0.00  0.00    +0.000 NA
ATOM      9  H   UNL     1      52.487   4.651  17.642  0.00  0.00    +0.000 HD
ATOM     10  H   UNL     1      52.772   6.162  16.957  0.00  0.00    +0.000 HD
BRANCH   5  11
ATOM     11  C   UNL     1      47.398   4.305  17.538  0.00  0.00    +0.000 C 
ATOM     12  F   UNL     1      46.587   3.782  16.578  0.00  0.00    +0.000 F 
ATOM     13  F   UNL     1      47.791   3.256  18.309  0.00  0.00    +0.000 F 
ATOM     14  F   UNL     1      46.595   5.070  18.328  0.00  0.00    +0.000 F 
ENDBRANCH   5  11
ENDBRANCH   1   7
BRANCH   1  15
ATOM     15  C   UNL     1      48.808   6.990  13.043  0.00  0.00    +0.000 C 
BRANCH  15  16
ATOM     16  C   UNL     1      47.389   7.341  12.648  0.00  0.00    +0.000 A 
ATOM     17  C   UNL     1      46.835   8.610  12.782  0.00  0.00    +0.000 A 
ATOM     18  C   UNL     1      45.532   8.814  12.343  0.00  0.00    +0.000 A 
ATOM     19  N   UNL     1      44.768   7.855  11.783  0.00  0.00    +0.000 NA
ATOM     20  C   UNL     1      45.304   6.625  11.632  0.00  0.00    +0.000 A 
ATOM     21  C   UNL     1      46.605   6.342  12.047  0.00  0.00    +0.000 A 
BRANCH  20  22
ATOM     22  C   UNL     1      44.457   5.531  10.999  0.00  0.00    +0.000 C 
ATOM     23  C   UNL     1      43.039   5.455  11.577  0.00  0.00    +0.000 C 
ATOM     24  C   UNL     1      42.978   4.747  12.930  0.00  0.00    +0.000 C 
ATOM     25  N   UNL     1      43.608   3.424  12.904  0.00  0.00    +0.000 NA
ATOM     26  C   UNL     1      44.995   3.489  12.438  0.00  0.00    +0.000 C 
ATOM     27  C   UNL     1      45.125   4.151  11.066  0.00  0.00    +0.000 C 
ATOM     28  H   UNL     1      43.074   2.807  12.299  0.00  0.00    +0.000 HD
ENDBRANCH  20  22
ENDBRANCH  15  16
ENDBRANCH   1  15
TORSDOF 5
ENDMDL
