MODEL 1
REMARK VINA RESULT:    -8.349      0.000      0.000
REMARK INTER + INTRA:         -12.181
REMARK INTER:                 -11.277
REMARK INTRA:                  -0.904
REMARK UNBOUND:                -0.904
REMARK  Name = 
REMARK  7 active torsions:
REMARK  status: ('A' for Active; 'I' for Inactive)
REMARK    1  A    between atoms: C_1  and  C_2
REMARK    2  A    between atoms: C_2  and  C_3
REMARK    3  A    between atoms: C_2  and  C_14
REMARK    4  A    between atoms: C_3  and  N_4
REMARK    5  A    between atoms: C_8  and  C_9
REMARK    6  A    between atoms: C_19  and  O_20
REMARK    7  A    between atoms: O_20  and  C_21
REMARK                            x       y       z     vdW  Elec       q    Type
REMARK                         _______ _______ _______ _____ _____    ______ ____
ROOT
ATOM      1  C   UNL     1      42.848   5.203  12.960  0.00  0.00    +0.000 C 
ATOM      2  C   UNL     1      43.943   4.310  12.367  0.00  0.00    +0.000 C 
ENDROOT
BRANCH   2   3
ATOM      3  C   UNL     1      45.314   4.940  12.650  0.00  0.00    +0.000 A 
ATOM      4  C   UNL     1      45.946   5.828  11.769  0.00  0.00    +0.000 A 
ATOM      5  C   UNL     1      47.184   6.379  12.103  0.00  0.00    +0.000 A 
ATOM      6  F   UNL     1      47.776   7.220  11.242  0.00  0.00    +0.000 F 
ATOM      7  C   UNL     1      47.825   6.068  13.300  0.00  0.00    +0.000 A 
ATOM      8  C   UNL     1      47.224   5.176  14.188  0.00  0.00    +0.000 A 
ATOM      9  C   UNL     1      45.964   4.646  13.868  0.00  0.00    +0.000 A 
BRANCH   8  10
ATOM     10  O   UNL     1      47.954   4.882  15.318  0.00  0.00    +0.000 OA
BRANCH  10  11
ATOM     11  C   UNL     1      47.355   3.980  16.262  0.00  0.00    +0.000 C 
ATOM     12  C   UNL     1      47.259   4.627  17.631  0.00  0.00    +0.000 C 
ATOM     13  C   UNL     1      48.582   4.291  18.286  0.00  0.00    +0.000 C 
ATOM     14  O   UNL     1      49.050   3.074  17.703  0.00  0.00    +0.000 OA
ATOM     15  C   UNL     1      48.245   2.773  16.552  0.00  0.00    +0.000 C 
ENDBRANCH  10  11
ENDBRANCH   8  10
ENDBRANCH   2   3
BRANCH   2  16
ATOM     16  C   UNL     1      43.685   4.000  10.870  0.00  0.00    +0.000 C 
BRANCH  16  17
ATOM     17  N   UNL     1      44.099   2.634  10.485  0.00  0.00    +0.000 N 
ATOM     18  C   UNL     1      44.965   2.618   9.369  0.00  0.00    +0.000 A 
ATOM     19  C   UNL     1      45.419   1.401   8.871  0.00  0.00    +0.000 A 
ATOM     20  C   UNL     1      46.255   1.381   7.749  0.00  0.00    +0.000 A 
ATOM     21  C   UNL     1      46.630   2.581   7.139  0.00  0.00    +0.000 A 
ATOM     22  C   UNL     1      46.153   3.743   7.716  0.00  0.00    +0.000 A 
ATOM     23  N   UNL     1      45.343   3.783   8.803  0.00  0.00    +0.000 NA
ATOM     24  H   UNL     1      43.305   2.043  10.248  0.00  0.00    +0.000 HD
BRANCH  21  25
ATOM     25  C   UNL     1      47.492   2.559   5.933  0.00  0.00    +0.000 C 
ATOM     26  N   UNL     1      48.848   2.697   6.083  0.00  0.00    +0.000 N 
ATOM     27  O   UNL     1      47.017   2.429   4.814  0.00  0.00    +0.000 OA
ATOM     28  H   UNL     1      49.347   2.817   6.951  0.00  0.00    +0.000 HD
ATOM     29  H   UNL     1      49.399   2.685   5.233  0.00  0.00    +0.000 HD
ENDBRANCH  21  25
ENDBRANCH  16  17
ENDBRANCH   2  16
TORSDOF 6
ENDMDL
MODEL 2
REMARK VINA RESULT:    -7.508      3.192      4.903
REMARK INTER + INTRA:         -11.045
REMARK INTER:                 -10.208
REMARK INTRA:                  -0.838
REMARK UNBOUND:                -0.904
REMARK  Name = 
REMARK  7 active torsions:
REMARK  status: ('A' for Active; 'I' for Inactive)
REMARK    1  A    between atoms: C_1  and  C_2
REMARK    2  A    between atoms: C_2  and  C_3
REMARK    3  A    between atoms: C_2  and  C_14
REMARK    4  A    between atoms: C_3  and  N_4
REMARK    5  A    between atoms: C_8  and  C_9
REMARK    6  A    between atoms: C_19  and  O_20
REMARK    7  A    between atoms: O_20  and  C_21
REMARK                            x       y       z     vdW  Elec       q    Type
REMARK                         _______ _______ _______ _____ _____    ______ ____
ROOT
ATOM      1  C   UNL     1      42.113   5.793  12.007  0.00  0.00    +0.000 C 
ATOM      2  C   UNL     1      43.336   4.880  12.157  0.00  0.00    +0.000 C 
ENDROOT
BRANCH   2   3
ATOM      3  C   UNL     1      44.549   5.727  12.562  0.00  0.00    +0.000 A 
ATOM      4  C   UNL     1      45.746   5.175  13.039  0.00  0.00    +0.000 A 
ATOM      5  C   UNL     1      46.816   6.008  13.369  0.00  0.00    +0.000 A 
ATOM      6  F   UNL     1      47.949   5.459  13.832  0.00  0.00    +0.000 F 
ATOM      7  C   UNL     1      46.733   7.392  13.241  0.00  0.00    +0.000 A 
ATOM      8  C   UNL     1      45.549   7.969  12.783  0.00  0.00    +0.000 A 
ATOM      9  C   UNL     1      44.482   7.130  12.420  0.00  0.00    +0.000 A 
BRANCH   8  10
ATOM     10  O   UNL     1      45.536   9.346  12.743  0.00  0.00    +0.000 OA
BRANCH  10  11
ATOM     11  C   UNL     1      45.199   9.956  11.486  0.00  0.00    +0.000 C 
ATOM     12  C   UNL     1      46.170  11.075  11.160  0.00  0.00    +0.000 C 
ATOM     13  C   UNL     1      45.554  12.293  11.814  0.00  0.00    +0.000 C 
ATOM     14  O   UNL     1      44.143  12.078  11.876  0.00  0.00    +0.000 OA
ATOM     15  C   UNL     1      43.870  10.707  11.548  0.00  0.00    +0.000 C 
ENDBRANCH  10  11
ENDBRANCH   8  10
ENDBRANCH   2   3
BRANCH   2  16
ATOM     16  C   UNL     1      43.562   4.010  10.894  0.00  0.00    +0.000 C 
BRANCH  16  17
ATOM     17  N   UNL     1      44.290   4.727   9.825  0.00  0.00    +0.000 N 
ATOM     18  C   UNL     1      45.051   3.862   9.007  0.00  0.00    +0.000 A 
ATOM     19  C   UNL     1      45.815   4.394   7.972  0.00  0.00    +0.000 A 
ATOM     20  C   UNL     1      46.591   3.543   7.178  0.00  0.00    +0.000 A 
ATOM     21  C   UNL     1      46.592   2.168   7.426  0.00  0.00    +0.000 A 
ATOM     22  C   UNL     1      45.786   1.725   8.457  0.00  0.00    +0.000 A 
ATOM     23  N   UNL     1      45.026   2.534   9.238  0.00  0.00    +0.000 NA
ATOM     24  H   UNL     1      44.934   5.421  10.196  0.00  0.00    +0.000 HD
BRANCH  21  25
ATOM     25  C   UNL     1      47.438   1.269   6.603  0.00  0.00    +0.000 C 
ATOM     26  N   UNL     1      48.516   1.795   5.940  0.00  0.00    +0.000 N 
ATOM     27  O   UNL     1      47.185   0.077   6.501  0.00  0.00    +0.000 OA
ATOM     28  H   UNL     1      48.813   2.759   5.945  0.00  0.00    +0.000 HD
ATOM     29  H   UNL     1      49.061   1.148   5.382  0.00  0.00    +0.000 HD
ENDBRANCH  21  25
ENDBRANCH  16  17
ENDBRANCH   2  16
TORSDOF 6
ENDMDL
MODEL 3
REMARK VINA RESULT:    -7.470      1.253      1.543
REMARK INTER + INTRA:         -10.993
REMARK INTER:                 -10.297
REMARK INTRA:                  -0.696
REMARK UNBOUND:                -0.904
REMARK  Name = 
REMARK  7 active torsions:
REMARK  status: ('A' for Active; 'I' for Inactive)
REMARK    1  A    between atoms: C_1  and  C_2
REMARK    2  A    between atoms: C_2  and  C_3
REMARK    3  A    between atoms: C_2  and  C_14
REMARK    4  A    between atoms: C_3  and  N_4
REMARK    5  A    between atoms: C_8  and  C_9
REMARK    6  A    between atoms: C_19  and  O_20
REMARK    7  A    between atoms: O_20  and  C_21
REMARK                            x       y       z     vdW  Elec       q    Type
REMARK                         _______ _______ _______ _____ _____    ______ ____
ROOT
ATOM      1  C   UNL     1      42.442   6.116  12.194  0.00  0.00    +0.000 C 
ATOM      2  C   UNL     1      43.506   5.012  12.248  0.00  0.00    +0.000 C 
ENDROOT
BRANCH   2   3
ATOM      3  C   UNL     1      44.864   5.639  12.586  0.00  0.00    +0.000 A 
ATOM      4  C   UNL     1      45.295   6.866  12.064  0.00  0.00    +0.000 A 
ATOM      5  C   UNL     1      46.536   7.385  12.432  0.00  0.00    +0.000 A 
ATOM      6  F   UNL     1      46.932   8.557  11.914  0.00  0.00    +0.000 F 
ATOM      7  C   UNL     1      47.378   6.713  13.315  0.00  0.00    +0.000 A 
ATOM      8  C   UNL     1      46.981   5.483  13.839  0.00  0.00    +0.000 A 
ATOM      9  C   UNL     1      45.718   4.974  13.493  0.00  0.00    +0.000 A 
BRANCH   8  10
ATOM     10  O   UNL     1      47.899   4.862  14.657  0.00  0.00    +0.000 OA
BRANCH  10  11
ATOM     11  C   UNL     1      47.377   4.086  15.747  0.00  0.00    +0.000 C 
ATOM     12  C   UNL     1      47.695   4.750  17.074  0.00  0.00    +0.000 C 
ATOM     13  C   UNL     1      49.052   4.191  17.445  0.00  0.00    +0.000 C 
ATOM     14  O   UNL     1      49.168   2.907  16.830  0.00  0.00    +0.000 OA
ATOM     15  C   UNL     1      48.092   2.744  15.894  0.00  0.00    +0.000 C 
ENDBRANCH  10  11
ENDBRANCH   8  10
ENDBRANCH   2   3
BRANCH   2  16
ATOM     16  C   UNL     1      43.507   4.153  10.958  0.00  0.00    +0.000 C 
BRANCH  16  17
ATOM     17  N   UNL     1      44.260   4.780   9.850  0.00  0.00    +0.000 N 
ATOM     18  C   UNL     1      44.993   3.842   9.088  0.00  0.00    +0.000 A 
ATOM     19  C   UNL     1      45.775   4.285   8.026  0.00  0.00    +0.000 A 
ATOM     20  C   UNL     1      46.524   3.363   7.286  0.00  0.00    +0.000 A 
ATOM     21  C   UNL     1      46.479   2.006   7.616  0.00  0.00    +0.000 A 
ATOM     22  C   UNL     1      45.656   1.652   8.669  0.00  0.00    +0.000 A 
ATOM     23  N   UNL     1      44.923   2.532   9.398  0.00  0.00    +0.000 NA
ATOM     24  H   UNL     1      44.927   5.473  10.181  0.00  0.00    +0.000 HD
BRANCH  21  25
ATOM     25  C   UNL     1      47.295   1.032   6.851  0.00  0.00    +0.000 C 
ATOM     26  N   UNL     1      47.120  -0.308   7.085  0.00  0.00    +0.000 N 
ATOM     27  O   UNL     1      48.119   1.401   6.027  0.00  0.00    +0.000 OA
ATOM     28  H   UNL     1      46.479  -0.725   7.742  0.00  0.00    +0.000 HD
ATOM     29  H   UNL     1      47.703  -0.939   6.547  0.00  0.00    +0.000 HD
ENDBRANCH  21  25
ENDBRANCH  16  17
ENDBRANCH   2  16
TORSDOF 6
ENDMDL
MODEL 4
REMARK VINA RESULT:    -7.148      3.246      8.589
REMARK INTER + INTRA:         -10.559
REMARK INTER:                 -10.201
REMARK INTRA:                  -0.357
REMARK UNBOUND:                -0.904
REMARK  Name = 
REMARK  7 active torsions:
REMARK  status: ('A' for Active; 'I' for Inactive)
REMARK    1  A    between atoms: C_1  and  C_2
REMARK    2  A    between atoms: C_2  and  C_3
REMARK    3  A    between atoms: C_2  and  C_14
REMARK    4  A    between atoms: C_3  and  N_4
REMARK    5  A    between atoms: C_8  and  C_9
REMARK    6  A    between atoms: C_19  and  O_20
REMARK    7  A    between atoms: O_20  and  C_21
REMARK                            x       y       z     vdW  Elec       q    Type
REMARK                         _______ _______ _______ _____ _____    ______ ____
ROOT
ATOM      1  C   UNL     1      44.714   7.204  11.688  0.00  0.00    +0.000 C 
ATOM      2  C   UNL     1      45.887   6.382  11.140  0.00  0.00    +0.000 C 
ENDROOT
BRANCH   2   3
ATOM      3  C   UNL     1      45.344   5.092  10.509  0.00  0.00    +0.000 A 
ATOM      4  C   UNL     1      44.515   4.193  11.193  0.00  0.00    +0.000 A 
ATOM      5  C   UNL     1      44.043   3.049  10.549  0.00  0.00    +0.000 A 
ATOM      6  F   UNL     1      43.257   2.198  11.224  0.00  0.00    +0.000 F 
ATOM      7  C   UNL     1      44.375   2.765   9.227  0.00  0.00    +0.000 A 
ATOM      8  C   UNL     1      45.212   3.635   8.527  0.00  0.00    +0.000 A 
ATOM      9  C   UNL     1      45.661   4.802   9.165  0.00  0.00    +0.000 A 
BRANCH   8  10
ATOM     10  O   UNL     1      45.534   3.246   7.246  0.00  0.00    +0.000 OA
BRANCH  10  11
ATOM     11  C   UNL     1      46.928   3.049   6.959  0.00  0.00    +0.000 C 
ATOM     12  C   UNL     1      47.186   3.157   5.468  0.00  0.00    +0.000 C 
ATOM     13  C   UNL     1      46.975   1.747   4.959  0.00  0.00    +0.000 C 
ATOM     14  O   UNL     1      47.262   0.855   6.037  0.00  0.00    +0.000 OA
ATOM     15  C   UNL     1      47.381   1.618   7.248  0.00  0.00    +0.000 C 
ENDBRANCH  10  11
ENDBRANCH   8  10
ENDBRANCH   2   3
BRANCH   2  16
ATOM     16  C   UNL     1      46.979   6.151  12.215  0.00  0.00    +0.000 C 
BRANCH  16  17
ATOM     17  N   UNL     1      46.613   5.103  13.192  0.00  0.00    +0.000 N 
ATOM     18  C   UNL     1      47.314   5.224  14.413  0.00  0.00    +0.000 A 
ATOM     19  C   UNL     1      47.097   4.292  15.423  0.00  0.00    +0.000 A 
ATOM     20  C   UNL     1      47.809   4.393  16.623  0.00  0.00    +0.000 A 
ATOM     21  C   UNL     1      48.729   5.429  16.800  0.00  0.00    +0.000 A 
ATOM     22  C   UNL     1      48.863   6.324  15.755  0.00  0.00    +0.000 A 
ATOM     23  N   UNL     1      48.181   6.242  14.585  0.00  0.00    +0.000 NA
ATOM     24  H   UNL     1      46.798   4.167  12.840  0.00  0.00    +0.000 HD
BRANCH  21  25
ATOM     25  C   UNL     1      49.506   5.520  18.061  0.00  0.00    +0.000 C 
ATOM     26  N   UNL     1      49.289   4.589  19.043  0.00  0.00    +0.000 N 
ATOM     27  O   UNL     1      50.326   6.409  18.239  0.00  0.00    +0.000 OA
ATOM     28  H   UNL     1      48.636   3.821  19.009  0.00  0.00    +0.000 HD
ATOM     29  H   UNL     1      49.834   4.693  19.891  0.00  0.00    +0.000 HD
ENDBRANCH  21  25
ENDBRANCH  16  17
ENDBRANCH   2  16
TORSDOF 6
ENDMDL
MODEL 5
REMARK VINA RESULT:    -6.885      4.111      6.081
REMARK INTER + INTRA:         -10.204
REMARK INTER:                  -9.485
REMARK INTRA:                  -0.718
REMARK UNBOUND:                -0.904
REMARK  Name = 
REMARK  7 active torsions:
REMARK  status: ('A' for Active; 'I' for Inactive)
REMARK    1  A    between atoms: C_1  and  C_2
REMARK    2  A    between atoms: C_2  and  C_3
REMARK    3  A    between atoms: C_2  and  C_14
REMARK    4  A    between atoms: C_3  and  N_4
REMARK    5  A    between atoms: C_8  and  C_9
REMARK    6  A    between atoms: C_19  and  O_20
REMARK    7  A    between atoms: O_20  and  C_21
REMARK                            x       y       z     vdW  Elec       q    Type
REMARK                         _______ _______ _______ _____ _____    ______ ____
ROOT
ATOM      1  C   UNL     1      45.308   5.277  13.061  0.00  0.00    +0.000 C 
ATOM      2  C   UNL     1      45.577   5.861  11.669  0.00  0.00    +0.000 C 
ENDROOT
BRANCH   2   3
ATOM      3  C   UNL     1      45.701   7.386  11.780  0.00  0.00    +0.000 A 
ATOM      4  C   UNL     1      46.880   8.034  12.172  0.00  0.00    +0.000 A 
ATOM      5  C   UNL     1      46.926   9.427  12.231  0.00  0.00    +0.000 A 
ATOM      6  F   UNL     1      48.062  10.026  12.617  0.00  0.00    +0.000 F 
ATOM      7  C   UNL     1      45.819  10.210  11.910  0.00  0.00    +0.000 A 
ATOM      8  C   UNL     1      44.628   9.591  11.531  0.00  0.00    +0.000 A 
ATOM      9  C   UNL     1      44.591   8.190  11.441  0.00  0.00    +0.000 A 
BRANCH   8  10
ATOM     10  O   UNL     1      43.570  10.439  11.288  0.00  0.00    +0.000 OA
BRANCH  10  11
ATOM     11  C   UNL     1      42.682  10.079  10.217  0.00  0.00    +0.000 C 
ATOM     12  C   UNL     1      43.065  10.805   8.941  0.00  0.00    +0.000 C 
ATOM     13  C   UNL     1      42.299  12.108   9.019  0.00  0.00    +0.000 C 
ATOM     14  O   UNL     1      41.135  11.873   9.814  0.00  0.00    +0.000 OA
ATOM     15  C   UNL     1      41.262  10.591  10.449  0.00  0.00    +0.000 C 
ENDBRANCH  10  11
ENDBRANCH   8  10
ENDBRANCH   2   3
BRANCH   2  16
ATOM     16  C   UNL     1      44.527   5.384  10.633  0.00  0.00    +0.000 C 
BRANCH  16  17
ATOM     17  N   UNL     1      44.474   3.912  10.505  0.00  0.00    +0.000 N 
ATOM     18  C   UNL     1      45.228   3.430   9.410  0.00  0.00    +0.000 A 
ATOM     19  C   UNL     1      45.252   2.065   9.143  0.00  0.00    +0.000 A 
ATOM     20  C   UNL     1      45.975   1.588   8.044  0.00  0.00    +0.000 A 
ATOM     21  C   UNL     1      46.669   2.483   7.226  0.00  0.00    +0.000 A 
ATOM     22  C   UNL     1      46.610   3.818   7.580  0.00  0.00    +0.000 A 
ATOM     23  N   UNL     1      45.915   4.300   8.642  0.00  0.00    +0.000 NA
ATOM     24  H   UNL     1      43.524   3.570  10.379  0.00  0.00    +0.000 HD
BRANCH  21  25
ATOM     25  C   UNL     1      47.411   1.982   6.044  0.00  0.00    +0.000 C 
ATOM     26  N   UNL     1      48.104   2.874   5.268  0.00  0.00    +0.000 N 
ATOM     27  O   UNL     1      47.410   0.795   5.749  0.00  0.00    +0.000 OA
ATOM     28  H   UNL     1      48.169   3.870   5.410  0.00  0.00    +0.000 HD
ATOM     29  H   UNL     1      48.590   2.491   4.465  0.00  0.00    +0.000 HD
ENDBRANCH  21  25
ENDBRANCH  16  17
ENDBRANCH   2  16
TORSDOF 6
ENDMDL
MODEL 6
REMARK VINA RESULT:    -6.753      3.226      4.849
REMARK INTER + INTRA:         -10.025
REMARK INTER:                  -9.012
REMARK INTRA:                  -1.013
REMARK UNBOUND:                -0.904
REMARK  Name = 
REMARK  7 active torsions:
REMARK  status: ('A' for Active; 'I' for Inactive)
REMARK    1  A    between atoms: C_1  and  C_2
REMARK    2  A    between atoms: C_2  and  C_3
REMARK    3  A    between atoms: C_2  and  C_14
REMARK    4  A    between atoms: C_3  and  N_4
REMARK    5  A    between atoms: C_8  and  C_9
REMARK    6  A    between atoms: C_19  and  O_20
REMARK    7  A    between atoms: O_20  and  C_21
REMARK                            x       y       z     vdW  Elec       q    Type
REMARK                         _______ _______ _______ _____ _____    ______ ____
ROOT
ATOM      1  C   UNL     1      49.013   7.643  11.719  0.00  0.00    +0.000 C 
ATOM      2  C   UNL     1      48.129   8.567  12.564  0.00  0.00    +0.000 C 
ENDROOT
BRANCH   2   3
ATOM      3  C   UNL     1      48.367   8.270  14.050  0.00  0.00    +0.000 A 
ATOM      4  C   UNL     1      48.218   9.232  15.059  0.00  0.00    +0.000 A 
ATOM      5  C   UNL     1      48.433   8.884  16.393  0.00  0.00    +0.000 A 
ATOM      6  F   UNL     1      48.293   9.821  17.342  0.00  0.00    +0.000 F 
ATOM      7  C   UNL     1      48.797   7.591  16.763  0.00  0.00    +0.000 A 
ATOM      8  C   UNL     1      48.967   6.618  15.778  0.00  0.00    +0.000 A 
ATOM      9  C   UNL     1      48.721   6.959  14.438  0.00  0.00    +0.000 A 
BRANCH   8  10
ATOM     10  O   UNL     1      49.384   5.385  16.228  0.00  0.00    +0.000 OA
BRANCH  10  11
ATOM     11  C   UNL     1      48.410   4.579  16.911  0.00  0.00    +0.000 C 
ATOM     12  C   UNL     1      49.071   3.375  17.554  0.00  0.00    +0.000 C 
ATOM     13  C   UNL     1      49.047   2.322  16.467  0.00  0.00    +0.000 C 
ATOM     14  O   UNL     1      47.938   2.612  15.615  0.00  0.00    +0.000 OA
ATOM     15  C   UNL     1      47.431   3.915  15.944  0.00  0.00    +0.000 C 
ENDBRANCH  10  11
ENDBRANCH   8  10
ENDBRANCH   2   3
BRANCH   2  16
ATOM     16  C   UNL     1      46.642   8.493  12.133  0.00  0.00    +0.000 C 
BRANCH  16  17
ATOM     17  N   UNL     1      45.806   7.725  13.080  0.00  0.00    +0.000 N 
ATOM     18  C   UNL     1      45.365   6.493  12.546  0.00  0.00    +0.000 A 
ATOM     19  C   UNL     1      44.544   5.669  13.310  0.00  0.00    +0.000 A 
ATOM     20  C   UNL     1      44.084   4.462  12.774  0.00  0.00    +0.000 A 
ATOM     21  C   UNL     1      44.452   4.090  11.479  0.00  0.00    +0.000 A 
ATOM     22  C   UNL     1      45.290   4.956  10.801  0.00  0.00    +0.000 A 
ATOM     23  N   UNL     1      45.747   6.131  11.304  0.00  0.00    +0.000 NA
ATOM     24  H   UNL     1      44.973   8.237  13.362  0.00  0.00    +0.000 HD
BRANCH  21  25
ATOM     25  C   UNL     1      43.941   2.824  10.899  0.00  0.00    +0.000 C 
ATOM     26  N   UNL     1      44.596   2.272   9.829  0.00  0.00    +0.000 N 
ATOM     27  O   UNL     1      42.947   2.273  11.352  0.00  0.00    +0.000 OA
ATOM     28  H   UNL     1      45.415   2.641   9.371  0.00  0.00    +0.000 HD
ATOM     29  H   UNL     1      44.209   1.413   9.458  0.00  0.00    +0.000 HD
ENDBRANCH  21  25
ENDBRANCH  16  17
ENDBRANCH   2  16
TORSDOF 6
ENDMDL
MODEL 7
REMARK VINA RESULT:    -6.696      3.218      4.015
REMARK INTER + INTRA:          -9.949
REMARK INTER:                  -9.240
REMARK INTRA:                  -0.709
REMARK UNBOUND:                -0.904
REMARK  Name = 
REMARK  7 active torsions:
REMARK  status: ('A' for Active; 'I' for Inactive)
REMARK    1  A    between atoms: C_1  and  C_2
REMARK    2  A    between atoms: C_2  and  C_3
REMARK    3  A    between atoms: C_2  and  C_14
REMARK    4  A    between atoms: C_3  and  N_4
REMARK    5  A    between atoms: C_8  and  C_9
REMARK    6  A    between atoms: C_19  and  O_20
REMARK    7  A    between atoms: O_20  and  C_21
REMARK                            x       y       z     vdW  Elec       q    Type
REMARK                         _______ _______ _______ _____ _____    ______ ____
ROOT
ATOM      1  C   UNL     1      44.096   5.144  13.285  0.00  0.00    +0.000 C 
ATOM      2  C   UNL     1      44.740   5.537  11.950  0.00  0.00    +0.000 C 
ENDROOT
BRANCH   2   3
ATOM      3  C   UNL     1      45.029   7.044  11.956  0.00  0.00    +0.000 A 
ATOM      4  C   UNL     1      44.236   7.980  11.277  0.00  0.00    +0.000 A 
ATOM      5  C   UNL     1      44.548   9.338  11.344  0.00  0.00    +0.000 A 
ATOM      6  F   UNL     1      43.782  10.216  10.679  0.00  0.00    +0.000 F 
ATOM      7  C   UNL     1      45.639   9.804  12.073  0.00  0.00    +0.000 A 
ATOM      8  C   UNL     1      46.454   8.892  12.746  0.00  0.00    +0.000 A 
ATOM      9  C   UNL     1      46.122   7.528  12.706  0.00  0.00    +0.000 A 
BRANCH   8  10
ATOM     10  O   UNL     1      47.542   9.435  13.392  0.00  0.00    +0.000 OA
BRANCH  10  11
ATOM     11  C   UNL     1      48.610   9.925  12.566  0.00  0.00    +0.000 C 
ATOM     12  C   UNL     1      49.196   8.803  11.730  0.00  0.00    +0.000 C 
ATOM     13  C   UNL     1      50.273   8.214  12.615  0.00  0.00    +0.000 C 
ATOM     14  O   UNL     1      50.723   9.250  13.490  0.00  0.00    +0.000 OA
ATOM     15  C   UNL     1      49.821  10.363  13.388  0.00  0.00    +0.000 C 
ENDBRANCH  10  11
ENDBRANCH   8  10
ENDBRANCH   2   3
BRANCH   2  16
ATOM     16  C   UNL     1      43.896   5.058  10.742  0.00  0.00    +0.000 C 
BRANCH  16  17
ATOM     17  N   UNL     1      44.033   3.609  10.482  0.00  0.00    +0.000 N 
ATOM     18  C   UNL     1      44.897   3.326   9.400  0.00  0.00    +0.000 A 
ATOM     19  C   UNL     1      45.105   2.005   9.017  0.00  0.00    +0.000 A 
ATOM     20  C   UNL     1      45.938   1.723   7.928  0.00  0.00    +0.000 A 
ATOM     21  C   UNL     1      46.556   2.768   7.237  0.00  0.00    +0.000 A 
ATOM     22  C   UNL     1      46.313   4.047   7.701  0.00  0.00    +0.000 A 
ATOM     23  N   UNL     1      45.509   4.340   8.755  0.00  0.00    +0.000 NA
ATOM     24  H   UNL     1      43.141   3.169  10.268  0.00  0.00    +0.000 HD
BRANCH  21  25
ATOM     25  C   UNL     1      47.416   2.472   6.064  0.00  0.00    +0.000 C 
ATOM     26  N   UNL     1      48.774   2.399   6.239  0.00  0.00    +0.000 N 
ATOM     27  O   UNL     1      46.937   2.301   4.952  0.00  0.00    +0.000 OA
ATOM     28  H   UNL     1      49.276   2.530   7.103  0.00  0.00    +0.000 HD
ATOM     29  H   UNL     1      49.324   2.204   5.411  0.00  0.00    +0.000 HD
ENDBRANCH  21  25
ENDBRANCH  16  17
ENDBRANCH   2  16
TORSDOF 6
ENDMDL
MODEL 8
REMARK VINA RESULT:    -6.664      3.469      8.143
REMARK INTER + INTRA:          -9.906
REMARK INTER:                  -9.503
REMARK INTRA:                  -0.403
REMARK UNBOUND:                -0.904
REMARK  Name = 
REMARK  7 active torsions:
REMARK  status: ('A' for Active; 'I' for Inactive)
REMARK    1  A    between atoms: C_1  and  C_2
REMARK    2  A    between atoms: C_2  and  C_3
REMARK    3  A    between atoms: C_2  and  C_14
REMARK    4  A    between atoms: C_3  and  N_4
REMARK    5  A    between atoms: C_8  and  C_9
REMARK    6  A    between atoms: C_19  and  O_20
REMARK    7  A    between atoms: O_20  and  C_21
REMARK                            x       y       z     vdW  Elec       q    Type
REMARK                         _______ _______ _______ _____ _____    ______ ____
ROOT
ATOM      1  C   UNL     1      45.787   8.690  11.984  0.00  0.00    +0.000 C 
ATOM      2  C   UNL     1      46.383   7.279  12.062  0.00  0.00    +0.000 C 
ENDROOT
BRANCH   2   3
ATOM      3  C   UNL     1      45.296   6.254  11.714  0.00  0.00    +0.000 A 
ATOM      4  C   UNL     1      43.928   6.496  11.895  0.00  0.00    +0.000 A 
ATOM      5  C   UNL     1      42.993   5.523  11.537  0.00  0.00    +0.000 A 
ATOM      6  F   UNL     1      41.689   5.771  11.727  0.00  0.00    +0.000 F 
ATOM      7  C   UNL     1      43.381   4.300  10.997  0.00  0.00    +0.000 A 
ATOM      8  C   UNL     1      44.738   4.027  10.819  0.00  0.00    +0.000 A 
ATOM      9  C   UNL     1      45.677   5.018  11.150  0.00  0.00    +0.000 A 
BRANCH   8  10
ATOM     10  O   UNL     1      45.033   2.772  10.334  0.00  0.00    +0.000 OA
BRANCH  10  11
ATOM     11  C   UNL     1      44.609   2.478   8.993  0.00  0.00    +0.000 C 
ATOM     12  C   UNL     1      45.414   1.327   8.421  0.00  0.00    +0.000 C 
ATOM     13  C   UNL     1      46.618   1.998   7.797  0.00  0.00    +0.000 C 
ATOM     14  O   UNL     1      46.227   3.323   7.431  0.00  0.00    +0.000 OA
ATOM     15  C   UNL     1      44.949   3.606   8.021  0.00  0.00    +0.000 C 
ENDBRANCH  10  11
ENDBRANCH   8  10
ENDBRANCH   2   3
BRANCH   2  16
ATOM     16  C   UNL     1      47.082   7.025  13.423  0.00  0.00    +0.000 C 
BRANCH  16  17
ATOM     17  N   UNL     1      46.673   5.750  14.050  0.00  0.00    +0.000 N 
ATOM     18  C   UNL     1      47.524   5.365  15.110  0.00  0.00    +0.000 A 
ATOM     19  C   UNL     1      47.284   4.170  15.782  0.00  0.00    +0.000 A 
ATOM     20  C   UNL     1      48.141   3.771  16.814  0.00  0.00    +0.000 A 
ATOM     21  C   UNL     1      49.228   4.576  17.164  0.00  0.00    +0.000 A 
ATOM     22  C   UNL     1      49.377   5.757  16.462  0.00  0.00    +0.000 A 
ATOM     23  N   UNL     1      48.556   6.160  15.458  0.00  0.00    +0.000 NA
ATOM     24  H   UNL     1      46.665   4.980  13.386  0.00  0.00    +0.000 HD
BRANCH  21  25
ATOM     25  C   UNL     1      50.154   4.140  18.238  0.00  0.00    +0.000 C 
ATOM     26  N   UNL     1      50.586   2.839  18.254  0.00  0.00    +0.000 N 
ATOM     27  O   UNL     1      50.529   4.915  19.107  0.00  0.00    +0.000 OA
ATOM     28  H   UNL     1      50.338   2.116  17.598  0.00  0.00    +0.000 HD
ATOM     29  H   UNL     1      51.210   2.582  19.010  0.00  0.00    +0.000 HD
ENDBRANCH  21  25
ENDBRANCH  16  17
ENDBRANCH   2  16
TORSDOF 6
ENDMDL
MODEL 9
REMARK VINA RESULT:    -6.638      4.385      8.091
REMARK INTER + INTRA:          -9.870
REMARK INTER:                  -9.242
REMARK INTRA:                  -0.628
REMARK UNBOUND:                -0.904
REMARK  Name = 
REMARK  7 active torsions:
REMARK  status: ('A' for Active; 'I' for Inactive)
REMARK    1  A    between atoms: C_1  and  C_2
REMARK    2  A    between atoms: C_2  and  C_3
REMARK    3  A    between atoms: C_2  and  C_14
REMARK    4  A    between atoms: C_3  and  N_4
REMARK    5  A    between atoms: C_8  and  C_9
REMARK    6  A    between atoms: C_19  and  O_20
REMARK    7  A    between atoms: O_20  and  C_21
REMARK                            x       y       z     vdW  Elec       q    Type
REMARK                         _______ _______ _______ _____ _____    ______ ____
ROOT
ATOM      1  C   UNL     1      49.841   8.379  15.231  0.00  0.00    +0.000 C 
ATOM      2  C   UNL     1      49.027   7.081  15.182  0.00  0.00    +0.000 C 
ENDROOT
BRANCH   2   3
ATOM      3  C   UNL     1      47.854   7.261  14.209  0.00  0.00    +0.000 A 
ATOM      4  C   UNL     1      47.294   8.509  13.903  0.00  0.00    +0.000 A 
ATOM      5  C   UNL     1      46.241   8.598  12.992  0.00  0.00    +0.000 A 
ATOM      6  F   UNL     1      45.715   9.801  12.720  0.00  0.00    +0.000 F 
ATOM      7  C   UNL     1      45.716   7.469  12.367  0.00  0.00    +0.000 A 
ATOM      8  C   UNL     1      46.245   6.213  12.664  0.00  0.00    +0.000 A 
ATOM      9  C   UNL     1      47.325   6.125  13.557  0.00  0.00    +0.000 A 
BRANCH   8  10
ATOM     10  O   UNL     1      45.627   5.148  12.046  0.00  0.00    +0.000 OA
BRANCH  10  11
ATOM     11  C   UNL     1      44.193   5.182  11.973  0.00  0.00    +0.000 C 
ATOM     12  C   UNL     1      43.587   4.146  12.901  0.00  0.00    +0.000 C 
ATOM     13  C   UNL     1      43.510   2.896  12.051  0.00  0.00    +0.000 C 
ATOM     14  O   UNL     1      43.404   3.312  10.688  0.00  0.00    +0.000 OA
ATOM     15  C   UNL     1      43.673   4.721  10.613  0.00  0.00    +0.000 C 
ENDBRANCH  10  11
ENDBRANCH   8  10
ENDBRANCH   2   3
BRANCH   2  16
ATOM     16  C   UNL     1      48.609   6.611  16.598  0.00  0.00    +0.000 C 
BRANCH  16  17
ATOM     17  N   UNL     1      48.073   5.233  16.612  0.00  0.00    +0.000 N 
ATOM     18  C   UNL     1      49.059   4.265  16.910  0.00  0.00    +0.000 A 
ATOM     19  C   UNL     1      48.712   2.918  16.932  0.00  0.00    +0.000 A 
ATOM     20  C   UNL     1      49.692   1.955  17.199  0.00  0.00    +0.000 A 
ATOM     21  C   UNL     1      51.009   2.353  17.443  0.00  0.00    +0.000 A 
ATOM     22  C   UNL     1      51.259   3.712  17.426  0.00  0.00    +0.000 A 
ATOM     23  N   UNL     1      50.322   4.660  17.170  0.00  0.00    +0.000 NA
ATOM     24  H   UNL     1      47.664   4.970  15.719  0.00  0.00    +0.000 HD
BRANCH  21  25
ATOM     25  C   UNL     1      52.054   1.331  17.698  0.00  0.00    +0.000 C 
ATOM     26  N   UNL     1      51.677   0.098  18.163  0.00  0.00    +0.000 N 
ATOM     27  O   UNL     1      53.238   1.572  17.507  0.00  0.00    +0.000 OA
ATOM     28  H   UNL     1      50.738  -0.208  18.362  0.00  0.00    +0.000 HD
ATOM     29  H   UNL     1      52.423  -0.567  18.332  0.00  0.00    +0.000 HD
ENDBRANCH  21  25
ENDBRANCH  16  17
ENDBRANCH   2  16
TORSDOF 6
ENDMDL
