MODEL 1
REMARK VINA RESULT:    -8.643      0.000      0.000
REMARK INTER + INTRA:         -12.731
REMARK INTER:                 -11.675
REMARK INTRA:                  -1.056
REMARK UNBOUND:                -1.056
REMARK  Name = 
REMARK  6 active torsions:
REMARK  status: ('A' for Active; 'I' for Inactive)
REMARK    1  A    between atoms: C_2  and  C_19
REMARK    2  A    between atoms: N_3  and  C_4
REMARK    3  A    between atoms: C_4  and  C_5
REMARK    4  A    between atoms: C_10  and  C_11
REMARK    5  A    between atoms: C_11  and  N_12
REMARK    6  A    between atoms: N_12  and  C_13
REMARK                            x       y       z     vdW  Elec       q    Type
REMARK                         _______ _______ _______ _____ _____    ______ ____
ROOT
ATOM      1  C   UNL     1      46.310   6.599  12.294  0.00  0.00    +0.000 C 
ENDROOT
BRANCH   1   2
ATOM      2  C   UNL     1      45.046   5.843  11.991  0.00  0.00    +0.000 A 
ATOM      3  C   UNL     1      44.059   5.756  12.990  0.00  0.00    +0.000 A 
ATOM      4  C   UNL     1      42.877   5.065  12.754  0.00  0.00    +0.000 A 
ATOM      5  C   UNL     1      42.713   4.473  11.519  0.00  0.00    +0.000 A 
ATOM      6  N   UNL     1      43.620   4.553  10.522  0.00  0.00    +0.000 NA
ATOM      7  C   UNL     1      44.769   5.256  10.746  0.00  0.00    +0.000 A 
BRANCH   7   8
ATOM      8  C   UNL     1      45.721   5.333   9.559  0.00  0.00    +0.000 C 
BRANCH   8   9
ATOM      9  N   UNL     1      45.197   4.566   8.429  0.00  0.00    +0.000 N 
ATOM     10  H   UNL     1      44.870   5.184   7.686  0.00  0.00    +0.000 HD
BRANCH   9  11
ATOM     11  C   UNL     1      45.908   3.486   7.894  0.00  0.00    +0.000 A 
ATOM     12  C   UNL     1      46.878   3.590   6.891  0.00  0.00    +0.000 A 
ATOM     13  C   UNL     1      47.594   2.466   6.453  0.00  0.00    +0.000 A 
ATOM     14  C   UNL     1      47.372   1.221   7.035  0.00  0.00    +0.000 A 
ATOM     15  C   UNL     1      46.436   1.100   8.056  0.00  0.00    +0.000 A 
ATOM     16  C   UNL     1      45.716   2.223   8.478  0.00  0.00    +0.000 A 
ENDBRANCH   9  11
ENDBRANCH   8   9
ENDBRANCH   7   8
ENDBRANCH   1   2
BRANCH   1  19
ATOM     17  O   UNL     1      48.984   6.435  13.061  0.00  0.00    +0.000 OA
ATOM     18  C   UNL     1      48.119   6.320  13.925  0.00  0.00    +0.000 C 
ATOM     19  N   UNL     1      46.781   6.299  13.624  0.00  0.00    +0.000 N 
ATOM     20  H   UNL     1      46.107   6.369  14.379  0.00  0.00    +0.000 HD
BRANCH  18  21
ATOM     21  C   UNL     1      48.465   6.156  15.341  0.00  0.00    +0.000 A 
ATOM     22  C   UNL     1      49.075   7.196  16.030  0.00  0.00    +0.000 A 
ATOM     23  S   UNL     1      49.378   6.838  17.670  0.00  0.00    +0.000 S 
ATOM     24  C   UNL     1      48.674   5.293  17.523  0.00  0.00    +0.000 A 
ATOM     25  N   UNL     1      48.565   4.472  18.598  0.00  0.00    +0.000 NA
ATOM     26  C   UNL     1      47.978   3.350  18.352  0.00  0.00    +0.000 A 
ATOM     27  N   UNL     1      47.497   2.971  17.124  0.00  0.00    +0.000 N 
ATOM     28  C   UNL     1      47.626   3.751  15.999  0.00  0.00    +0.000 A 
ATOM     29  O   UNL     1      47.262   3.350  14.899  0.00  0.00    +0.000 OA
ATOM     30  C   UNL     1      48.248   5.039  16.232  0.00  0.00    +0.000 A 
ATOM     31  H   UNL     1      47.071   2.066  16.992  0.00  0.00    +0.000 HD
ENDBRANCH  18  21
ENDBRANCH   1  19
TORSDOF 6
ENDMDL
MODEL 2
REMARK VINA RESULT:    -8.284      1.944      2.736
REMARK INTER + INTRA:         -12.245
REMARK INTER:                 -11.394
REMARK INTRA:                  -0.851
REMARK UNBOUND:                -1.056
REMARK  Name = 
REMARK  6 active torsions:
REMARK  status: ('A' for Active; 'I' for Inactive)
REMARK    1  A    between atoms: C_2  and  C_19
REMARK    2  A    between atoms: N_3  and  C_4
REMARK    3  A    between atoms: C_4  and  C_5
REMARK    4  A    between atoms: C_10  and  C_11
REMARK    5  A    between atoms: C_11  and  N_12
REMARK    6  A    between atoms: N_12  and  C_13
REMARK                            x       y       z     vdW  Elec       q    Type
REMARK                         _______ _______ _______ _____ _____    ______ ____
ROOT
ATOM      1  C   UNL     1      46.344   4.271  14.027  0.00  0.00    +0.000 C 
ENDROOT
BRANCH   1   2
ATOM      2  C   UNL     1      45.910   5.388  13.118  0.00  0.00    +0.000 A 
ATOM      3  C   UNL     1      46.451   6.670  13.323  0.00  0.00    +0.000 A 
ATOM      4  C   UNL     1      46.075   7.732  12.509  0.00  0.00    +0.000 A 
ATOM      5  C   UNL     1      45.160   7.483  11.508  0.00  0.00    +0.000 A 
ATOM      6  N   UNL     1      44.635   6.265  11.257  0.00  0.00    +0.000 NA
ATOM      7  C   UNL     1      45.026   5.217  12.041  0.00  0.00    +0.000 A 
BRANCH   7   8
ATOM      8  C   UNL     1      44.420   3.870  11.668  0.00  0.00    +0.000 C 
BRANCH   8   9
ATOM      9  N   UNL     1      44.010   3.862  10.264  0.00  0.00    +0.000 N 
ATOM     10  H   UNL     1      43.579   4.749  10.002  0.00  0.00    +0.000 HD
BRANCH   9  11
ATOM     11  C   UNL     1      44.876   3.420   9.258  0.00  0.00    +0.000 A 
ATOM     12  C   UNL     1      45.571   4.259   8.380  0.00  0.00    +0.000 A 
ATOM     13  C   UNL     1      46.473   3.740   7.439  0.00  0.00    +0.000 A 
ATOM     14  C   UNL     1      46.717   2.371   7.382  0.00  0.00    +0.000 A 
ATOM     15  C   UNL     1      46.062   1.521   8.265  0.00  0.00    +0.000 A 
ATOM     16  C   UNL     1      45.154   2.045   9.192  0.00  0.00    +0.000 A 
ENDBRANCH   9  11
ENDBRANCH   8   9
ENDBRANCH   7   8
ENDBRANCH   1   2
BRANCH   1  19
ATOM     17  O   UNL     1      46.539   3.456  16.684  0.00  0.00    +0.000 OA
ATOM     18  C   UNL     1      47.397   4.212  16.239  0.00  0.00    +0.000 C 
ATOM     19  N   UNL     1      47.331   4.733  14.972  0.00  0.00    +0.000 N 
ATOM     20  H   UNL     1      48.139   5.216  14.597  0.00  0.00    +0.000 HD
BRANCH  18  21
ATOM     21  C   UNL     1      48.537   4.643  17.056  0.00  0.00    +0.000 A 
ATOM     22  C   UNL     1      48.521   5.890  17.667  0.00  0.00    +0.000 A 
ATOM     23  S   UNL     1      49.914   6.209  18.597  0.00  0.00    +0.000 S 
ATOM     24  C   UNL     1      50.572   4.678  18.242  0.00  0.00    +0.000 A 
ATOM     25  N   UNL     1      51.755   4.286  18.780  0.00  0.00    +0.000 NA
ATOM     26  C   UNL     1      52.115   3.089  18.457  0.00  0.00    +0.000 A 
ATOM     27  N   UNL     1      51.402   2.252  17.637  0.00  0.00    +0.000 N 
ATOM     28  C   UNL     1      50.223   2.624  17.035  0.00  0.00    +0.000 A 
ATOM     29  O   UNL     1      49.652   1.884  16.239  0.00  0.00    +0.000 OA
ATOM     30  C   UNL     1      49.758   3.948  17.395  0.00  0.00    +0.000 A 
ATOM     31  H   UNL     1      51.753   1.336  17.403  0.00  0.00    +0.000 HD
ENDBRANCH  18  21
ENDBRANCH   1  19
TORSDOF 6
ENDMDL
MODEL 3
REMARK VINA RESULT:    -8.272      1.672      2.953
REMARK INTER + INTRA:         -12.229
REMARK INTER:                 -11.065
REMARK INTRA:                  -1.164
REMARK UNBOUND:                -1.056
REMARK  Name = 
REMARK  6 active torsions:
REMARK  status: ('A' for Active; 'I' for Inactive)
REMARK    1  A    between atoms: C_2  and  C_19
REMARK    2  A    between atoms: N_3  and  C_4
REMARK    3  A    between atoms: C_4  and  C_5
REMARK    4  A    between atoms: C_10  and  C_11
REMARK    5  A    between atoms: C_11  and  N_12
REMARK    6  A    between atoms: N_12  and  C_13
REMARK                            x       y       z     vdW  Elec       q    Type
REMARK                         _______ _______ _______ _____ _____    ______ ____
ROOT
ATOM      1  C   UNL     1      46.052   4.573  13.359  0.00  0.00    +0.000 C 
ENDROOT
BRANCH   1   2
ATOM      2  C   UNL     1      45.563   5.835  12.705  0.00  0.00    +0.000 A 
ATOM      3  C   UNL     1      46.162   7.056  13.065  0.00  0.00    +0.000 A 
ATOM      4  C   UNL     1      45.738   8.246  12.488  0.00  0.00    +0.000 A 
ATOM      5  C   UNL     1      44.718   8.186  11.562  0.00  0.00    +0.000 A 
ATOM      6  N   UNL     1      44.132   7.036  11.165  0.00  0.00    +0.000 NA
ATOM      7  C   UNL     1      44.568   5.864  11.714  0.00  0.00    +0.000 A 
BRANCH   7   8
ATOM      8  C   UNL     1      43.885   4.609  11.183  0.00  0.00    +0.000 C 
BRANCH   8   9
ATOM      9  N   UNL     1      43.947   4.569   9.723  0.00  0.00    +0.000 N 
ATOM     10  H   UNL     1      43.966   5.511   9.330  0.00  0.00    +0.000 HD
BRANCH   9  11
ATOM     11  C   UNL     1      44.856   3.740   9.058  0.00  0.00    +0.000 A 
ATOM     12  C   UNL     1      44.928   2.350   9.211  0.00  0.00    +0.000 A 
ATOM     13  C   UNL     1      45.827   1.581   8.458  0.00  0.00    +0.000 A 
ATOM     14  C   UNL     1      46.649   2.187   7.513  0.00  0.00    +0.000 A 
ATOM     15  C   UNL     1      46.573   3.562   7.320  0.00  0.00    +0.000 A 
ATOM     16  C   UNL     1      45.684   4.324   8.085  0.00  0.00    +0.000 A 
ENDBRANCH   9  11
ENDBRANCH   8   9
ENDBRANCH   7   8
ENDBRANCH   1   2
BRANCH   1  19
ATOM     17  O   UNL     1      47.667   2.861  14.851  0.00  0.00    +0.000 OA
ATOM     18  C   UNL     1      47.413   3.973  15.307  0.00  0.00    +0.000 C 
ATOM     19  N   UNL     1      46.556   4.843  14.683  0.00  0.00    +0.000 N 
ATOM     20  H   UNL     1      46.508   5.802  15.009  0.00  0.00    +0.000 HD
BRANCH  18  21
ATOM     21  C   UNL     1      47.982   4.428  16.581  0.00  0.00    +0.000 A 
ATOM     22  C   UNL     1      47.695   3.741  17.753  0.00  0.00    +0.000 A 
ATOM     23  S   UNL     1      48.464   4.395  19.128  0.00  0.00    +0.000 S 
ATOM     24  C   UNL     1      49.234   5.598  18.197  0.00  0.00    +0.000 A 
ATOM     25  N   UNL     1      50.094   6.478  18.770  0.00  0.00    +0.000 NA
ATOM     26  C   UNL     1      50.632   7.309  17.942  0.00  0.00    +0.000 A 
ATOM     27  N   UNL     1      50.381   7.345  16.594  0.00  0.00    +0.000 N 
ATOM     28  C   UNL     1      49.485   6.503  15.980  0.00  0.00    +0.000 A 
ATOM     29  O   UNL     1      49.218   6.614  14.788  0.00  0.00    +0.000 OA
ATOM     30  C   UNL     1      48.879   5.526  16.863  0.00  0.00    +0.000 A 
ATOM     31  H   UNL     1      50.817   8.038  16.005  0.00  0.00    +0.000 HD
ENDBRANCH  18  21
ENDBRANCH   1  19
TORSDOF 6
ENDMDL
MODEL 4
REMARK VINA RESULT:    -7.256      3.132      7.899
REMARK INTER + INTRA:         -10.857
REMARK INTER:                  -9.854
REMARK INTRA:                  -1.004
REMARK UNBOUND:                -1.056
REMARK  Name = 
REMARK  6 active torsions:
REMARK  status: ('A' for Active; 'I' for Inactive)
REMARK    1  A    between atoms: C_2  and  C_19
REMARK    2  A    between atoms: N_3  and  C_4
REMARK    3  A    between atoms: C_4  and  C_5
REMARK    4  A    between atoms: C_10  and  C_11
REMARK    5  A    between atoms: C_11  and  N_12
REMARK    6  A    between atoms: N_12  and  C_13
REMARK                            x       y       z     vdW  Elec       q    Type
REMARK                         _______ _______ _______ _____ _____    ______ ____
ROOT
ATOM      1  C   UNL     1      48.932   6.776  15.587  0.00  0.00    +0.000 C 
ENDROOT
BRANCH   1   2
ATOM      2  C   UNL     1      48.573   6.651  17.042  0.00  0.00    +0.000 A 
ATOM      3  C   UNL     1      48.474   7.823  17.813  0.00  0.00    +0.000 A 
ATOM      4  C   UNL     1      48.149   7.753  19.162  0.00  0.00    +0.000 A 
ATOM      5  C   UNL     1      47.932   6.506  19.708  0.00  0.00    +0.000 A 
ATOM      6  N   UNL     1      47.989   5.357  19.002  0.00  0.00    +0.000 NA
ATOM      7  C   UNL     1      48.283   5.429  17.670  0.00  0.00    +0.000 A 
BRANCH   7   8
ATOM      8  C   UNL     1      48.288   4.094  16.936  0.00  0.00    +0.000 C 
BRANCH   8   9
ATOM      9  N   UNL     1      48.909   3.057  17.760  0.00  0.00    +0.000 N 
ATOM     10  H   UNL     1      48.412   2.170  17.670  0.00  0.00    +0.000 HD
BRANCH   9  11
ATOM     11  C   UNL     1      50.292   2.850  17.743  0.00  0.00    +0.000 A 
ATOM     12  C   UNL     1      51.244   3.788  18.160  0.00  0.00    +0.000 A 
ATOM     13  C   UNL     1      52.612   3.479  18.174  0.00  0.00    +0.000 A 
ATOM     14  C   UNL     1      53.049   2.211  17.799  0.00  0.00    +0.000 A 
ATOM     15  C   UNL     1      52.120   1.253  17.413  0.00  0.00    +0.000 A 
ATOM     16  C   UNL     1      50.758   1.573  17.388  0.00  0.00    +0.000 A 
ENDBRANCH   9  11
ENDBRANCH   8   9
ENDBRANCH   7   8
ENDBRANCH   1   2
BRANCH   1  19
ATOM     17  O   UNL     1      48.866   6.038  12.900  0.00  0.00    +0.000 OA
ATOM     18  C   UNL     1      47.804   6.276  13.468  0.00  0.00    +0.000 C 
ATOM     19  N   UNL     1      47.749   6.730  14.761  0.00  0.00    +0.000 N 
ATOM     20  H   UNL     1      46.854   6.754  15.236  0.00  0.00    +0.000 HD
BRANCH  18  21
ATOM     21  C   UNL     1      46.516   6.127  12.781  0.00  0.00    +0.000 A 
ATOM     22  C   UNL     1      45.901   7.235  12.213  0.00  0.00    +0.000 A 
ATOM     23  S   UNL     1      44.430   6.869  11.434  0.00  0.00    +0.000 S 
ATOM     24  C   UNL     1      44.581   5.211  11.800  0.00  0.00    +0.000 A 
ATOM     25  N   UNL     1      43.658   4.315  11.366  0.00  0.00    +0.000 NA
ATOM     26  C   UNL     1      43.918   3.091  11.683  0.00  0.00    +0.000 A 
ATOM     27  N   UNL     1      45.013   2.683  12.402  0.00  0.00    +0.000 N 
ATOM     28  C   UNL     1      45.948   3.561  12.898  0.00  0.00    +0.000 A 
ATOM     29  O   UNL     1      46.870   3.176  13.610  0.00  0.00    +0.000 OA
ATOM     30  C   UNL     1      45.719   4.946  12.539  0.00  0.00    +0.000 A 
ATOM     31  H   UNL     1      45.144   1.711  12.638  0.00  0.00    +0.000 HD
ENDBRANCH  18  21
ENDBRANCH   1  19
TORSDOF 6
ENDMDL
MODEL 5
REMARK VINA RESULT:    -7.245      3.265      7.835
REMARK INTER + INTRA:         -10.842
REMARK INTER:                  -9.529
REMARK INTRA:                  -1.314
REMARK UNBOUND:                -1.056
REMARK  Name = 
REMARK  6 active torsions:
REMARK  status: ('A' for Active; 'I' for Inactive)
REMARK    1  A    between atoms: C_2  and  C_19
REMARK    2  A    between atoms: N_3  and  C_4
REMARK    3  A    between atoms: C_4  and  C_5
REMARK    4  A    between atoms: C_10  and  C_11
REMARK    5  A    between atoms: C_11  and  N_12
REMARK    6  A    between atoms: N_12  and  C_13
REMARK                            x       y       z     vdW  Elec       q    Type
REMARK                         _______ _______ _______ _____ _____    ______ ____
ROOT
ATOM      1  C   UNL     1      49.097   6.874  15.581  0.00  0.00    +0.000 C 
ENDROOT
BRANCH   1   2
ATOM      2  C   UNL     1      48.986   7.912  16.663  0.00  0.00    +0.000 A 
ATOM      3  C   UNL     1      48.164   9.032  16.439  0.00  0.00    +0.000 A 
ATOM      4  C   UNL     1      48.036  10.017  17.410  0.00  0.00    +0.000 A 
ATOM      5  C   UNL     1      48.739   9.858  18.586  0.00  0.00    +0.000 A 
ATOM      6  N   UNL     1      49.517   8.789  18.856  0.00  0.00    +0.000 NA
ATOM      7  C   UNL     1      49.621   7.808  17.911  0.00  0.00    +0.000 A 
BRANCH   7   8
ATOM      8  C   UNL     1      50.485   6.617  18.309  0.00  0.00    +0.000 C 
BRANCH   8   9
ATOM      9  N   UNL     1      49.671   5.583  18.947  0.00  0.00    +0.000 N 
ATOM     10  H   UNL     1      48.863   5.991  19.419  0.00  0.00    +0.000 HD
BRANCH   9  11
ATOM     11  C   UNL     1      49.305   4.421  18.260  0.00  0.00    +0.000 A 
ATOM     12  C   UNL     1      47.999   4.105  17.869  0.00  0.00    +0.000 A 
ATOM     13  C   UNL     1      47.723   2.948  17.125  0.00  0.00    +0.000 A 
ATOM     14  C   UNL     1      48.756   2.103  16.731  0.00  0.00    +0.000 A 
ATOM     15  C   UNL     1      50.065   2.414  17.080  0.00  0.00    +0.000 A 
ATOM     16  C   UNL     1      50.331   3.561  17.835  0.00  0.00    +0.000 A 
ENDBRANCH   9  11
ENDBRANCH   8   9
ENDBRANCH   7   8
ENDBRANCH   1   2
BRANCH   1  19
ATOM     17  O   UNL     1      48.942   6.144  12.897  0.00  0.00    +0.000 OA
ATOM     18  C   UNL     1      47.899   6.366  13.504  0.00  0.00    +0.000 C 
ATOM     19  N   UNL     1      47.886   6.815  14.800  0.00  0.00    +0.000 N 
ATOM     20  H   UNL     1      47.008   6.826  15.307  0.00  0.00    +0.000 HD
BRANCH  18  21
ATOM     21  C   UNL     1      46.588   6.202  12.864  0.00  0.00    +0.000 A 
ATOM     22  C   UNL     1      45.942   7.302  12.318  0.00  0.00    +0.000 A 
ATOM     23  S   UNL     1      44.446   6.919  11.593  0.00  0.00    +0.000 S 
ATOM     24  C   UNL     1      44.628   5.264  11.955  0.00  0.00    +0.000 A 
ATOM     25  N   UNL     1      43.700   4.357  11.557  0.00  0.00    +0.000 NA
ATOM     26  C   UNL     1      43.984   3.136  11.866  0.00  0.00    +0.000 A 
ATOM     27  N   UNL     1      45.109   2.742  12.545  0.00  0.00    +0.000 N 
ATOM     28  C   UNL     1      46.052   3.630  13.006  0.00  0.00    +0.000 A 
ATOM     29  O   UNL     1      47.003   3.256  13.684  0.00  0.00    +0.000 OA
ATOM     30  C   UNL     1      45.795   5.012  12.653  0.00  0.00    +0.000 A 
ATOM     31  H   UNL     1      45.259   1.772  12.778  0.00  0.00    +0.000 HD
ENDBRANCH  18  21
ENDBRANCH   1  19
TORSDOF 6
ENDMDL
MODEL 6
REMARK VINA RESULT:    -7.224      1.474      2.167
REMARK INTER + INTRA:         -10.813
REMARK INTER:                  -9.707
REMARK INTRA:                  -1.107
REMARK UNBOUND:                -1.056
REMARK  Name = 
REMARK  6 active torsions:
REMARK  status: ('A' for Active; 'I' for Inactive)
REMARK    1  A    between atoms: C_2  and  C_19
REMARK    2  A    between atoms: N_3  and  C_4
REMARK    3  A    between atoms: C_4  and  C_5
REMARK    4  A    between atoms: C_10  and  C_11
REMARK    5  A    between atoms: C_11  and  N_12
REMARK    6  A    between atoms: N_12  and  C_13
REMARK                            x       y       z     vdW  Elec       q    Type
REMARK                         _______ _______ _______ _____ _____    ______ ____
ROOT
ATOM      1  C   UNL     1      47.371   5.753  12.920  0.00  0.00    +0.000 C 
ENDROOT
BRANCH   1   2
ATOM      2  C   UNL     1      46.297   6.655  12.378  0.00  0.00    +0.000 A 
ATOM      3  C   UNL     1      46.527   8.043  12.368  0.00  0.00    +0.000 A 
ATOM      4  C   UNL     1      45.560   8.913  11.879  0.00  0.00    +0.000 A 
ATOM      5  C   UNL     1      44.382   8.370  11.412  0.00  0.00    +0.000 A 
ATOM      6  N   UNL     1      44.128   7.044  11.377  0.00  0.00    +0.000 NA
ATOM      7  C   UNL     1      45.090   6.189  11.833  0.00  0.00    +0.000 A 
BRANCH   7   8
ATOM      8  C   UNL     1      44.744   4.709  11.721  0.00  0.00    +0.000 C 
BRANCH   8   9
ATOM      9  N   UNL     1      44.161   4.415  10.412  0.00  0.00    +0.000 N 
ATOM     10  H   UNL     1      43.664   5.226  10.041  0.00  0.00    +0.000 HD
BRANCH   9  11
ATOM     11  C   UNL     1      44.911   3.796   9.407  0.00  0.00    +0.000 A 
ATOM     12  C   UNL     1      45.664   4.475   8.441  0.00  0.00    +0.000 A 
ATOM     13  C   UNL     1      46.443   3.778   7.505  0.00  0.00    +0.000 A 
ATOM     14  C   UNL     1      46.506   2.388   7.540  0.00  0.00    +0.000 A 
ATOM     15  C   UNL     1      45.793   1.694   8.510  0.00  0.00    +0.000 A 
ATOM     16  C   UNL     1      45.007   2.395   9.431  0.00  0.00    +0.000 A 
ENDBRANCH   9  11
ENDBRANCH   8   9
ENDBRANCH   7   8
ENDBRANCH   1   2
BRANCH   1  19
ATOM     17  O   UNL     1      49.628   6.878  14.105  0.00  0.00    +0.000 OA
ATOM     18  C   UNL     1      48.668   6.602  14.819  0.00  0.00    +0.000 C 
ATOM     19  N   UNL     1      47.553   5.966  14.335  0.00  0.00    +0.000 N 
ATOM     20  H   UNL     1      46.728   5.909  14.921  0.00  0.00    +0.000 HD
BRANCH  18  21
ATOM     21  C   UNL     1      48.669   6.901  16.255  0.00  0.00    +0.000 A 
ATOM     22  C   UNL     1      48.755   8.218  16.689  0.00  0.00    +0.000 A 
ATOM     23  S   UNL     1      48.713   8.378  18.386  0.00  0.00    +0.000 S 
ATOM     24  C   UNL     1      48.545   6.695  18.599  0.00  0.00    +0.000 A 
ATOM     25  N   UNL     1      48.402   6.161  19.838  0.00  0.00    +0.000 NA
ATOM     26  C   UNL     1      48.247   4.879  19.848  0.00  0.00    +0.000 A 
ATOM     27  N   UNL     1      48.229   4.084  18.731  0.00  0.00    +0.000 N 
ATOM     28  C   UNL     1      48.414   4.577  17.461  0.00  0.00    +0.000 A 
ATOM     29  O   UNL     1      48.479   3.831  16.489  0.00  0.00    +0.000 OA
ATOM     30  C   UNL     1      48.559   6.017  17.394  0.00  0.00    +0.000 A 
ATOM     31  H   UNL     1      48.129   3.083  18.810  0.00  0.00    +0.000 HD
ENDBRANCH  18  21
ENDBRANCH   1  19
TORSDOF 6
ENDMDL
MODEL 7
REMARK VINA RESULT:    -7.100      3.155      8.777
REMARK INTER + INTRA:         -10.646
REMARK INTER:                  -9.391
REMARK INTRA:                  -1.255
REMARK UNBOUND:                -1.056
REMARK  Name = 
REMARK  6 active torsions:
REMARK  status: ('A' for Active; 'I' for Inactive)
REMARK    1  A    between atoms: C_2  and  C_19
REMARK    2  A    between atoms: N_3  and  C_4
REMARK    3  A    between atoms: C_4  and  C_5
REMARK    4  A    between atoms: C_10  and  C_11
REMARK    5  A    between atoms: C_11  and  N_12
REMARK    6  A    between atoms: N_12  and  C_13
REMARK                            x       y       z     vdW  Elec       q    Type
REMARK                         _______ _______ _______ _____ _____    ______ ____
ROOT
ATOM      1  C   UNL     1      48.801   6.431  15.657  0.00  0.00    +0.000 C 
ENDROOT
BRANCH   1   2
ATOM      2  C   UNL     1      48.695   5.342  16.689  0.00  0.00    +0.000 A 
ATOM      3  C   UNL     1      47.690   4.369  16.538  0.00  0.00    +0.000 A 
ATOM      4  C   UNL     1      47.554   3.347  17.469  0.00  0.00    +0.000 A 
ATOM      5  C   UNL     1      48.429   3.327  18.535  0.00  0.00    +0.000 A 
ATOM      6  N   UNL     1      49.424   4.223  18.707  0.00  0.00    +0.000 NA
ATOM      7  C   UNL     1      49.573   5.211  17.776  0.00  0.00    +0.000 A 
BRANCH   7   8
ATOM      8  C   UNL     1      50.744   6.156  18.019  0.00  0.00    +0.000 C 
BRANCH   8   9
ATOM      9  N   UNL     1      50.507   6.970  19.211  0.00  0.00    +0.000 N 
ATOM     10  H   UNL     1      51.327   7.534  19.438  0.00  0.00    +0.000 HD
BRANCH   9  11
ATOM     11  C   UNL     1      49.337   7.722  19.355  0.00  0.00    +0.000 A 
ATOM     12  C   UNL     1      48.402   7.552  20.384  0.00  0.00    +0.000 A 
ATOM     13  C   UNL     1      47.284   8.392  20.495  0.00  0.00    +0.000 A 
ATOM     14  C   UNL     1      47.099   9.438  19.595  0.00  0.00    +0.000 A 
ATOM     15  C   UNL     1      48.030   9.646  18.585  0.00  0.00    +0.000 A 
ATOM     16  C   UNL     1      49.136   8.796  18.472  0.00  0.00    +0.000 A 
ENDBRANCH   9  11
ENDBRANCH   8   9
ENDBRANCH   7   8
ENDBRANCH   1   2
BRANCH   1  19
ATOM     17  O   UNL     1      48.756   5.991  12.906  0.00  0.00    +0.000 OA
ATOM     18  C   UNL     1      47.689   6.156  13.490  0.00  0.00    +0.000 C 
ATOM     19  N   UNL     1      47.624   6.466  14.824  0.00  0.00    +0.000 N 
ATOM     20  H   UNL     1      46.725   6.430  15.293  0.00  0.00    +0.000 HD
BRANCH  18  21
ATOM     21  C   UNL     1      46.406   6.072  12.782  0.00  0.00    +0.000 A 
ATOM     22  C   UNL     1      45.842   7.215  12.232  0.00  0.00    +0.000 A 
ATOM     23  S   UNL     1      44.368   6.923  11.426  0.00  0.00    +0.000 S 
ATOM     24  C   UNL     1      44.451   5.253  11.755  0.00  0.00    +0.000 A 
ATOM     25  N   UNL     1      43.502   4.402  11.289  0.00  0.00    +0.000 NA
ATOM     26  C   UNL     1      43.711   3.162  11.580  0.00  0.00    +0.000 A 
ATOM     27  N   UNL     1      44.779   2.697  12.304  0.00  0.00    +0.000 N 
ATOM     28  C   UNL     1      45.739   3.527  12.833  0.00  0.00    +0.000 A 
ATOM     29  O   UNL     1      46.637   3.091  13.547  0.00  0.00    +0.000 OA
ATOM     30  C   UNL     1      45.568   4.928  12.503  0.00  0.00    +0.000 A 
ATOM     31  H   UNL     1      44.870   1.716  12.520  0.00  0.00    +0.000 HD
ENDBRANCH  18  21
ENDBRANCH   1  19
TORSDOF 6
ENDMDL
MODEL 8
REMARK VINA RESULT:    -6.955      2.274      3.722
REMARK INTER + INTRA:         -10.451
REMARK INTER:                  -9.457
REMARK INTRA:                  -0.994
REMARK UNBOUND:                -1.056
REMARK  Name = 
REMARK  6 active torsions:
REMARK  status: ('A' for Active; 'I' for Inactive)
REMARK    1  A    between atoms: C_2  and  C_19
REMARK    2  A    between atoms: N_3  and  C_4
REMARK    3  A    between atoms: C_4  and  C_5
REMARK    4  A    between atoms: C_10  and  C_11
REMARK    5  A    between atoms: C_11  and  N_12
REMARK    6  A    between atoms: N_12  and  C_13
REMARK                            x       y       z     vdW  Elec       q    Type
REMARK                         _______ _______ _______ _____ _____    ______ ____
ROOT
ATOM      1  C   UNL     1      46.514   4.781  13.150  0.00  0.00    +0.000 C 
ENDROOT
BRANCH   1   2
ATOM      2  C   UNL     1      45.333   5.327  12.397  0.00  0.00    +0.000 A 
ATOM      3  C   UNL     1      45.017   6.690  12.536  0.00  0.00    +0.000 A 
ATOM      4  C   UNL     1      43.932   7.235  11.861  0.00  0.00    +0.000 A 
ATOM      5  C   UNL     1      43.184   6.396  11.061  0.00  0.00    +0.000 A 
ATOM      6  N   UNL     1      43.465   5.088  10.875  0.00  0.00    +0.000 NA
ATOM      7  C   UNL     1      44.548   4.561  11.519  0.00  0.00    +0.000 A 
BRANCH   7   8
ATOM      8  C   UNL     1      44.821   3.091  11.226  0.00  0.00    +0.000 C 
BRANCH   8   9
ATOM      9  N   UNL     1      44.383   2.747   9.873  0.00  0.00    +0.000 N 
ATOM     10  H   UNL     1      43.530   3.249   9.625  0.00  0.00    +0.000 HD
BRANCH   9  11
ATOM     11  C   UNL     1      45.280   2.739   8.800  0.00  0.00    +0.000 A 
ATOM     12  C   UNL     1      45.671   3.874   8.080  0.00  0.00    +0.000 A 
ATOM     13  C   UNL     1      46.627   3.792   7.057  0.00  0.00    +0.000 A 
ATOM     14  C   UNL     1      47.233   2.575   6.758  0.00  0.00    +0.000 A 
ATOM     15  C   UNL     1      46.884   1.441   7.481  0.00  0.00    +0.000 A 
ATOM     16  C   UNL     1      45.920   1.527   8.491  0.00  0.00    +0.000 A 
ENDBRANCH   9  11
ENDBRANCH   8   9
ENDBRANCH   7   8
ENDBRANCH   1   2
BRANCH   1  19
ATOM     17  O   UNL     1      48.935   6.139  12.911  0.00  0.00    +0.000 OA
ATOM     18  C   UNL     1      48.189   6.433  13.840  0.00  0.00    +0.000 C 
ATOM     19  N   UNL     1      47.021   5.757  14.085  0.00  0.00    +0.000 N 
ATOM     20  H   UNL     1      46.364   6.139  14.756  0.00  0.00    +0.000 HD
BRANCH  18  21
ATOM     21  C   UNL     1      48.521   7.510  14.779  0.00  0.00    +0.000 A 
ATOM     22  C   UNL     1      48.922   7.203  16.073  0.00  0.00    +0.000 A 
ATOM     23  S   UNL     1      49.293   8.576  17.013  0.00  0.00    +0.000 S 
ATOM     24  C   UNL     1      48.963   9.627  15.713  0.00  0.00    +0.000 A 
ATOM     25  N   UNL     1      49.136  10.968  15.839  0.00  0.00    +0.000 NA
ATOM     26  C   UNL     1      48.885  11.639  14.766  0.00  0.00    +0.000 A 
ATOM     27  N   UNL     1      48.468  11.091  13.579  0.00  0.00    +0.000 N 
ATOM     28  C   UNL     1      48.237   9.745  13.420  0.00  0.00    +0.000 A 
ATOM     29  O   UNL     1      47.782   9.295  12.373  0.00  0.00    +0.000 OA
ATOM     30  C   UNL     1      48.538   8.943  14.589  0.00  0.00    +0.000 A 
ATOM     31  H   UNL     1      48.263  11.675  12.783  0.00  0.00    +0.000 HD
ENDBRANCH  18  21
ENDBRANCH   1  19
TORSDOF 6
ENDMDL
MODEL 9
REMARK VINA RESULT:    -6.760      3.138      8.147
REMARK INTER + INTRA:         -10.187
REMARK INTER:                  -9.080
REMARK INTRA:                  -1.107
REMARK UNBOUND:                -1.056
REMARK  Name = 
REMARK  6 active torsions:
REMARK  status: ('A' for Active; 'I' for Inactive)
REMARK    1  A    between atoms: C_2  and  C_19
REMARK    2  A    between atoms: N_3  and  C_4
REMARK    3  A    between atoms: C_4  and  C_5
REMARK    4  A    between atoms: C_10  and  C_11
REMARK    5  A    between atoms: C_11  and  N_12
REMARK    6  A    between atoms: N_12  and  C_13
REMARK                            x       y       z     vdW  Elec       q    Type
REMARK                         _______ _______ _______ _____ _____    ______ ____
ROOT
ATOM      1  C   UNL     1      48.873   6.481  15.679  0.00  0.00    +0.000 C 
ENDROOT
BRANCH   1   2
ATOM      2  C   UNL     1      48.770   5.406  16.725  0.00  0.00    +0.000 A 
ATOM      3  C   UNL     1      47.829   4.377  16.541  0.00  0.00    +0.000 A 
ATOM      4  C   UNL     1      47.698   3.365  17.485  0.00  0.00    +0.000 A 
ATOM      5  C   UNL     1      48.516   3.410  18.594  0.00  0.00    +0.000 A 
ATOM      6  N   UNL     1      49.452   4.361  18.799  0.00  0.00    +0.000 NA
ATOM      7  C   UNL     1      49.597   5.340  17.858  0.00  0.00    +0.000 A 
BRANCH   7   8
ATOM      8  C   UNL     1      50.701   6.351  18.143  0.00  0.00    +0.000 C 
BRANCH   8   9
ATOM      9  N   UNL     1      52.012   5.703  18.112  0.00  0.00    +0.000 N 
ATOM     10  H   UNL     1      51.923   4.691  18.215  0.00  0.00    +0.000 HD
BRANCH   9  11
ATOM     11  C   UNL     1      52.953   6.017  17.126  0.00  0.00    +0.000 A 
ATOM     12  C   UNL     1      54.176   5.358  16.953  0.00  0.00    +0.000 A 
ATOM     13  C   UNL     1      55.038   5.691  15.898  0.00  0.00    +0.000 A 
ATOM     14  C   UNL     1      54.675   6.670  14.977  0.00  0.00    +0.000 A 
ATOM     15  C   UNL     1      53.452   7.316  15.110  0.00  0.00    +0.000 A 
ATOM     16  C   UNL     1      52.603   6.989  16.173  0.00  0.00    +0.000 A 
ENDBRANCH   9  11
ENDBRANCH   8   9
ENDBRANCH   7   8
ENDBRANCH   1   2
BRANCH   1  19
ATOM     17  O   UNL     1      48.827   6.016  12.932  0.00  0.00    +0.000 OA
ATOM     18  C   UNL     1      47.760   6.181  13.516  0.00  0.00    +0.000 C 
ATOM     19  N   UNL     1      47.694   6.503  14.847  0.00  0.00    +0.000 N 
ATOM     20  H   UNL     1      46.797   6.466  15.318  0.00  0.00    +0.000 HD
BRANCH  18  21
ATOM     21  C   UNL     1      46.476   6.083  12.811  0.00  0.00    +0.000 A 
ATOM     22  C   UNL     1      45.895   7.222  12.270  0.00  0.00    +0.000 A 
ATOM     23  S   UNL     1      44.423   6.915  11.465  0.00  0.00    +0.000 S 
ATOM     24  C   UNL     1      44.531   5.244  11.782  0.00  0.00    +0.000 A 
ATOM     25  N   UNL     1      43.592   4.383  11.313  0.00  0.00    +0.000 NA
ATOM     26  C   UNL     1      43.819   3.144  11.596  0.00  0.00    +0.000 A 
ATOM     27  N   UNL     1      44.895   2.690  12.314  0.00  0.00    +0.000 N 
ATOM     28  C   UNL     1      45.845   3.529  12.846  0.00  0.00    +0.000 A 
ATOM     29  O   UNL     1      46.750   3.101  13.555  0.00  0.00    +0.000 OA
ATOM     30  C   UNL     1      45.654   4.930  12.526  0.00  0.00    +0.000 A 
ATOM     31  H   UNL     1      45.001   1.708  12.523  0.00  0.00    +0.000 HD
ENDBRANCH  18  21
ENDBRANCH   1  19
TORSDOF 6
ENDMDL
