MODEL 1
REMARK VINA RESULT:    -7.510      0.000      0.000
REMARK INTER + INTRA:         -12.860
REMARK INTER:                 -11.900
REMARK INTRA:                  -0.959
REMARK UNBOUND:                -0.959
REMARK  Name = 
REMARK  12 active torsions:
REMARK  status: ('A' for Active; 'I' for Inactive)
REMARK    1  A    between atoms: C_1  and  O_2
REMARK    2  A    between atoms: O_2  and  C_3
REMARK    3  A    between atoms: C_3  and  C_4
REMARK    4  A    between atoms: C_4  and  N_5
REMARK    5  A    between atoms: C_4  and  C_23
REMARK    6  A    between atoms: N_5  and  C_6
REMARK    7  A    between atoms: C_6  and  C_7
REMARK    8  A    between atoms: C_10  and  C_11
REMARK    9  A    between atoms: C_11  and  N_12
REMARK   10  A    between atoms: N_12  and  C_13
REMARK   11  A    between atoms: N_12  and  C_14
REMARK   12  A    between atoms: C_14  and  C_15
REMARK                            x       y       z     vdW  Elec       q    Type
REMARK                         _______ _______ _______ _____ _____    ______ ____
ROOT
ATOM      1  N   UNL     1      48.983   5.348  15.897  0.00  0.00    +0.000 NA
ATOM      2  H   UNL     1      48.313   4.609  15.678  0.00  0.00    +0.000 HD
ENDROOT
BRANCH   1   3
ATOM      3  C   UNL     1      48.999   5.497  17.367  0.00  0.00    +0.000 C 
BRANCH   3   4
ATOM      4  C   UNL     1      50.291   4.894  17.891  0.00  0.00    +0.000 A 
ATOM      5  C   UNL     1      51.291   5.610  18.541  0.00  0.00    +0.000 A 
ATOM      6  S   UNL     1      52.697   4.697  18.841  0.00  0.00    +0.000 S 
ATOM      7  C   UNL     1      52.008   3.306  18.143  0.00  0.00    +0.000 A 
ATOM      8  N   UNL     1      52.721   2.154  18.043  0.00  0.00    +0.000 NA
ATOM      9  C   UNL     1      52.083   1.191  17.468  0.00  0.00    +0.000 A 
ATOM     10  N   UNL     1      50.789   1.262  17.021  0.00  0.00    +0.000 N 
ATOM     11  C   UNL     1      50.004   2.388  17.157  0.00  0.00    +0.000 A 
ATOM     12  O   UNL     1      48.810   2.373  16.868  0.00  0.00    +0.000 OA
ATOM     13  C   UNL     1      50.708   3.523  17.725  0.00  0.00    +0.000 A 
ATOM     14  H   UNL     1      50.331   0.452  16.632  0.00  0.00    +0.000 HD
ENDBRANCH   3   4
BRANCH   3  15
ATOM     15  C   UNL     1      48.755   6.941  17.881  0.00  0.00    +0.000 C 
BRANCH  15  17
ATOM     16  C   UNL     1      47.003   5.785  18.925  0.00  0.00    +0.000 C 
ATOM     17  O   UNL     1      47.757   6.997  18.907  0.00  0.00    +0.000 OA
ENDBRANCH  15  17
ENDBRANCH   3  15
ENDBRANCH   1   3
BRANCH   1  18
ATOM     18  C   UNL     1      48.593   6.549  15.161  0.00  0.00    +0.000 C 
BRANCH  18  19
ATOM     19  C   UNL     1      47.634   6.236  14.038  0.00  0.00    +0.000 A 
ATOM     20  C   UNL     1      46.753   5.153  14.131  0.00  0.00    +0.000 A 
ATOM     21  C   UNL     1      45.825   4.910  13.121  0.00  0.00    +0.000 A 
ATOM     22  C   UNL     1      45.744   5.758  12.006  0.00  0.00    +0.000 A 
ATOM     23  C   UNL     1      46.646   6.821  11.894  0.00  0.00    +0.000 A 
ATOM     24  C   UNL     1      47.584   7.057  12.900  0.00  0.00    +0.000 A 
BRANCH  22  25
ATOM     25  C   UNL     1      44.685   5.535  10.950  0.00  0.00    +0.000 C 
BRANCH  25  26
ATOM     26  N   UNL     1      44.582   4.119  10.532  0.00  0.00    +0.000 NA
ATOM     27  C   UNL     1      43.483   3.439  11.225  0.00  0.00    +0.000 C 
BRANCH  26  28
ATOM     28  C   UNL     1      44.378   4.025   9.071  0.00  0.00    +0.000 C 
BRANCH  28  29
ATOM     29  C   UNL     1      45.417   3.180   8.365  0.00  0.00    +0.000 A 
ATOM     30  C   UNL     1      45.529   1.821   8.643  0.00  0.00    +0.000 A 
ATOM     31  N   UNL     1      46.483   1.033   8.092  0.00  0.00    +0.000 NA
ATOM     32  C   UNL     1      47.334   1.665   7.254  0.00  0.00    +0.000 A 
ATOM     33  C   UNL     1      47.229   3.014   6.965  0.00  0.00    +0.000 A 
ATOM     34  N   UNL     1      46.272   3.801   7.508  0.00  0.00    +0.000 NA
ENDBRANCH  28  29
ENDBRANCH  26  28
ENDBRANCH  25  26
ENDBRANCH  22  25
ENDBRANCH  18  19
ENDBRANCH   1  18
TORSDOF 10
ENDMDL
MODEL 2
REMARK VINA RESULT:    -6.960      1.851      3.411
REMARK INTER + INTRA:         -11.987
REMARK INTER:                 -11.122
REMARK INTRA:                  -0.866
REMARK UNBOUND:                -0.959
REMARK  Name = 
REMARK  12 active torsions:
REMARK  status: ('A' for Active; 'I' for Inactive)
REMARK    1  A    between atoms: C_1  and  O_2
REMARK    2  A    between atoms: O_2  and  C_3
REMARK    3  A    between atoms: C_3  and  C_4
REMARK    4  A    between atoms: C_4  and  N_5
REMARK    5  A    between atoms: C_4  and  C_23
REMARK    6  A    between atoms: N_5  and  C_6
REMARK    7  A    between atoms: C_6  and  C_7
REMARK    8  A    between atoms: C_10  and  C_11
REMARK    9  A    between atoms: C_11  and  N_12
REMARK   10  A    between atoms: N_12  and  C_13
REMARK   11  A    between atoms: N_12  and  C_14
REMARK   12  A    between atoms: C_14  and  C_15
REMARK                            x       y       z     vdW  Elec       q    Type
REMARK                         _______ _______ _______ _____ _____    ______ ____
ROOT
ATOM      1  N   UNL     1      48.801   5.642  16.026  0.00  0.00    +0.000 NA
ATOM      2  H   UNL     1      48.014   5.947  16.601  0.00  0.00    +0.000 HD
ENDROOT
BRANCH   1   3
ATOM      3  C   UNL     1      49.999   5.656  16.890  0.00  0.00    +0.000 C 
BRANCH   3   4
ATOM      4  C   UNL     1      49.776   6.673  17.996  0.00  0.00    +0.000 A 
ATOM      5  C   UNL     1      50.564   7.798  18.208  0.00  0.00    +0.000 A 
ATOM      6  S   UNL     1      50.179   8.641  19.636  0.00  0.00    +0.000 S 
ATOM      7  C   UNL     1      48.925   7.551  20.006  0.00  0.00    +0.000 A 
ATOM      8  N   UNL     1      48.204   7.685  21.148  0.00  0.00    +0.000 NA
ATOM      9  C   UNL     1      47.306   6.773  21.312  0.00  0.00    +0.000 A 
ATOM     10  N   UNL     1      47.038   5.765  20.421  0.00  0.00    +0.000 N 
ATOM     11  C   UNL     1      47.700   5.625  19.219  0.00  0.00    +0.000 A 
ATOM     12  O   UNL     1      47.343   4.794  18.387  0.00  0.00    +0.000 OA
ATOM     13  C   UNL     1      48.775   6.582  19.031  0.00  0.00    +0.000 A 
ATOM     14  H   UNL     1      46.282   5.118  20.584  0.00  0.00    +0.000 HD
ENDBRANCH   3   4
BRANCH   3  15
ATOM     15  C   UNL     1      50.437   4.267  17.427  0.00  0.00    +0.000 C 
BRANCH  15  17
ATOM     16  C   UNL     1      50.477   1.952  17.065  0.00  0.00    +0.000 C 
ATOM     17  O   UNL     1      49.870   3.185  16.679  0.00  0.00    +0.000 OA
ENDBRANCH  15  17
ENDBRANCH   3  15
ENDBRANCH   1   3
BRANCH   1  18
ATOM     18  C   UNL     1      48.875   6.515  14.856  0.00  0.00    +0.000 C 
BRANCH  18  19
ATOM     19  C   UNL     1      47.710   6.305  13.920  0.00  0.00    +0.000 A 
ATOM     20  C   UNL     1      47.498   7.167  12.838  0.00  0.00    +0.000 A 
ATOM     21  C   UNL     1      46.460   6.928  11.939  0.00  0.00    +0.000 A 
ATOM     22  C   UNL     1      45.627   5.809  12.091  0.00  0.00    +0.000 A 
ATOM     23  C   UNL     1      45.815   4.965  13.191  0.00  0.00    +0.000 A 
ATOM     24  C   UNL     1      46.846   5.211  14.098  0.00  0.00    +0.000 A 
BRANCH  22  25
ATOM     25  C   UNL     1      44.551   5.512  11.070  0.00  0.00    +0.000 C 
BRANCH  25  26
ATOM     26  N   UNL     1      44.570   4.104  10.612  0.00  0.00    +0.000 NA
ATOM     27  C   UNL     1      43.561   3.303  11.313  0.00  0.00    +0.000 C 
BRANCH  26  28
ATOM     28  C   UNL     1      44.334   4.032   9.154  0.00  0.00    +0.000 C 
BRANCH  28  29
ATOM     29  C   UNL     1      45.377   3.231   8.408  0.00  0.00    +0.000 A 
ATOM     30  C   UNL     1      45.541   1.872   8.664  0.00  0.00    +0.000 A 
ATOM     31  N   UNL     1      46.503   1.122   8.075  0.00  0.00    +0.000 NA
ATOM     32  C   UNL     1      47.308   1.791   7.222  0.00  0.00    +0.000 A 
ATOM     33  C   UNL     1      47.151   3.139   6.953  0.00  0.00    +0.000 A 
ATOM     34  N   UNL     1      46.187   3.889   7.534  0.00  0.00    +0.000 NA
ENDBRANCH  28  29
ENDBRANCH  26  28
ENDBRANCH  25  26
ENDBRANCH  22  25
ENDBRANCH  18  19
ENDBRANCH   1  18
TORSDOF 10
ENDMDL
MODEL 3
REMARK VINA RESULT:    -6.953      2.419      4.436
REMARK INTER + INTRA:         -11.978
REMARK INTER:                 -10.854
REMARK INTRA:                  -1.123
REMARK UNBOUND:                -0.959
REMARK  Name = 
REMARK  12 active torsions:
REMARK  status: ('A' for Active; 'I' for Inactive)
REMARK    1  A    between atoms: C_1  and  O_2
REMARK    2  A    between atoms: O_2  and  C_3
REMARK    3  A    between atoms: C_3  and  C_4
REMARK    4  A    between atoms: C_4  and  N_5
REMARK    5  A    between atoms: C_4  and  C_23
REMARK    6  A    between atoms: N_5  and  C_6
REMARK    7  A    between atoms: C_6  and  C_7
REMARK    8  A    between atoms: C_10  and  C_11
REMARK    9  A    between atoms: C_11  and  N_12
REMARK   10  A    between atoms: N_12  and  C_13
REMARK   11  A    between atoms: N_12  and  C_14
REMARK   12  A    between atoms: C_14  and  C_15
REMARK                            x       y       z     vdW  Elec       q    Type
REMARK                         _______ _______ _______ _____ _____    ______ ____
ROOT
ATOM      1  N   UNL     1      48.127   6.559  15.877  0.00  0.00    +0.000 NA
ATOM      2  H   UNL     1      47.496   7.325  16.116  0.00  0.00    +0.000 HD
ENDROOT
BRANCH   1   3
ATOM      3  C   UNL     1      49.203   6.553  16.889  0.00  0.00    +0.000 C 
BRANCH   3   4
ATOM      4  C   UNL     1      48.655   7.162  18.169  0.00  0.00    +0.000 A 
ATOM      5  C   UNL     1      48.446   6.462  19.352  0.00  0.00    +0.000 A 
ATOM      6  S   UNL     1      47.648   7.372  20.549  0.00  0.00    +0.000 S 
ATOM      7  C   UNL     1      47.583   8.742  19.542  0.00  0.00    +0.000 A 
ATOM      8  N   UNL     1      46.975   9.882  19.960  0.00  0.00    +0.000 NA
ATOM      9  C   UNL     1      46.976  10.829  19.084  0.00  0.00    +0.000 A 
ATOM     10  N   UNL     1      47.563  10.754  17.846  0.00  0.00    +0.000 N 
ATOM     11  C   UNL     1      48.246   9.641  17.401  0.00  0.00    +0.000 A 
ATOM     12  O   UNL     1      48.873   9.657  16.345  0.00  0.00    +0.000 OA
ATOM     13  C   UNL     1      48.199   8.522  18.324  0.00  0.00    +0.000 A 
ATOM     14  H   UNL     1      47.577  11.553  17.230  0.00  0.00    +0.000 HD
ENDBRANCH   3   4
BRANCH   3  15
ATOM     15  C   UNL     1      49.878   5.174  17.120  0.00  0.00    +0.000 C 
BRANCH  15  17
ATOM     16  C   UNL     1      48.959   3.100  17.709  0.00  0.00    +0.000 C 
ATOM     17  O   UNL     1      49.063   4.083  16.679  0.00  0.00    +0.000 OA
ENDBRANCH  15  17
ENDBRANCH   3  15
ENDBRANCH   1   3
BRANCH   1  18
ATOM     18  C   UNL     1      48.578   6.754  14.500  0.00  0.00    +0.000 C 
BRANCH  18  19
ATOM     19  C   UNL     1      47.593   6.202  13.499  0.00  0.00    +0.000 A 
ATOM     20  C   UNL     1      46.870   5.037  13.777  0.00  0.00    +0.000 A 
ATOM     21  C   UNL     1      45.913   4.569  12.878  0.00  0.00    +0.000 A 
ATOM     22  C   UNL     1      45.644   5.271  11.693  0.00  0.00    +0.000 A 
ATOM     23  C   UNL     1      46.389   6.418  11.397  0.00  0.00    +0.000 A 
ATOM     24  C   UNL     1      47.355   6.878  12.291  0.00  0.00    +0.000 A 
BRANCH  22  25
ATOM     25  C   UNL     1      44.551   4.802  10.757  0.00  0.00    +0.000 C 
BRANCH  25  26
ATOM     26  N   UNL     1      44.551   3.334  10.568  0.00  0.00    +0.000 NA
ATOM     27  C   UNL     1      43.533   2.690  11.404  0.00  0.00    +0.000 C 
BRANCH  26  28
ATOM     28  C   UNL     1      44.310   2.998   9.148  0.00  0.00    +0.000 C 
BRANCH  28  29
ATOM     29  C   UNL     1      45.553   2.552   8.409  0.00  0.00    +0.000 A 
ATOM     30  C   UNL     1      46.302   3.466   7.671  0.00  0.00    +0.000 A 
ATOM     31  N   UNL     1      47.382   3.109   6.937  0.00  0.00    +0.000 NA
ATOM     32  C   UNL     1      47.681   1.792   6.960  0.00  0.00    +0.000 A 
ATOM     33  C   UNL     1      46.949   0.876   7.694  0.00  0.00    +0.000 A 
ATOM     34  N   UNL     1      45.874   1.230   8.435  0.00  0.00    +0.000 NA
ENDBRANCH  28  29
ENDBRANCH  26  28
ENDBRANCH  25  26
ENDBRANCH  22  25
ENDBRANCH  18  19
ENDBRANCH   1  18
TORSDOF 10
ENDMDL
MODEL 4
REMARK VINA RESULT:    -6.905      2.373      3.345
REMARK INTER + INTRA:         -11.902
REMARK INTER:                 -10.513
REMARK INTRA:                  -1.389
REMARK UNBOUND:                -0.959
REMARK  Name = 
REMARK  12 active torsions:
REMARK  status: ('A' for Active; 'I' for Inactive)
REMARK    1  A    between atoms: C_1  and  O_2
REMARK    2  A    between atoms: O_2  and  C_3
REMARK    3  A    between atoms: C_3  and  C_4
REMARK    4  A    between atoms: C_4  and  N_5
REMARK    5  A    between atoms: C_4  and  C_23
REMARK    6  A    between atoms: N_5  and  C_6
REMARK    7  A    between atoms: C_6  and  C_7
REMARK    8  A    between atoms: C_10  and  C_11
REMARK    9  A    between atoms: C_11  and  N_12
REMARK   10  A    between atoms: N_12  and  C_13
REMARK   11  A    between atoms: N_12  and  C_14
REMARK   12  A    between atoms: C_14  and  C_15
REMARK                            x       y       z     vdW  Elec       q    Type
REMARK                         _______ _______ _______ _____ _____    ______ ____
ROOT
ATOM      1  N   UNL     1      49.981   6.873  14.777  0.00  0.00    +0.000 NA
ATOM      2  H   UNL     1      49.206   6.316  15.139  0.00  0.00    +0.000 HD
ENDROOT
BRANCH   1   3
ATOM      3  C   UNL     1      50.277   7.911  15.785  0.00  0.00    +0.000 C 
BRANCH   3   4
ATOM      4  C   UNL     1      49.266   7.781  16.912  0.00  0.00    +0.000 A 
ATOM      5  C   UNL     1      48.428   8.803  17.344  0.00  0.00    +0.000 A 
ATOM      6  S   UNL     1      47.543   8.411  18.744  0.00  0.00    +0.000 S 
ATOM      7  C   UNL     1      48.224   6.853  18.805  0.00  0.00    +0.000 A 
ATOM      8  N   UNL     1      47.911   5.997  19.812  0.00  0.00    +0.000 NA
ATOM      9  C   UNL     1      48.522   4.863  19.746  0.00  0.00    +0.000 A 
ATOM     10  N   UNL     1      49.385   4.492  18.747  0.00  0.00    +0.000 N 
ATOM     11  C   UNL     1      49.686   5.301  17.671  0.00  0.00    +0.000 A 
ATOM     12  O   UNL     1      50.355   4.886  16.728  0.00  0.00    +0.000 OA
ATOM     13  C   UNL     1      49.083   6.619  17.747  0.00  0.00    +0.000 A 
ATOM     14  H   UNL     1      49.785   3.566  18.726  0.00  0.00    +0.000 HD
ENDBRANCH   3   4
BRANCH   3  15
ATOM     15  C   UNL     1      51.744   7.932  16.292  0.00  0.00    +0.000 C 
BRANCH  15  17
ATOM     16  C   UNL     1      53.531   7.933  14.775  0.00  0.00    +0.000 C 
ATOM     17  O   UNL     1      52.612   7.115  15.499  0.00  0.00    +0.000 OA
ENDBRANCH  15  17
ENDBRANCH   3  15
ENDBRANCH   1   3
BRANCH   1  18
ATOM     18  C   UNL     1      49.599   7.384  13.462  0.00  0.00    +0.000 C 
BRANCH  18  19
ATOM     19  C   UNL     1      48.304   6.781  12.976  0.00  0.00    +0.000 A 
ATOM     20  C   UNL     1      47.625   5.831  13.747  0.00  0.00    +0.000 A 
ATOM     21  C   UNL     1      46.395   5.327  13.325  0.00  0.00    +0.000 A 
ATOM     22  C   UNL     1      45.810   5.781  12.134  0.00  0.00    +0.000 A 
ATOM     23  C   UNL     1      46.502   6.705  11.344  0.00  0.00    +0.000 A 
ATOM     24  C   UNL     1      47.739   7.199  11.760  0.00  0.00    +0.000 A 
BRANCH  22  25
ATOM     25  C   UNL     1      44.441   5.289  11.718  0.00  0.00    +0.000 C 
BRANCH  25  26
ATOM     26  N   UNL     1      44.458   3.889  11.237  0.00  0.00    +0.000 NA
ATOM     27  C   UNL     1      43.617   3.029  12.075  0.00  0.00    +0.000 C 
BRANCH  26  28
ATOM     28  C   UNL     1      43.993   3.820   9.835  0.00  0.00    +0.000 C 
BRANCH  28  29
ATOM     29  C   UNL     1      45.038   3.300   8.872  0.00  0.00    +0.000 A 
ATOM     30  C   UNL     1      45.388   1.952   8.870  0.00  0.00    +0.000 A 
ATOM     31  N   UNL     1      46.364   1.446   8.078  0.00  0.00    +0.000 NA
ATOM     32  C   UNL     1      46.988   2.349   7.291  0.00  0.00    +0.000 A 
ATOM     33  C   UNL     1      46.645   3.689   7.279  0.00  0.00    +0.000 A 
ATOM     34  N   UNL     1      45.666   4.196   8.063  0.00  0.00    +0.000 NA
ENDBRANCH  28  29
ENDBRANCH  26  28
ENDBRANCH  25  26
ENDBRANCH  22  25
ENDBRANCH  18  19
ENDBRANCH   1  18
TORSDOF 10
ENDMDL
MODEL 5
REMARK VINA RESULT:    -6.773      3.530      8.760
REMARK INTER + INTRA:         -11.692
REMARK INTER:                 -10.256
REMARK INTRA:                  -1.436
REMARK UNBOUND:                -0.959
REMARK  Name = 
REMARK  12 active torsions:
REMARK  status: ('A' for Active; 'I' for Inactive)
REMARK    1  A    between atoms: C_1  and  O_2
REMARK    2  A    between atoms: O_2  and  C_3
REMARK    3  A    between atoms: C_3  and  C_4
REMARK    4  A    between atoms: C_4  and  N_5
REMARK    5  A    between atoms: C_4  and  C_23
REMARK    6  A    between atoms: N_5  and  C_6
REMARK    7  A    between atoms: C_6  and  C_7
REMARK    8  A    between atoms: C_10  and  C_11
REMARK    9  A    between atoms: C_11  and  N_12
REMARK   10  A    between atoms: N_12  and  C_13
REMARK   11  A    between atoms: N_12  and  C_14
REMARK   12  A    between atoms: C_14  and  C_15
REMARK                            x       y       z     vdW  Elec       q    Type
REMARK                         _______ _______ _______ _____ _____    ______ ____
ROOT
ATOM      1  N   UNL     1      47.238   6.614  11.658  0.00  0.00    +0.000 NA
ATOM      2  H   UNL     1      47.467   6.055  10.836  0.00  0.00    +0.000 HD
ENDROOT
BRANCH   1   3
ATOM      3  C   UNL     1      45.864   7.124  11.466  0.00  0.00    +0.000 C 
BRANCH   3   4
ATOM      4  C   UNL     1      44.902   5.955  11.595  0.00  0.00    +0.000 A 
ATOM      5  C   UNL     1      44.040   5.754  12.667  0.00  0.00    +0.000 A 
ATOM      6  S   UNL     1      43.223   4.261  12.615  0.00  0.00    +0.000 S 
ATOM      7  C   UNL     1      43.968   3.845  11.142  0.00  0.00    +0.000 A 
ATOM      8  N   UNL     1      43.726   2.643  10.558  0.00  0.00    +0.000 NA
ATOM      9  C   UNL     1      44.378   2.451   9.462  0.00  0.00    +0.000 A 
ATOM     10  N   UNL     1      45.218   3.364   8.877  0.00  0.00    +0.000 N 
ATOM     11  C   UNL     1      45.446   4.621   9.398  0.00  0.00    +0.000 A 
ATOM     12  O   UNL     1      46.096   5.460   8.779  0.00  0.00    +0.000 OA
ATOM     13  C   UNL     1      44.796   4.849  10.675  0.00  0.00    +0.000 A 
ATOM     14  H   UNL     1      45.653   3.172   7.988  0.00  0.00    +0.000 HD
ENDBRANCH   3   4
BRANCH   3  15
ATOM     15  C   UNL     1      45.478   8.324  12.372  0.00  0.00    +0.000 C 
BRANCH  15  17
ATOM     16  C   UNL     1      43.981   9.544  11.044  0.00  0.00    +0.000 C 
ATOM     17  O   UNL     1      45.283   9.532  11.628  0.00  0.00    +0.000 OA
ENDBRANCH  15  17
ENDBRANCH   3  15
ENDBRANCH   1   3
BRANCH   1  18
ATOM     18  C   UNL     1      48.262   7.647  11.806  0.00  0.00    +0.000 C 
BRANCH  18  19
ATOM     19  C   UNL     1      48.973   7.550  13.134  0.00  0.00    +0.000 A 
ATOM     20  C   UNL     1      48.382   6.886  14.214  0.00  0.00    +0.000 A 
ATOM     21  C   UNL     1      49.072   6.742  15.417  0.00  0.00    +0.000 A 
ATOM     22  C   UNL     1      50.376   7.241  15.555  0.00  0.00    +0.000 A 
ATOM     23  C   UNL     1      50.956   7.935  14.488  0.00  0.00    +0.000 A 
ATOM     24  C   UNL     1      50.261   8.090  13.289  0.00  0.00    +0.000 A 
BRANCH  22  25
ATOM     25  C   UNL     1      51.150   7.015  16.836  0.00  0.00    +0.000 C 
BRANCH  25  26
ATOM     26  N   UNL     1      51.590   5.612  16.998  0.00  0.00    +0.000 NA
ATOM     27  C   UNL     1      53.042   5.529  17.189  0.00  0.00    +0.000 C 
BRANCH  26  28
ATOM     28  C   UNL     1      50.905   4.986  18.149  0.00  0.00    +0.000 C 
BRANCH  28  29
ATOM     29  C   UNL     1      49.586   4.336  17.792  0.00  0.00    +0.000 A 
ATOM     30  C   UNL     1      48.397   4.794  18.355  0.00  0.00    +0.000 A 
ATOM     31  N   UNL     1      47.199   4.206  18.123  0.00  0.00    +0.000 NA
ATOM     32  C   UNL     1      47.237   3.129  17.309  0.00  0.00    +0.000 A 
ATOM     33  C   UNL     1      48.410   2.669  16.738  0.00  0.00    +0.000 A 
ATOM     34  N   UNL     1      49.607   3.258  16.962  0.00  0.00    +0.000 NA
ENDBRANCH  28  29
ENDBRANCH  26  28
ENDBRANCH  25  26
ENDBRANCH  22  25
ENDBRANCH  18  19
ENDBRANCH   1  18
TORSDOF 10
ENDMDL
MODEL 6
REMARK VINA RESULT:    -6.657      3.436      8.672
REMARK INTER + INTRA:         -11.508
REMARK INTER:                 -10.200
REMARK INTRA:                  -1.308
REMARK UNBOUND:                -0.959
REMARK  Name = 
REMARK  12 active torsions:
REMARK  status: ('A' for Active; 'I' for Inactive)
REMARK    1  A    between atoms: C_1  and  O_2
REMARK    2  A    between atoms: O_2  and  C_3
REMARK    3  A    between atoms: C_3  and  C_4
REMARK    4  A    between atoms: C_4  and  N_5
REMARK    5  A    between atoms: C_4  and  C_23
REMARK    6  A    between atoms: N_5  and  C_6
REMARK    7  A    between atoms: C_6  and  C_7
REMARK    8  A    between atoms: C_10  and  C_11
REMARK    9  A    between atoms: C_11  and  N_12
REMARK   10  A    between atoms: N_12  and  C_13
REMARK   11  A    between atoms: N_12  and  C_14
REMARK   12  A    between atoms: C_14  and  C_15
REMARK                            x       y       z     vdW  Elec       q    Type
REMARK                         _______ _______ _______ _____ _____    ______ ____
ROOT
ATOM      1  N   UNL     1      47.466   6.316  12.362  0.00  0.00    +0.000 NA
ATOM      2  H   UNL     1      47.749   5.395  12.027  0.00  0.00    +0.000 HD
ENDROOT
BRANCH   1   3
ATOM      3  C   UNL     1      46.440   6.821  11.427  0.00  0.00    +0.000 C 
BRANCH   3   4
ATOM      4  C   UNL     1      45.801   5.630  10.734  0.00  0.00    +0.000 A 
ATOM      5  C   UNL     1      45.792   5.425   9.359  0.00  0.00    +0.000 A 
ATOM      6  S   UNL     1      44.838   4.102   8.873  0.00  0.00    +0.000 S 
ATOM      7  C   UNL     1      44.428   3.736  10.484  0.00  0.00    +0.000 A 
ATOM      8  N   UNL     1      43.583   2.712  10.769  0.00  0.00    +0.000 NA
ATOM      9  C   UNL     1      43.341   2.568  12.028  0.00  0.00    +0.000 A 
ATOM     10  N   UNL     1      43.894   3.326  13.028  0.00  0.00    +0.000 N 
ATOM     11  C   UNL     1      44.805   4.336  12.792  0.00  0.00    +0.000 A 
ATOM     12  O   UNL     1      45.382   4.903  13.717  0.00  0.00    +0.000 OA
ATOM     13  C   UNL     1      45.045   4.586  11.383  0.00  0.00    +0.000 A 
ATOM     14  H   UNL     1      43.705   3.123  13.997  0.00  0.00    +0.000 HD
ENDBRANCH   3   4
BRANCH   3  15
ATOM     15  C   UNL     1      45.396   7.783  12.055  0.00  0.00    +0.000 C 
BRANCH  15  17
ATOM     16  C   UNL     1      44.667   9.995  11.792  0.00  0.00    +0.000 C 
ATOM     17  O   UNL     1      45.803   9.154  11.990  0.00  0.00    +0.000 OA
ENDBRANCH  15  17
ENDBRANCH   3  15
ENDBRANCH   1   3
BRANCH   1  18
ATOM     18  C   UNL     1      48.663   7.149  12.470  0.00  0.00    +0.000 C 
BRANCH  18  19
ATOM     19  C   UNL     1      49.185   7.206  13.885  0.00  0.00    +0.000 A 
ATOM     20  C   UNL     1      48.432   6.689  14.946  0.00  0.00    +0.000 A 
ATOM     21  C   UNL     1      48.948   6.685  16.241  0.00  0.00    +0.000 A 
ATOM     22  C   UNL     1      50.236   7.177  16.497  0.00  0.00    +0.000 A 
ATOM     23  C   UNL     1      50.977   7.725  15.445  0.00  0.00    +0.000 A 
ATOM     24  C   UNL     1      50.455   7.741  14.151  0.00  0.00    +0.000 A 
BRANCH  22  25
ATOM     25  C   UNL     1      50.822   7.100  17.890  0.00  0.00    +0.000 C 
BRANCH  25  26
ATOM     26  N   UNL     1      51.583   5.852  18.122  0.00  0.00    +0.000 NA
ATOM     27  C   UNL     1      52.868   6.127  18.773  0.00  0.00    +0.000 C 
BRANCH  26  28
ATOM     28  C   UNL     1      50.798   4.916  18.954  0.00  0.00    +0.000 C 
BRANCH  28  29
ATOM     29  C   UNL     1      50.070   3.856  18.156  0.00  0.00    +0.000 A 
ATOM     30  C   UNL     1      50.779   2.954  17.368  0.00  0.00    +0.000 A 
ATOM     31  N   UNL     1      50.176   2.031  16.581  0.00  0.00    +0.000 NA
ATOM     32  C   UNL     1      48.825   2.052  16.606  0.00  0.00    +0.000 A 
ATOM     33  C   UNL     1      48.109   2.939  17.391  0.00  0.00    +0.000 A 
ATOM     34  N   UNL     1      48.709   3.857  18.183  0.00  0.00    +0.000 NA
ENDBRANCH  28  29
ENDBRANCH  26  28
ENDBRANCH  25  26
ENDBRANCH  22  25
ENDBRANCH  18  19
ENDBRANCH   1  18
TORSDOF 10
ENDMDL
MODEL 7
REMARK VINA RESULT:    -6.641      2.363      3.612
REMARK INTER + INTRA:         -11.482
REMARK INTER:                 -10.242
REMARK INTRA:                  -1.241
REMARK UNBOUND:                -0.959
REMARK  Name = 
REMARK  12 active torsions:
REMARK  status: ('A' for Active; 'I' for Inactive)
REMARK    1  A    between atoms: C_1  and  O_2
REMARK    2  A    between atoms: O_2  and  C_3
REMARK    3  A    between atoms: C_3  and  C_4
REMARK    4  A    between atoms: C_4  and  N_5
REMARK    5  A    between atoms: C_4  and  C_23
REMARK    6  A    between atoms: N_5  and  C_6
REMARK    7  A    between atoms: C_6  and  C_7
REMARK    8  A    between atoms: C_10  and  C_11
REMARK    9  A    between atoms: C_11  and  N_12
REMARK   10  A    between atoms: N_12  and  C_13
REMARK   11  A    between atoms: N_12  and  C_14
REMARK   12  A    between atoms: C_14  and  C_15
REMARK                            x       y       z     vdW  Elec       q    Type
REMARK                         _______ _______ _______ _____ _____    ______ ____
ROOT
ATOM      1  N   UNL     1      50.043   7.038  14.435  0.00  0.00    +0.000 NA
ATOM      2  H   UNL     1      49.524   6.202  14.707  0.00  0.00    +0.000 HD
ENDROOT
BRANCH   1   3
ATOM      3  C   UNL     1      50.782   7.497  15.629  0.00  0.00    +0.000 C 
BRANCH   3   4
ATOM      4  C   UNL     1      50.496   6.530  16.765  0.00  0.00    +0.000 A 
ATOM      5  C   UNL     1      51.261   5.407  17.060  0.00  0.00    +0.000 A 
ATOM      6  S   UNL     1      50.582   4.419  18.270  0.00  0.00    +0.000 S 
ATOM      7  C   UNL     1      49.260   5.473  18.465  0.00  0.00    +0.000 A 
ATOM      8  N   UNL     1      48.264   5.182  19.341  0.00  0.00    +0.000 NA
ATOM      9  C   UNL     1      47.314   6.055  19.364  0.00  0.00    +0.000 A 
ATOM     10  N   UNL     1      47.288   7.208  18.623  0.00  0.00    +0.000 N 
ATOM     11  C   UNL     1      48.305   7.578  17.767  0.00  0.00    +0.000 A 
ATOM     12  O   UNL     1      48.312   8.680  17.223  0.00  0.00    +0.000 OA
ATOM     13  C   UNL     1      49.356   6.585  17.648  0.00  0.00    +0.000 A 
ATOM     14  H   UNL     1      46.541   7.877  18.731  0.00  0.00    +0.000 HD
ENDBRANCH   3   4
BRANCH   3  15
ATOM     15  C   UNL     1      52.301   7.734  15.409  0.00  0.00    +0.000 C 
BRANCH  15  17
ATOM     16  C   UNL     1      53.372   8.167  13.369  0.00  0.00    +0.000 C 
ATOM     17  O   UNL     1      52.562   8.722  14.406  0.00  0.00    +0.000 OA
ENDBRANCH  15  17
ENDBRANCH   3  15
ENDBRANCH   1   3
BRANCH   1  18
ATOM     18  C   UNL     1      49.093   8.006  13.890  0.00  0.00    +0.000 C 
BRANCH  18  19
ATOM     19  C   UNL     1      47.847   7.338  13.363  0.00  0.00    +0.000 A 
ATOM     20  C   UNL     1      47.571   6.000  13.665  0.00  0.00    +0.000 A 
ATOM     21  C   UNL     1      46.386   5.408  13.232  0.00  0.00    +0.000 A 
ATOM     22  C   UNL     1      45.442   6.150  12.506  0.00  0.00    +0.000 A 
ATOM     23  C   UNL     1      45.730   7.478  12.173  0.00  0.00    +0.000 A 
ATOM     24  C   UNL     1      46.922   8.066  12.596  0.00  0.00    +0.000 A 
BRANCH  22  25
ATOM     25  C   UNL     1      44.124   5.526  12.103  0.00  0.00    +0.000 C 
BRANCH  25  26
ATOM     26  N   UNL     1      44.288   4.194  11.480  0.00  0.00    +0.000 NA
ATOM     27  C   UNL     1      43.533   3.169  12.209  0.00  0.00    +0.000 C 
BRANCH  26  28
ATOM     28  C   UNL     1      43.844   4.225  10.070  0.00  0.00    +0.000 C 
BRANCH  28  29
ATOM     29  C   UNL     1      44.795   3.535   9.117  0.00  0.00    +0.000 A 
ATOM     30  C   UNL     1      45.076   2.179   9.259  0.00  0.00    +0.000 A 
ATOM     31  N   UNL     1      45.971   1.527   8.478  0.00  0.00    +0.000 NA
ATOM     32  C   UNL     1      46.585   2.291   7.549  0.00  0.00    +0.000 A 
ATOM     33  C   UNL     1      46.309   3.638   7.394  0.00  0.00    +0.000 A 
ATOM     34  N   UNL     1      45.411   4.290   8.168  0.00  0.00    +0.000 NA
ENDBRANCH  28  29
ENDBRANCH  26  28
ENDBRANCH  25  26
ENDBRANCH  22  25
ENDBRANCH  18  19
ENDBRANCH   1  18
TORSDOF 10
ENDMDL
MODEL 8
REMARK VINA RESULT:    -6.566      2.457      3.568
REMARK INTER + INTRA:         -11.364
REMARK INTER:                  -9.867
REMARK INTRA:                  -1.497
REMARK UNBOUND:                -0.959
REMARK  Name = 
REMARK  12 active torsions:
REMARK  status: ('A' for Active; 'I' for Inactive)
REMARK    1  A    between atoms: C_1  and  O_2
REMARK    2  A    between atoms: O_2  and  C_3
REMARK    3  A    between atoms: C_3  and  C_4
REMARK    4  A    between atoms: C_4  and  N_5
REMARK    5  A    between atoms: C_4  and  C_23
REMARK    6  A    between atoms: N_5  and  C_6
REMARK    7  A    between atoms: C_6  and  C_7
REMARK    8  A    between atoms: C_10  and  C_11
REMARK    9  A    between atoms: C_11  and  N_12
REMARK   10  A    between atoms: N_12  and  C_13
REMARK   11  A    between atoms: N_12  and  C_14
REMARK   12  A    between atoms: C_14  and  C_15
REMARK                            x       y       z     vdW  Elec       q    Type
REMARK                         _______ _______ _______ _____ _____    ______ ____
ROOT
ATOM      1  N   UNL     1      50.367   7.270  13.644  0.00  0.00    +0.000 NA
ATOM      2  H   UNL     1      49.802   6.545  14.089  0.00  0.00    +0.000 HD
ENDROOT
BRANCH   1   3
ATOM      3  C   UNL     1      51.103   7.966  14.719  0.00  0.00    +0.000 C 
BRANCH   3   4
ATOM      4  C   UNL     1      51.274   7.001  15.880  0.00  0.00    +0.000 A 
ATOM      5  C   UNL     1      52.484   6.431  16.263  0.00  0.00    +0.000 A 
ATOM      6  S   UNL     1      52.324   5.247  17.477  0.00  0.00    +0.000 S 
ATOM      7  C   UNL     1      50.640   5.478  17.556  0.00  0.00    +0.000 A 
ATOM      8  N   UNL     1      49.876   4.726  18.390  0.00  0.00    +0.000 NA
ATOM      9  C   UNL     1      48.615   4.989  18.326  0.00  0.00    +0.000 A 
ATOM     10  N   UNL     1      48.053   5.959  17.535  0.00  0.00    +0.000 N 
ATOM     11  C   UNL     1      48.794   6.789  16.718  0.00  0.00    +0.000 A 
ATOM     12  O   UNL     1      48.274   7.733  16.128  0.00  0.00    +0.000 OA
ATOM     13  C   UNL     1      50.210   6.473  16.698  0.00  0.00    +0.000 A 
ATOM     14  H   UNL     1      47.064   6.152  17.575  0.00  0.00    +0.000 HD
ENDBRANCH   3   4
BRANCH   3  15
ATOM     15  C   UNL     1      52.439   8.622  14.279  0.00  0.00    +0.000 C 
BRANCH  15  17
ATOM     16  C   UNL     1      52.712  10.494  12.895  0.00  0.00    +0.000 C 
ATOM     17  O   UNL     1      52.352  10.049  14.203  0.00  0.00    +0.000 OA
ENDBRANCH  15  17
ENDBRANCH   3  15
ENDBRANCH   1   3
BRANCH   1  18
ATOM     18  C   UNL     1      49.476   8.121  12.858  0.00  0.00    +0.000 C 
BRANCH  18  19
ATOM     19  C   UNL     1      48.109   7.503  12.687  0.00  0.00    +0.000 A 
ATOM     20  C   UNL     1      47.043   8.255  12.182  0.00  0.00    +0.000 A 
ATOM     21  C   UNL     1      45.801   7.661  11.963  0.00  0.00    +0.000 A 
ATOM     22  C   UNL     1      45.608   6.296  12.225  0.00  0.00    +0.000 A 
ATOM     23  C   UNL     1      46.662   5.550  12.762  0.00  0.00    +0.000 A 
ATOM     24  C   UNL     1      47.901   6.148  12.992  0.00  0.00    +0.000 A 
BRANCH  22  25
ATOM     25  C   UNL     1      44.281   5.638  11.915  0.00  0.00    +0.000 C 
BRANCH  25  26
ATOM     26  N   UNL     1      44.434   4.260  11.397  0.00  0.00    +0.000 NA
ATOM     27  C   UNL     1      43.727   3.293  12.243  0.00  0.00    +0.000 C 
BRANCH  26  28
ATOM     28  C   UNL     1      43.925   4.170  10.011  0.00  0.00    +0.000 C 
BRANCH  28  29
ATOM     29  C   UNL     1      44.908   3.551   9.042  0.00  0.00    +0.000 A 
ATOM     30  C   UNL     1      45.176   2.185   9.082  0.00  0.00    +0.000 A 
ATOM     31  N   UNL     1      46.096   1.592   8.284  0.00  0.00    +0.000 NA
ATOM     32  C   UNL     1      46.750   2.424   7.446  0.00  0.00    +0.000 A 
ATOM     33  C   UNL     1      46.488   3.782   7.391  0.00  0.00    +0.000 A 
ATOM     34  N   UNL     1      45.565   4.376   8.182  0.00  0.00    +0.000 NA
ENDBRANCH  28  29
ENDBRANCH  26  28
ENDBRANCH  25  26
ENDBRANCH  22  25
ENDBRANCH  18  19
ENDBRANCH   1  18
TORSDOF 10
ENDMDL
MODEL 9
REMARK VINA RESULT:    -6.420      3.449      9.029
REMARK INTER + INTRA:         -11.132
REMARK INTER:                  -9.719
REMARK INTRA:                  -1.413
REMARK UNBOUND:                -0.959
REMARK  Name = 
REMARK  12 active torsions:
REMARK  status: ('A' for Active; 'I' for Inactive)
REMARK    1  A    between atoms: C_1  and  O_2
REMARK    2  A    between atoms: O_2  and  C_3
REMARK    3  A    between atoms: C_3  and  C_4
REMARK    4  A    between atoms: C_4  and  N_5
REMARK    5  A    between atoms: C_4  and  C_23
REMARK    6  A    between atoms: N_5  and  C_6
REMARK    7  A    between atoms: C_6  and  C_7
REMARK    8  A    between atoms: C_10  and  C_11
REMARK    9  A    between atoms: C_11  and  N_12
REMARK   10  A    between atoms: N_12  and  C_13
REMARK   11  A    between atoms: N_12  and  C_14
REMARK   12  A    between atoms: C_14  and  C_15
REMARK                            x       y       z     vdW  Elec       q    Type
REMARK                         _______ _______ _______ _____ _____    ______ ____
ROOT
ATOM      1  N   UNL     1      47.152   6.633  11.558  0.00  0.00    +0.000 NA
ATOM      2  H   UNL     1      47.617   6.771  10.660  0.00  0.00    +0.000 HD
ENDROOT
BRANCH   1   3
ATOM      3  C   UNL     1      45.764   7.116  11.405  0.00  0.00    +0.000 C 
BRANCH   3   4
ATOM      4  C   UNL     1      44.830   5.922  11.516  0.00  0.00    +0.000 A 
ATOM      5  C   UNL     1      43.945   5.705  12.567  0.00  0.00    +0.000 A 
ATOM      6  S   UNL     1      43.172   4.190  12.502  0.00  0.00    +0.000 S 
ATOM      7  C   UNL     1      43.967   3.784  11.053  0.00  0.00    +0.000 A 
ATOM      8  N   UNL     1      43.774   2.572  10.472  0.00  0.00    +0.000 NA
ATOM      9  C   UNL     1      44.461   2.392   9.395  0.00  0.00    +0.000 A 
ATOM     10  N   UNL     1      45.290   3.323   8.826  0.00  0.00    +0.000 N 
ATOM     11  C   UNL     1      45.471   4.589   9.345  0.00  0.00    +0.000 A 
ATOM     12  O   UNL     1      46.114   5.442   8.737  0.00  0.00    +0.000 OA
ATOM     13  C   UNL     1      44.779   4.808  10.602  0.00  0.00    +0.000 A 
ATOM     14  H   UNL     1      45.755   3.138   7.950  0.00  0.00    +0.000 HD
ENDBRANCH   3   4
BRANCH   3  15
ATOM     15  C   UNL     1      45.368   8.280  12.352  0.00  0.00    +0.000 C 
BRANCH  15  17
ATOM     16  C   UNL     1      45.683  10.522  11.743  0.00  0.00    +0.000 C 
ATOM     17  O   UNL     1      44.811   9.396  11.648  0.00  0.00    +0.000 OA
ENDBRANCH  15  17
ENDBRANCH   3  15
ENDBRANCH   1   3
BRANCH   1  18
ATOM     18  C   UNL     1      47.932   7.319  12.586  0.00  0.00    +0.000 C 
BRANCH  18  19
ATOM     19  C   UNL     1      47.989   6.531  13.872  0.00  0.00    +0.000 A 
ATOM     20  C   UNL     1      48.666   7.034  14.989  0.00  0.00    +0.000 A 
ATOM     21  C   UNL     1      48.658   6.332  16.193  0.00  0.00    +0.000 A 
ATOM     22  C   UNL     1      47.954   5.125  16.311  0.00  0.00    +0.000 A 
ATOM     23  C   UNL     1      47.305   4.603  15.187  0.00  0.00    +0.000 A 
ATOM     24  C   UNL     1      47.324   5.298  13.978  0.00  0.00    +0.000 A 
BRANCH  22  25
ATOM     25  C   UNL     1      47.885   4.406  17.640  0.00  0.00    +0.000 C 
BRANCH  25  26
ATOM     26  N   UNL     1      49.172   4.430  18.372  0.00  0.00    +0.000 NA
ATOM     27  C   UNL     1      48.979   4.140  19.796  0.00  0.00    +0.000 C 
BRANCH  26  28
ATOM     28  C   UNL     1      50.114   3.449  17.791  0.00  0.00    +0.000 C 
BRANCH  28  29
ATOM     29  C   UNL     1      51.555   3.910  17.801  0.00  0.00    +0.000 A 
ATOM     30  C   UNL     1      52.518   3.201  18.514  0.00  0.00    +0.000 A 
ATOM     31  N   UNL     1      53.807   3.606  18.613  0.00  0.00    +0.000 NA
ATOM     32  C   UNL     1      54.095   4.762  17.976  0.00  0.00    +0.000 A 
ATOM     33  C   UNL     1      53.148   5.472  17.259  0.00  0.00    +0.000 A 
ATOM     34  N   UNL     1      51.862   5.066  17.152  0.00  0.00    +0.000 NA
ENDBRANCH  28  29
ENDBRANCH  26  28
ENDBRANCH  25  26
ENDBRANCH  22  25
ENDBRANCH  18  19
ENDBRANCH   1  18
TORSDOF 10
ENDMDL
