MODEL 1
REMARK VINA RESULT:    -7.215      0.000      0.000
REMARK INTER + INTRA:         -10.886
REMARK INTER:                  -9.746
REMARK INTRA:                  -1.141
REMARK UNBOUND:                -1.141
REMARK  Name = 
REMARK  7 active torsions:
REMARK  status: ('A' for Active; 'I' for Inactive)
REMARK    1  A    between atoms: C_1  and  O_2
REMARK    2  A    between atoms: O_2  and  C_3
REMARK    3  A    between atoms: C_5  and  C_6
REMARK    4  A    between atoms: C_6  and  O_7
REMARK    5  A    between atoms: O_7  and  C_8
REMARK    6  A    between atoms: C_18  and  C_19
REMARK    7  A    between atoms: C_23  and  C_24
REMARK                            x       y       z     vdW  Elec       q    Type
REMARK                         _______ _______ _______ _____ _____    ______ ____
ROOT
ATOM      1  C   UNL     1      45.651   5.961  12.847  0.00  0.00    +0.000 A 
ATOM      2  C   UNL     1      44.639   5.228  12.201  0.00  0.00    +0.000 A 
ATOM      3  C   UNL     1      44.684   3.833  12.132  0.00  0.00    +0.000 A 
ATOM      4  C   UNL     1      45.708   3.169  12.801  0.00  0.00    +0.000 A 
ATOM      5  C   UNL     1      46.691   3.895  13.481  0.00  0.00    +0.000 A 
ATOM      6  F   UNL     1      47.631   3.176  14.116  0.00  0.00    +0.000 F 
ATOM      7  C   UNL     1      46.720   5.306  13.512  0.00  0.00    +0.000 A 
ENDROOT
BRANCH   7   8
ATOM      8  C   UNL     1      47.857   6.038  14.157  0.00  0.00    +0.000 A 
ATOM      9  C   UNL     1      48.734   6.846  13.405  0.00  0.00    +0.000 A 
ATOM     10  C   UNL     1      49.756   7.594  14.003  0.00  0.00    +0.000 A 
ATOM     11  C   UNL     1      49.901   7.596  15.385  0.00  0.00    +0.000 A 
ATOM     12  C   UNL     1      49.050   6.817  16.175  0.00  0.00    +0.000 A 
ATOM     13  C   UNL     1      48.080   6.012  15.545  0.00  0.00    +0.000 A 
BRANCH  12  14
ATOM     14  C   UNL     1      49.110   6.860  17.681  0.00  0.00    +0.000 C 
ATOM     15  F   UNL     1      50.132   7.620  18.165  0.00  0.00    +0.000 F 
ATOM     16  F   UNL     1      47.974   7.382  18.227  0.00  0.00    +0.000 F 
ATOM     17  F   UNL     1      49.261   5.629  18.241  0.00  0.00    +0.000 F 
ENDBRANCH  12  14
ENDBRANCH   7   8
BRANCH   1  19
ATOM     18  C   UNL     1      45.099   7.992  11.734  0.00  0.00    +0.000 C 
ATOM     19  O   UNL     1      45.577   7.333  12.900  0.00  0.00    +0.000 OA
ENDBRANCH   1  19
BRANCH   3  20
ATOM     20  C   UNL     1      43.622   3.079  11.375  0.00  0.00    +0.000 C 
BRANCH  20  21
ATOM     21  O   UNL     1      43.540   3.612  10.058  0.00  0.00    +0.000 OA
BRANCH  21  22
ATOM     22  C   UNL     1      44.561   3.297   9.208  0.00  0.00    +0.000 A 
ATOM     23  C   UNL     1      45.160   4.366   8.548  0.00  0.00    +0.000 A 
ATOM     24  N   UNL     1      46.179   4.246   7.662  0.00  0.00    +0.000 NA
ATOM     25  C   UNL     1      46.626   2.995   7.426  0.00  0.00    +0.000 A 
ATOM     26  C   UNL     1      46.100   1.866   8.038  0.00  0.00    +0.000 A 
ATOM     27 BR   UNL     1      46.784   0.152   7.650  0.00  0.00    +0.000 Br
ATOM     28  C   UNL     1      45.053   2.019   8.944  0.00  0.00    +0.000 A 
ENDBRANCH  21  22
ENDBRANCH  20  21
ENDBRANCH   3  20
TORSDOF 6
ENDMDL
MODEL 2
REMARK VINA RESULT:    -7.099      2.018      2.636
REMARK INTER + INTRA:         -10.730
REMARK INTER:                  -9.714
REMARK INTRA:                  -1.016
REMARK UNBOUND:                -1.141
REMARK  Name = 
REMARK  7 active torsions:
REMARK  status: ('A' for Active; 'I' for Inactive)
REMARK    1  A    between atoms: C_1  and  O_2
REMARK    2  A    between atoms: O_2  and  C_3
REMARK    3  A    between atoms: C_5  and  C_6
REMARK    4  A    between atoms: C_6  and  O_7
REMARK    5  A    between atoms: O_7  and  C_8
REMARK    6  A    between atoms: C_18  and  C_19
REMARK    7  A    between atoms: C_23  and  C_24
REMARK                            x       y       z     vdW  Elec       q    Type
REMARK                         _______ _______ _______ _____ _____    ______ ____
ROOT
ATOM      1  C   UNL     1      45.676   6.109  12.572  0.00  0.00    +0.000 A 
ATOM      2  C   UNL     1      44.655   5.325  12.004  0.00  0.00    +0.000 A 
ATOM      3  C   UNL     1      44.696   3.930  12.057  0.00  0.00    +0.000 A 
ATOM      4  C   UNL     1      45.727   3.323  12.768  0.00  0.00    +0.000 A 
ATOM      5  C   UNL     1      46.719   4.102  13.371  0.00  0.00    +0.000 A 
ATOM      6  F   UNL     1      47.665   3.439  14.055  0.00  0.00    +0.000 F 
ATOM      7  C   UNL     1      46.752   5.511  13.279  0.00  0.00    +0.000 A 
ENDROOT
BRANCH   7   8
ATOM      8  C   UNL     1      47.898   6.293  13.844  0.00  0.00    +0.000 A 
ATOM      9  C   UNL     1      48.203   6.262  15.220  0.00  0.00    +0.000 A 
ATOM     10  C   UNL     1      49.315   6.927  15.752  0.00  0.00    +0.000 A 
ATOM     11  C   UNL     1      50.189   7.607  14.912  0.00  0.00    +0.000 A 
ATOM     12  C   UNL     1      49.933   7.659  13.538  0.00  0.00    +0.000 A 
ATOM     13  C   UNL     1      48.766   7.047  13.036  0.00  0.00    +0.000 A 
BRANCH  12  14
ATOM     14  C   UNL     1      50.900   8.304  12.578  0.00  0.00    +0.000 C 
ATOM     15  F   UNL     1      50.658   9.628  12.366  0.00  0.00    +0.000 F 
ATOM     16  F   UNL     1      52.189   8.233  13.019  0.00  0.00    +0.000 F 
ATOM     17  F   UNL     1      50.894   7.721  11.349  0.00  0.00    +0.000 F 
ENDBRANCH  12  14
ENDBRANCH   7   8
BRANCH   1  19
ATOM     18  C   UNL     1      44.749   8.029  11.512  0.00  0.00    +0.000 C 
ATOM     19  O   UNL     1      45.605   7.480  12.507  0.00  0.00    +0.000 OA
ENDBRANCH   1  19
BRANCH   3  20
ATOM     20  C   UNL     1      43.624   3.116  11.381  0.00  0.00    +0.000 C 
BRANCH  20  21
ATOM     21  O   UNL     1      43.483   3.575  10.041  0.00  0.00    +0.000 OA
BRANCH  21  22
ATOM     22  C   UNL     1      44.509   3.287   9.188  0.00  0.00    +0.000 A 
ATOM     23  C   UNL     1      45.072   4.372   8.520  0.00  0.00    +0.000 A 
ATOM     24  N   UNL     1      46.091   4.280   7.630  0.00  0.00    +0.000 NA
ATOM     25  C   UNL     1      46.575   3.042   7.397  0.00  0.00    +0.000 A 
ATOM     26  C   UNL     1      46.086   1.900   8.016  0.00  0.00    +0.000 A 
ATOM     27 BR   UNL     1      46.820   0.206   7.631  0.00  0.00    +0.000 Br
ATOM     28  C   UNL     1      45.039   2.024   8.927  0.00  0.00    +0.000 A 
ENDBRANCH  21  22
ENDBRANCH  20  21
ENDBRANCH   3  20
TORSDOF 6
ENDMDL
MODEL 3
REMARK VINA RESULT:    -6.681      2.091      2.803
REMARK INTER + INTRA:         -10.165
REMARK INTER:                  -8.843
REMARK INTRA:                  -1.321
REMARK UNBOUND:                -1.141
REMARK  Name = 
REMARK  7 active torsions:
REMARK  status: ('A' for Active; 'I' for Inactive)
REMARK    1  A    between atoms: C_1  and  O_2
REMARK    2  A    between atoms: O_2  and  C_3
REMARK    3  A    between atoms: C_5  and  C_6
REMARK    4  A    between atoms: C_6  and  O_7
REMARK    5  A    between atoms: O_7  and  C_8
REMARK    6  A    between atoms: C_18  and  C_19
REMARK    7  A    between atoms: C_23  and  C_24
REMARK                            x       y       z     vdW  Elec       q    Type
REMARK                         _______ _______ _______ _____ _____    ______ ____
ROOT
ATOM      1  C   UNL     1      46.825   5.286  13.363  0.00  0.00    +0.000 A 
ATOM      2  C   UNL     1      45.657   4.714  12.827  0.00  0.00    +0.000 A 
ATOM      3  C   UNL     1      44.784   5.458  12.029  0.00  0.00    +0.000 A 
ATOM      4  C   UNL     1      45.140   6.760  11.693  0.00  0.00    +0.000 A 
ATOM      5  C   UNL     1      46.323   7.316  12.189  0.00  0.00    +0.000 A 
ATOM      6  F   UNL     1      46.602   8.571  11.800  0.00  0.00    +0.000 F 
ATOM      7  C   UNL     1      47.194   6.622  13.057  0.00  0.00    +0.000 A 
ENDROOT
BRANCH   7   8
ATOM      8  C   UNL     1      48.389   7.300  13.653  0.00  0.00    +0.000 A 
ATOM      9  C   UNL     1      49.561   7.523  12.901  0.00  0.00    +0.000 A 
ATOM     10  C   UNL     1      50.658   8.222  13.421  0.00  0.00    +0.000 A 
ATOM     11  C   UNL     1      50.598   8.764  14.699  0.00  0.00    +0.000 A 
ATOM     12  C   UNL     1      49.454   8.577  15.480  0.00  0.00    +0.000 A 
ATOM     13  C   UNL     1      48.393   7.805  14.965  0.00  0.00    +0.000 A 
BRANCH  12  14
ATOM     14  C   UNL     1      49.306   9.225  16.833  0.00  0.00    +0.000 C 
ATOM     15  F   UNL     1      48.196  10.008  16.945  0.00  0.00    +0.000 F 
ATOM     16  F   UNL     1      49.208   8.307  17.837  0.00  0.00    +0.000 F 
ATOM     17  F   UNL     1      50.360  10.022  17.158  0.00  0.00    +0.000 F 
ENDBRANCH  12  14
ENDBRANCH   7   8
BRANCH   1  19
ATOM     18  C   UNL     1      47.219   4.230  15.461  0.00  0.00    +0.000 C 
ATOM     19  O   UNL     1      47.665   4.527  14.143  0.00  0.00    +0.000 OA
ENDBRANCH   1  19
BRANCH   3  20
ATOM     20  C   UNL     1      43.507   4.838  11.525  0.00  0.00    +0.000 C 
BRANCH  20  21
ATOM     21  O   UNL     1      43.500   4.904  10.103  0.00  0.00    +0.000 OA
BRANCH  21  22
ATOM     22  C   UNL     1      44.252   3.972   9.447  0.00  0.00    +0.000 A 
ATOM     23  C   UNL     1      44.168   2.669   9.930  0.00  0.00    +0.000 A 
ATOM     24  N   UNL     1      44.848   1.614   9.415  0.00  0.00    +0.000 NA
ATOM     25  C   UNL     1      45.649   1.874   8.360  0.00  0.00    +0.000 A 
ATOM     26  C   UNL     1      45.796   3.136   7.803  0.00  0.00    +0.000 A 
ATOM     27 BR   UNL     1      46.940   3.412   6.330  0.00  0.00    +0.000 Br
ATOM     28  C   UNL     1      45.085   4.201   8.353  0.00  0.00    +0.000 A 
ENDBRANCH  21  22
ENDBRANCH  20  21
ENDBRANCH   3  20
TORSDOF 6
ENDMDL
MODEL 4
REMARK VINA RESULT:    -6.618      4.286      7.848
REMARK INTER + INTRA:         -10.079
REMARK INTER:                  -8.692
REMARK INTRA:                  -1.387
REMARK UNBOUND:                -1.141
REMARK  Name = 
REMARK  7 active torsions:
REMARK  status: ('A' for Active; 'I' for Inactive)
REMARK    1  A    between atoms: C_1  and  O_2
REMARK    2  A    between atoms: O_2  and  C_3
REMARK    3  A    between atoms: C_5  and  C_6
REMARK    4  A    between atoms: C_6  and  O_7
REMARK    5  A    between atoms: O_7  and  C_8
REMARK    6  A    between atoms: C_18  and  C_19
REMARK    7  A    between atoms: C_23  and  C_24
REMARK                            x       y       z     vdW  Elec       q    Type
REMARK                         _______ _______ _______ _____ _____    ______ ____
ROOT
ATOM      1  C   UNL     1      47.216   5.927  13.582  0.00  0.00    +0.000 A 
ATOM      2  C   UNL     1      47.972   7.034  14.008  0.00  0.00    +0.000 A 
ATOM      3  C   UNL     1      47.644   8.334  13.614  0.00  0.00    +0.000 A 
ATOM      4  C   UNL     1      46.490   8.526  12.860  0.00  0.00    +0.000 A 
ATOM      5  C   UNL     1      45.712   7.431  12.473  0.00  0.00    +0.000 A 
ATOM      6  F   UNL     1      44.605   7.707  11.764  0.00  0.00    +0.000 F 
ATOM      7  C   UNL     1      46.050   6.098  12.790  0.00  0.00    +0.000 A 
ENDROOT
BRANCH   7   8
ATOM      8  C   UNL     1      45.247   4.952  12.254  0.00  0.00    +0.000 A 
ATOM      9  C   UNL     1      44.220   4.354  13.012  0.00  0.00    +0.000 A 
ATOM     10  C   UNL     1      43.412   3.333  12.497  0.00  0.00    +0.000 A 
ATOM     11  C   UNL     1      43.576   2.908  11.184  0.00  0.00    +0.000 A 
ATOM     12  C   UNL     1      44.576   3.476  10.390  0.00  0.00    +0.000 A 
ATOM     13  C   UNL     1      45.428   4.448  10.954  0.00  0.00    +0.000 A 
BRANCH  12  14
ATOM     14  C   UNL     1      44.731   3.115   8.934  0.00  0.00    +0.000 C 
ATOM     15  F   UNL     1      46.022   2.889   8.562  0.00  0.00    +0.000 F 
ATOM     16  F   UNL     1      44.051   1.978   8.610  0.00  0.00    +0.000 F 
ATOM     17  F   UNL     1      44.264   4.080   8.097  0.00  0.00    +0.000 F 
ENDBRANCH  12  14
ENDBRANCH   7   8
BRANCH   1  19
ATOM     18  C   UNL     1      47.282   4.328  15.345  0.00  0.00    +0.000 C 
ATOM     19  O   UNL     1      47.562   4.661  13.990  0.00  0.00    +0.000 OA
ENDBRANCH   1  19
BRANCH   3  20
ATOM     20  C   UNL     1      48.512   9.492  14.030  0.00  0.00    +0.000 C 
BRANCH  20  21
ATOM     21  O   UNL     1      49.180   9.995  12.879  0.00  0.00    +0.000 OA
BRANCH  21  22
ATOM     22  C   UNL     1      50.377   9.416  12.567  0.00  0.00    +0.000 A 
ATOM     23  C   UNL     1      51.395   9.574  13.503  0.00  0.00    +0.000 A 
ATOM     24  N   UNL     1      52.650   9.079  13.362  0.00  0.00    +0.000 NA
ATOM     25  C   UNL     1      52.899   8.387  12.230  0.00  0.00    +0.000 A 
ATOM     26  C   UNL     1      51.950   8.170  11.242  0.00  0.00    +0.000 A 
ATOM     27 BR   UNL     1      52.383   7.192   9.689  0.00  0.00    +0.000 Br
ATOM     28  C   UNL     1      50.669   8.690  11.413  0.00  0.00    +0.000 A 
ENDBRANCH  21  22
ENDBRANCH  20  21
ENDBRANCH   3  20
TORSDOF 6
ENDMDL
MODEL 5
REMARK VINA RESULT:    -6.605      3.022      3.910
REMARK INTER + INTRA:         -10.062
REMARK INTER:                  -8.740
REMARK INTRA:                  -1.322
REMARK UNBOUND:                -1.141
REMARK  Name = 
REMARK  7 active torsions:
REMARK  status: ('A' for Active; 'I' for Inactive)
REMARK    1  A    between atoms: C_1  and  O_2
REMARK    2  A    between atoms: O_2  and  C_3
REMARK    3  A    between atoms: C_5  and  C_6
REMARK    4  A    between atoms: C_6  and  O_7
REMARK    5  A    between atoms: O_7  and  C_8
REMARK    6  A    between atoms: C_18  and  C_19
REMARK    7  A    between atoms: C_23  and  C_24
REMARK                            x       y       z     vdW  Elec       q    Type
REMARK                         _______ _______ _______ _____ _____    ______ ____
ROOT
ATOM      1  C   UNL     1      46.745   5.804  13.231  0.00  0.00    +0.000 A 
ATOM      2  C   UNL     1      45.567   5.173  12.791  0.00  0.00    +0.000 A 
ATOM      3  C   UNL     1      44.585   5.876  12.088  0.00  0.00    +0.000 A 
ATOM      4  C   UNL     1      44.836   7.202  11.746  0.00  0.00    +0.000 A 
ATOM      5  C   UNL     1      46.026   7.818  12.145  0.00  0.00    +0.000 A 
ATOM      6  F   UNL     1      46.197   9.092  11.756  0.00  0.00    +0.000 F 
ATOM      7  C   UNL     1      47.009   7.163  12.917  0.00  0.00    +0.000 A 
ENDROOT
BRANCH   7   8
ATOM      8  C   UNL     1      48.214   7.902  13.416  0.00  0.00    +0.000 A 
ATOM      9  C   UNL     1      48.266   8.428  14.723  0.00  0.00    +0.000 A 
ATOM     10  C   UNL     1      49.411   9.055  15.229  0.00  0.00    +0.000 A 
ATOM     11  C   UNL     1      50.563   9.132  14.455  0.00  0.00    +0.000 A 
ATOM     12  C   UNL     1      50.564   8.617  13.156  0.00  0.00    +0.000 A 
ATOM     13  C   UNL     1      49.375   8.060  12.641  0.00  0.00    +0.000 A 
BRANCH  12  14
ATOM     14  C   UNL     1      51.815   8.594  12.314  0.00  0.00    +0.000 C 
ATOM     15  F   UNL     1      52.933   8.240  13.009  0.00  0.00    +0.000 F 
ATOM     16  F   UNL     1      51.727   7.705  11.284  0.00  0.00    +0.000 F 
ATOM     17  F   UNL     1      52.093   9.798  11.746  0.00  0.00    +0.000 F 
ENDBRANCH  12  14
ENDBRANCH   7   8
BRANCH   1  19
ATOM     18  C   UNL     1      47.325   4.609  15.207  0.00  0.00    +0.000 C 
ATOM     19  O   UNL     1      47.694   5.085  13.917  0.00  0.00    +0.000 OA
ENDBRANCH   1  19
BRANCH   3  20
ATOM     20  C   UNL     1      43.305   5.191  11.690  0.00  0.00    +0.000 C 
BRANCH  20  21
ATOM     21  O   UNL     1      43.252   5.116  10.269  0.00  0.00    +0.000 OA
BRANCH  21  22
ATOM     22  C   UNL     1      44.017   4.149   9.682  0.00  0.00    +0.000 A 
ATOM     23  C   UNL     1      43.952   2.885  10.260  0.00  0.00    +0.000 A 
ATOM     24  N   UNL     1      44.647   1.805   9.822  0.00  0.00    +0.000 NA
ATOM     25  C   UNL     1      45.444   1.998   8.750  0.00  0.00    +0.000 A 
ATOM     26  C   UNL     1      45.572   3.217   8.101  0.00  0.00    +0.000 A 
ATOM     27 BR   UNL     1      46.711   3.401   6.609  0.00  0.00    +0.000 Br
ATOM     28  C   UNL     1      44.846   4.310   8.573  0.00  0.00    +0.000 A 
ENDBRANCH  21  22
ENDBRANCH  20  21
ENDBRANCH   3  20
TORSDOF 6
ENDMDL
MODEL 6
REMARK VINA RESULT:    -6.509      5.127      9.050
REMARK INTER + INTRA:          -9.933
REMARK INTER:                  -8.678
REMARK INTRA:                  -1.255
REMARK UNBOUND:                -1.141
REMARK  Name = 
REMARK  7 active torsions:
REMARK  status: ('A' for Active; 'I' for Inactive)
REMARK    1  A    between atoms: C_1  and  O_2
REMARK    2  A    between atoms: O_2  and  C_3
REMARK    3  A    between atoms: C_5  and  C_6
REMARK    4  A    between atoms: C_6  and  O_7
REMARK    5  A    between atoms: O_7  and  C_8
REMARK    6  A    between atoms: C_18  and  C_19
REMARK    7  A    between atoms: C_23  and  C_24
REMARK                            x       y       z     vdW  Elec       q    Type
REMARK                         _______ _______ _______ _____ _____    ______ ____
ROOT
ATOM      1  C   UNL     1      47.256   5.984  13.589  0.00  0.00    +0.000 A 
ATOM      2  C   UNL     1      48.030   7.076  14.020  0.00  0.00    +0.000 A 
ATOM      3  C   UNL     1      47.713   8.384  13.645  0.00  0.00    +0.000 A 
ATOM      4  C   UNL     1      46.554   8.599  12.906  0.00  0.00    +0.000 A 
ATOM      5  C   UNL     1      45.759   7.518  12.513  0.00  0.00    +0.000 A 
ATOM      6  F   UNL     1      44.647   7.816  11.820  0.00  0.00    +0.000 F 
ATOM      7  C   UNL     1      46.084   6.177  12.811  0.00  0.00    +0.000 A 
ENDROOT
BRANCH   7   8
ATOM      8  C   UNL     1      45.262   5.048  12.270  0.00  0.00    +0.000 A 
ATOM      9  C   UNL     1      44.242   4.446  13.035  0.00  0.00    +0.000 A 
ATOM     10  C   UNL     1      43.416   3.441  12.518  0.00  0.00    +0.000 A 
ATOM     11  C   UNL     1      43.555   3.037  11.195  0.00  0.00    +0.000 A 
ATOM     12  C   UNL     1      44.547   3.609  10.394  0.00  0.00    +0.000 A 
ATOM     13  C   UNL     1      45.416   4.564  10.959  0.00  0.00    +0.000 A 
BRANCH  12  14
ATOM     14  C   UNL     1      44.673   3.271   8.930  0.00  0.00    +0.000 C 
ATOM     15  F   UNL     1      44.178   2.043   8.609  0.00  0.00    +0.000 F 
ATOM     16  F   UNL     1      44.002   4.155   8.137  0.00  0.00    +0.000 F 
ATOM     17  F   UNL     1      45.961   3.282   8.493  0.00  0.00    +0.000 F 
ENDBRANCH  12  14
ENDBRANCH   7   8
BRANCH   1  19
ATOM     18  C   UNL     1      47.285   4.350  15.321  0.00  0.00    +0.000 C 
ATOM     19  O   UNL     1      47.591   4.709  13.978  0.00  0.00    +0.000 OA
ENDBRANCH   1  19
BRANCH   3  20
ATOM     20  C   UNL     1      48.600   9.527  14.066  0.00  0.00    +0.000 C 
BRANCH  20  21
ATOM     21  O   UNL     1      49.128   9.240  15.357  0.00  0.00    +0.000 OA
BRANCH  21  22
ATOM     22  C   UNL     1      48.685  10.024  16.383  0.00  0.00    +0.000 A 
ATOM     23  C   UNL     1      48.929  11.389  16.259  0.00  0.00    +0.000 A 
ATOM     24  N   UNL     1      48.572  12.319  17.180  0.00  0.00    +0.000 NA
ATOM     25  C   UNL     1      47.936  11.862  18.279  0.00  0.00    +0.000 A 
ATOM     26  C   UNL     1      47.643  10.523  18.493  0.00  0.00    +0.000 A 
ATOM     27 BR   UNL     1      46.752   9.969  20.060  0.00  0.00    +0.000 Br
ATOM     28  C   UNL     1      48.021   9.589  17.529  0.00  0.00    +0.000 A 
ENDBRANCH  21  22
ENDBRANCH  20  21
ENDBRANCH   3  20
TORSDOF 6
ENDMDL
MODEL 7
REMARK VINA RESULT:    -6.445      4.637      8.080
REMARK INTER + INTRA:          -9.846
REMARK INTER:                  -8.607
REMARK INTRA:                  -1.239
REMARK UNBOUND:                -1.141
REMARK  Name = 
REMARK  7 active torsions:
REMARK  status: ('A' for Active; 'I' for Inactive)
REMARK    1  A    between atoms: C_1  and  O_2
REMARK    2  A    between atoms: O_2  and  C_3
REMARK    3  A    between atoms: C_5  and  C_6
REMARK    4  A    between atoms: C_6  and  O_7
REMARK    5  A    between atoms: O_7  and  C_8
REMARK    6  A    between atoms: C_18  and  C_19
REMARK    7  A    between atoms: C_23  and  C_24
REMARK                            x       y       z     vdW  Elec       q    Type
REMARK                         _______ _______ _______ _____ _____    ______ ____
ROOT
ATOM      1  C   UNL     1      47.071   6.159  13.192  0.00  0.00    +0.000 A 
ATOM      2  C   UNL     1      47.759   7.354  13.468  0.00  0.00    +0.000 A 
ATOM      3  C   UNL     1      47.304   8.583  12.983  0.00  0.00    +0.000 A 
ATOM      4  C   UNL     1      46.096   8.617  12.293  0.00  0.00    +0.000 A 
ATOM      5  C   UNL     1      45.388   7.435  12.055  0.00  0.00    +0.000 A 
ATOM      6  F   UNL     1      44.222   7.560  11.400  0.00  0.00    +0.000 F 
ATOM      7  C   UNL     1      45.850   6.167  12.466  0.00  0.00    +0.000 A 
ENDROOT
BRANCH   7   8
ATOM      8  C   UNL     1      45.113   4.919  12.087  0.00  0.00    +0.000 A 
ATOM      9  C   UNL     1      44.074   4.404  12.890  0.00  0.00    +0.000 A 
ATOM     10  C   UNL     1      43.326   3.282  12.512  0.00  0.00    +0.000 A 
ATOM     11  C   UNL     1      43.564   2.665  11.289  0.00  0.00    +0.000 A 
ATOM     12  C   UNL     1      44.578   3.144  10.454  0.00  0.00    +0.000 A 
ATOM     13  C   UNL     1      45.368   4.227  10.890  0.00  0.00    +0.000 A 
BRANCH  12  14
ATOM     14  C   UNL     1      44.809   2.567   9.081  0.00  0.00    +0.000 C 
ATOM     15  F   UNL     1      44.280   3.322   8.076  0.00  0.00    +0.000 F 
ATOM     16  F   UNL     1      46.135   2.447   8.789  0.00  0.00    +0.000 F 
ATOM     17  F   UNL     1      44.279   1.323   8.932  0.00  0.00    +0.000 F 
ENDBRANCH  12  14
ENDBRANCH   7   8
BRANCH   1  19
ATOM     18  C   UNL     1      47.223   4.666  15.041  0.00  0.00    +0.000 C 
ATOM     19  O   UNL     1      47.541   4.966  13.687  0.00  0.00    +0.000 OA
ENDBRANCH   1  19
BRANCH   3  20
ATOM     20  C   UNL     1      48.099   9.837  13.238  0.00  0.00    +0.000 C 
BRANCH  20  21
ATOM     21  O   UNL     1      49.340   9.735  12.550  0.00  0.00    +0.000 OA
BRANCH  21  22
ATOM     22  C   UNL     1      49.497  10.536  11.455  0.00  0.00    +0.000 A 
ATOM     23  C   UNL     1      50.806  10.741  11.029  0.00  0.00    +0.000 A 
ATOM     24  N   UNL     1      51.156  11.511   9.969  0.00  0.00    +0.000 NA
ATOM     25  C   UNL     1      50.147  12.104   9.298  0.00  0.00    +0.000 A 
ATOM     26  C   UNL     1      48.810  11.958   9.641  0.00  0.00    +0.000 A 
ATOM     27 BR   UNL     1      47.461  12.825   8.649  0.00  0.00    +0.000 Br
ATOM     28  C   UNL     1      48.479  11.160  10.734  0.00  0.00    +0.000 A 
ENDBRANCH  21  22
ENDBRANCH  20  21
ENDBRANCH   3  20
TORSDOF 6
ENDMDL
MODEL 8
REMARK VINA RESULT:    -6.292      2.471      3.824
REMARK INTER + INTRA:          -9.640
REMARK INTER:                  -8.525
REMARK INTRA:                  -1.115
REMARK UNBOUND:                -1.141
REMARK  Name = 
REMARK  7 active torsions:
REMARK  status: ('A' for Active; 'I' for Inactive)
REMARK    1  A    between atoms: C_1  and  O_2
REMARK    2  A    between atoms: O_2  and  C_3
REMARK    3  A    between atoms: C_5  and  C_6
REMARK    4  A    between atoms: C_6  and  O_7
REMARK    5  A    between atoms: O_7  and  C_8
REMARK    6  A    between atoms: C_18  and  C_19
REMARK    7  A    between atoms: C_23  and  C_24
REMARK                            x       y       z     vdW  Elec       q    Type
REMARK                         _______ _______ _______ _____ _____    ______ ____
ROOT
ATOM      1  C   UNL     1      48.392   6.995  14.915  0.00  0.00    +0.000 A 
ATOM      2  C   UNL     1      47.822   7.222  13.649  0.00  0.00    +0.000 A 
ATOM      3  C   UNL     1      47.052   6.245  13.013  0.00  0.00    +0.000 A 
ATOM      4  C   UNL     1      46.779   5.065  13.700  0.00  0.00    +0.000 A 
ATOM      5  C   UNL     1      47.308   4.856  14.977  0.00  0.00    +0.000 A 
ATOM      6  F   UNL     1      46.979   3.700  15.577  0.00  0.00    +0.000 F 
ATOM      7  C   UNL     1      48.149   5.788  15.622  0.00  0.00    +0.000 A 
ENDROOT
BRANCH   7   8
ATOM      8  C   UNL     1      48.784   5.468  16.941  0.00  0.00    +0.000 A 
ATOM      9  C   UNL     1      48.097   5.664  18.156  0.00  0.00    +0.000 A 
ATOM     10  C   UNL     1      48.649   5.300  19.391  0.00  0.00    +0.000 A 
ATOM     11  C   UNL     1      49.892   4.680  19.444  0.00  0.00    +0.000 A 
ATOM     12  C   UNL     1      50.608   4.457  18.265  0.00  0.00    +0.000 A 
ATOM     13  C   UNL     1      50.067   4.901  17.042  0.00  0.00    +0.000 A 
BRANCH  12  14
ATOM     14  C   UNL     1      51.915   3.705  18.264  0.00  0.00    +0.000 C 
ATOM     15  F   UNL     1      51.803   2.418  17.830  0.00  0.00    +0.000 F 
ATOM     16  F   UNL     1      52.844   4.286  17.452  0.00  0.00    +0.000 F 
ATOM     17  F   UNL     1      52.487   3.636  19.496  0.00  0.00    +0.000 F 
ENDBRANCH  12  14
ENDBRANCH   7   8
BRANCH   1  19
ATOM     18  C   UNL     1      48.522   9.249  15.671  0.00  0.00    +0.000 C 
ATOM     19  O   UNL     1      49.141   7.978  15.517  0.00  0.00    +0.000 OA
ENDBRANCH   1  19
BRANCH   3  20
ATOM     20  C   UNL     1      46.511   6.491  11.629  0.00  0.00    +0.000 C 
BRANCH  20  21
ATOM     21  O   UNL     1      45.199   5.944  11.550  0.00  0.00    +0.000 OA
BRANCH  21  22
ATOM     22  C   UNL     1      45.025   4.905  10.681  0.00  0.00    +0.000 A 
ATOM     23  C   UNL     1      44.153   3.902  11.095  0.00  0.00    +0.000 A 
ATOM     24  N   UNL     1      43.863   2.791  10.373  0.00  0.00    +0.000 NA
ATOM     25  C   UNL     1      44.473   2.679   9.174  0.00  0.00    +0.000 A 
ATOM     26  C   UNL     1      45.352   3.626   8.671  0.00  0.00    +0.000 A 
ATOM     27 BR   UNL     1      46.163   3.389   6.985  0.00  0.00    +0.000 Br
ATOM     28  C   UNL     1      45.632   4.758   9.435  0.00  0.00    +0.000 A 
ENDBRANCH  21  22
ENDBRANCH  20  21
ENDBRANCH   3  20
TORSDOF 6
ENDMDL
MODEL 9
REMARK VINA RESULT:    -6.267      4.890      8.887
REMARK INTER + INTRA:          -9.606
REMARK INTER:                  -8.351
REMARK INTRA:                  -1.254
REMARK UNBOUND:                -1.141
REMARK  Name = 
REMARK  7 active torsions:
REMARK  status: ('A' for Active; 'I' for Inactive)
REMARK    1  A    between atoms: C_1  and  O_2
REMARK    2  A    between atoms: O_2  and  C_3
REMARK    3  A    between atoms: C_5  and  C_6
REMARK    4  A    between atoms: C_6  and  O_7
REMARK    5  A    between atoms: O_7  and  C_8
REMARK    6  A    between atoms: C_18  and  C_19
REMARK    7  A    between atoms: C_23  and  C_24
REMARK                            x       y       z     vdW  Elec       q    Type
REMARK                         _______ _______ _______ _____ _____    ______ ____
ROOT
ATOM      1  C   UNL     1      46.131   8.008  12.797  0.00  0.00    +0.000 A 
ATOM      2  C   UNL     1      47.084   8.843  13.407  0.00  0.00    +0.000 A 
ATOM      3  C   UNL     1      48.113   8.318  14.193  0.00  0.00    +0.000 A 
ATOM      4  C   UNL     1      48.235   6.935  14.288  0.00  0.00    +0.000 A 
ATOM      5  C   UNL     1      47.313   6.102  13.646  0.00  0.00    +0.000 A 
ATOM      6  F   UNL     1      47.515   4.780  13.772  0.00  0.00    +0.000 F 
ATOM      7  C   UNL     1      46.219   6.595  12.903  0.00  0.00    +0.000 A 
ENDROOT
BRANCH   7   8
ATOM      8  C   UNL     1      45.195   5.664  12.331  0.00  0.00    +0.000 A 
ATOM      9  C   UNL     1      43.952   5.458  12.962  0.00  0.00    +0.000 A 
ATOM     10  C   UNL     1      42.956   4.649  12.402  0.00  0.00    +0.000 A 
ATOM     11  C   UNL     1      43.155   4.056  11.161  0.00  0.00    +0.000 A 
ATOM     12  C   UNL     1      44.369   4.237  10.491  0.00  0.00    +0.000 A 
ATOM     13  C   UNL     1      45.385   4.992  11.110  0.00  0.00    +0.000 A 
BRANCH  12  14
ATOM     14  C   UNL     1      44.595   3.692   9.104  0.00  0.00    +0.000 C 
ATOM     15  F   UNL     1      44.201   2.396   8.956  0.00  0.00    +0.000 F 
ATOM     16  F   UNL     1      43.910   4.394   8.156  0.00  0.00    +0.000 F 
ATOM     17  F   UNL     1      45.901   3.732   8.725  0.00  0.00    +0.000 F 
ENDBRANCH  12  14
ENDBRANCH   7   8
BRANCH   1  19
ATOM     18  C   UNL     1      45.057   9.975  11.994  0.00  0.00    +0.000 C 
ATOM     19  O   UNL     1      45.132   8.555  12.027  0.00  0.00    +0.000 OA
ENDBRANCH   1  19
BRANCH   3  20
ATOM     20  C   UNL     1      49.079   9.241  14.889  0.00  0.00    +0.000 C 
BRANCH  20  21
ATOM     21  O   UNL     1      49.428   8.670  16.146  0.00  0.00    +0.000 OA
BRANCH  21  22
ATOM     22  C   UNL     1      48.684   9.064  17.221  0.00  0.00    +0.000 A 
ATOM     23  C   UNL     1      48.313   8.059  18.109  0.00  0.00    +0.000 A 
ATOM     24  N   UNL     1      47.567   8.258  19.225  0.00  0.00    +0.000 NA
ATOM     25  C   UNL     1      47.177   9.527  19.467  0.00  0.00    +0.000 A 
ATOM     26  C   UNL     1      47.500  10.597  18.646  0.00  0.00    +0.000 A 
ATOM     27 BR   UNL     1      46.911  12.341  19.058  0.00  0.00    +0.000 Br
ATOM     28  C   UNL     1      48.267  10.364  17.507  0.00  0.00    +0.000 A 
ENDBRANCH  21  22
ENDBRANCH  20  21
ENDBRANCH   3  20
TORSDOF 6
ENDMDL
