MODEL 1
REMARK VINA RESULT:    -7.218      0.000      0.000
REMARK INTER + INTRA:          -9.697
REMARK INTER:                  -8.906
REMARK INTRA:                  -0.791
REMARK UNBOUND:                -0.791
REMARK  Name = 
REMARK  4 active torsions:
REMARK  status: ('A' for Active; 'I' for Inactive)
REMARK    1  A    between atoms: C_2  and  C_5
REMARK    2  A    between atoms: N_11  and  C_12
REMARK    3  A    between atoms: C_12  and  C_13
REMARK    4  A    between atoms: C_17  and  C_18
REMARK                            x       y       z     vdW  Elec       q    Type
REMARK                         _______ _______ _______ _____ _____    ______ ____
ROOT
ATOM      1  C   UNL     1      48.419   5.246  19.049  0.00  0.00    +0.000 A 
ATOM      2  N   UNL     1      48.677   3.986  18.599  0.00  0.00    +0.000 NA
ATOM      3  C   UNL     1      48.881   3.861  17.286  0.00  0.00    +0.000 A 
ATOM      4 CL   UNL     1      49.194   2.288  16.711  0.00  0.00    +0.000 Cl
ATOM      5  N   UNL     1      48.853   4.839  16.374  0.00  0.00    +0.000 NA
ATOM      6  C   UNL     1      48.584   6.077  16.826  0.00  0.00    +0.000 A 
ATOM      7  N   UNL     1      48.604   7.150  15.920  0.00  0.00    +0.000 N 
ATOM      8  C   UNL     1      48.357   6.330  18.187  0.00  0.00    +0.000 A 
ATOM      9 CL   UNL     1      48.020   7.935  18.735  0.00  0.00    +0.000 Cl
ATOM     10  H   UNL     1      47.802   7.760  16.056  0.00  0.00    +0.000 HD
ENDROOT
BRANCH   1  12
ATOM     11  F   UNL     1      49.044   6.363  21.092  0.00  0.00    +0.000 F 
ATOM     12  C   UNL     1      48.205   5.441  20.536  0.00  0.00    +0.000 C 
ATOM     13  F   UNL     1      48.401   4.299  21.256  0.00  0.00    +0.000 F 
ATOM     14  F   UNL     1      46.947   5.872  20.841  0.00  0.00    +0.000 F 
ENDBRANCH   1  12
BRANCH   7  15
ATOM     15  C   UNL     1      48.840   6.833  14.521  0.00  0.00    +0.000 C 
BRANCH  15  16
ATOM     16  C   UNL     1      47.552   7.038  13.754  0.00  0.00    +0.000 A 
ATOM     17  C   UNL     1      47.011   8.319  13.606  0.00  0.00    +0.000 A 
ATOM     18  C   UNL     1      45.826   8.502  12.898  0.00  0.00    +0.000 A 
ATOM     19  C   UNL     1      45.164   7.403  12.341  0.00  0.00    +0.000 A 
ATOM     20  C   UNL     1      45.652   6.095  12.494  0.00  0.00    +0.000 A 
ATOM     21  C   UNL     1      46.856   5.940  13.214  0.00  0.00    +0.000 A 
BRANCH  20  22
ATOM     22  C   UNL     1      44.930   4.925  11.935  0.00  0.00    +0.000 A 
ATOM     23  C   UNL     1      44.194   4.055  12.753  0.00  0.00    +0.000 A 
ATOM     24  C   UNL     1      43.512   2.990  12.183  0.00  0.00    +0.000 A 
ATOM     25  N   UNL     1      43.516   2.714  10.865  0.00  0.00    +0.000 NA
ATOM     26  C   UNL     1      44.235   3.542  10.084  0.00  0.00    +0.000 A 
ATOM     27  C   UNL     1      44.941   4.639  10.563  0.00  0.00    +0.000 A 
ENDBRANCH  20  22
ENDBRANCH  15  16
ENDBRANCH   7  15
TORSDOF 4
ENDMDL
MODEL 2
REMARK VINA RESULT:    -6.821      2.449      3.701
REMARK INTER + INTRA:          -9.207
REMARK INTER:                  -8.609
REMARK INTRA:                  -0.598
REMARK UNBOUND:                -0.791
REMARK  Name = 
REMARK  4 active torsions:
REMARK  status: ('A' for Active; 'I' for Inactive)
REMARK    1  A    between atoms: C_2  and  C_5
REMARK    2  A    between atoms: N_11  and  C_12
REMARK    3  A    between atoms: C_12  and  C_13
REMARK    4  A    between atoms: C_17  and  C_18
REMARK                            x       y       z     vdW  Elec       q    Type
REMARK                         _______ _______ _______ _____ _____    ______ ____
ROOT
ATOM      1  C   UNL     1      49.246   4.976  16.963  0.00  0.00    +0.000 A 
ATOM      2  N   UNL     1      50.109   5.955  16.570  0.00  0.00    +0.000 NA
ATOM      3  C   UNL     1      49.731   6.683  15.517  0.00  0.00    +0.000 A 
ATOM      4 CL   UNL     1      50.807   7.903  15.010  0.00  0.00    +0.000 Cl
ATOM      5  N   UNL     1      48.603   6.547  14.812  0.00  0.00    +0.000 NA
ATOM      6  C   UNL     1      47.764   5.570  15.199  0.00  0.00    +0.000 A 
ATOM      7  N   UNL     1      46.537   5.424  14.532  0.00  0.00    +0.000 N 
ATOM      8  C   UNL     1      48.054   4.743  16.295  0.00  0.00    +0.000 A 
ATOM      9 CL   UNL     1      46.950   3.499  16.770  0.00  0.00    +0.000 Cl
ATOM     10  H   UNL     1      46.347   4.447  14.322  0.00  0.00    +0.000 HD
ENDROOT
BRANCH   1  12
ATOM     11  F   UNL     1      50.739   4.580  18.814  0.00  0.00    +0.000 F 
ATOM     12  C   UNL     1      49.621   4.138  18.168  0.00  0.00    +0.000 C 
ATOM     13  F   UNL     1      49.881   2.837  17.853  0.00  0.00    +0.000 F 
ATOM     14  F   UNL     1      48.645   4.110  19.121  0.00  0.00    +0.000 F 
ENDBRANCH   1  12
BRANCH   7  15
ATOM     15  C   UNL     1      46.288   6.302  13.402  0.00  0.00    +0.000 C 
BRANCH  15  16
ATOM     16  C   UNL     1      45.325   5.615  12.457  0.00  0.00    +0.000 A 
ATOM     17  C   UNL     1      43.954   5.601  12.729  0.00  0.00    +0.000 A 
ATOM     18  C   UNL     1      43.074   4.967  11.856  0.00  0.00    +0.000 A 
ATOM     19  C   UNL     1      43.558   4.332  10.709  0.00  0.00    +0.000 A 
ATOM     20  C   UNL     1      44.931   4.292  10.413  0.00  0.00    +0.000 A 
ATOM     21  C   UNL     1      45.799   4.943  11.314  0.00  0.00    +0.000 A 
BRANCH  20  22
ATOM     22  C   UNL     1      45.448   3.586   9.215  0.00  0.00    +0.000 A 
ATOM     23  C   UNL     1      45.907   4.286   8.089  0.00  0.00    +0.000 A 
ATOM     24  C   UNL     1      46.409   3.585   7.002  0.00  0.00    +0.000 A 
ATOM     25  N   UNL     1      46.477   2.241   6.941  0.00  0.00    +0.000 NA
ATOM     26  C   UNL     1      46.023   1.571   8.017  0.00  0.00    +0.000 A 
ATOM     27  C   UNL     1      45.514   2.187   9.154  0.00  0.00    +0.000 A 
ENDBRANCH  20  22
ENDBRANCH  15  16
ENDBRANCH   7  15
TORSDOF 4
ENDMDL
MODEL 3
REMARK VINA RESULT:    -6.752      6.480      8.070
REMARK INTER + INTRA:          -9.122
REMARK INTER:                  -8.428
REMARK INTRA:                  -0.694
REMARK UNBOUND:                -0.791
REMARK  Name = 
REMARK  4 active torsions:
REMARK  status: ('A' for Active; 'I' for Inactive)
REMARK    1  A    between atoms: C_2  and  C_5
REMARK    2  A    between atoms: N_11  and  C_12
REMARK    3  A    between atoms: C_12  and  C_13
REMARK    4  A    between atoms: C_17  and  C_18
REMARK                            x       y       z     vdW  Elec       q    Type
REMARK                         _______ _______ _______ _____ _____    ______ ____
ROOT
ATOM      1  C   UNL     1      45.077   5.005  12.084  0.00  0.00    +0.000 A 
ATOM      2  N   UNL     1      46.384   5.329  12.291  0.00  0.00    +0.000 NA
ATOM      3  C   UNL     1      46.709   6.610  12.109  0.00  0.00    +0.000 A 
ATOM      4 CL   UNL     1      48.343   7.024  12.355  0.00  0.00    +0.000 Cl
ATOM      5  N   UNL     1      45.888   7.601  11.743  0.00  0.00    +0.000 NA
ATOM      6  C   UNL     1      44.602   7.269  11.527  0.00  0.00    +0.000 A 
ATOM      7  N   UNL     1      43.686   8.282  11.200  0.00  0.00    +0.000 N 
ATOM      8  C   UNL     1      44.144   5.953  11.691  0.00  0.00    +0.000 A 
ATOM      9 CL   UNL     1      42.483   5.563  11.412  0.00  0.00    +0.000 Cl
ATOM     10  H   UNL     1      43.084   7.998  10.431  0.00  0.00    +0.000 HD
ENDROOT
BRANCH   1  12
ATOM     11  F   UNL     1      45.663   2.766  12.755  0.00  0.00    +0.000 F 
ATOM     12  C   UNL     1      44.656   3.566  12.302  0.00  0.00    +0.000 C 
ATOM     13  F   UNL     1      44.205   2.965  11.163  0.00  0.00    +0.000 F 
ATOM     14  F   UNL     1      43.655   3.438  13.220  0.00  0.00    +0.000 F 
ENDBRANCH   1  12
BRANCH   7  15
ATOM     15  C   UNL     1      44.212   9.626  11.038  0.00  0.00    +0.000 C 
BRANCH  15  16
ATOM     16  C   UNL     1      43.154  10.485  10.380  0.00  0.00    +0.000 A 
ATOM     17  C   UNL     1      43.516  11.492   9.481  0.00  0.00    +0.000 A 
ATOM     18  C   UNL     1      42.538  12.278   8.878  0.00  0.00    +0.000 A 
ATOM     19  C   UNL     1      41.188  12.074   9.179  0.00  0.00    +0.000 A 
ATOM     20  C   UNL     1      40.780  11.097  10.103  0.00  0.00    +0.000 A 
ATOM     21  C   UNL     1      41.792  10.313  10.697  0.00  0.00    +0.000 A 
BRANCH  20  22
ATOM     22  C   UNL     1      39.350  10.904  10.450  0.00  0.00    +0.000 A 
ATOM     23  C   UNL     1      38.948   9.983  11.430  0.00  0.00    +0.000 A 
ATOM     24  C   UNL     1      37.603   9.856  11.742  0.00  0.00    +0.000 A 
ATOM     25  N   UNL     1      36.623  10.563  11.146  0.00  0.00    +0.000 NA
ATOM     26  C   UNL     1      37.010  11.436  10.196  0.00  0.00    +0.000 A 
ATOM     27  C   UNL     1      38.333  11.639   9.825  0.00  0.00    +0.000 A 
ENDBRANCH  20  22
ENDBRANCH  15  16
ENDBRANCH   7  15
TORSDOF 4
ENDMDL
MODEL 4
REMARK VINA RESULT:    -6.506      5.967      7.522
REMARK INTER + INTRA:          -8.819
REMARK INTER:                  -8.156
REMARK INTRA:                  -0.663
REMARK UNBOUND:                -0.791
REMARK  Name = 
REMARK  4 active torsions:
REMARK  status: ('A' for Active; 'I' for Inactive)
REMARK    1  A    between atoms: C_2  and  C_5
REMARK    2  A    between atoms: N_11  and  C_12
REMARK    3  A    between atoms: C_12  and  C_13
REMARK    4  A    between atoms: C_17  and  C_18
REMARK                            x       y       z     vdW  Elec       q    Type
REMARK                         _______ _______ _______ _____ _____    ______ ____
ROOT
ATOM      1  C   UNL     1      45.559   4.353  12.623  0.00  0.00    +0.000 A 
ATOM      2  N   UNL     1      45.884   3.951  13.884  0.00  0.00    +0.000 NA
ATOM      3  C   UNL     1      46.887   4.609  14.470  0.00  0.00    +0.000 A 
ATOM      4 CL   UNL     1      47.309   4.107  16.042  0.00  0.00    +0.000 Cl
ATOM      5  N   UNL     1      47.601   5.612  13.948  0.00  0.00    +0.000 NA
ATOM      6  C   UNL     1      47.282   5.992  12.698  0.00  0.00    +0.000 A 
ATOM      7  N   UNL     1      47.959   7.081  12.125  0.00  0.00    +0.000 N 
ATOM      8  C   UNL     1      46.242   5.376  11.984  0.00  0.00    +0.000 A 
ATOM      9 CL   UNL     1      45.853   5.895  10.381  0.00  0.00    +0.000 Cl
ATOM     10  H   UNL     1      48.234   6.880  11.167  0.00  0.00    +0.000 HD
ENDROOT
BRANCH   1  12
ATOM     11  F   UNL     1      43.792   2.715  12.701  0.00  0.00    +0.000 F 
ATOM     12  C   UNL     1      44.411   3.652  11.926  0.00  0.00    +0.000 C 
ATOM     13  F   UNL     1      44.799   2.986  10.800  0.00  0.00    +0.000 F 
ATOM     14  F   UNL     1      43.421   4.507  11.539  0.00  0.00    +0.000 F 
ENDBRANCH   1  12
BRANCH   7  15
ATOM     15  C   UNL     1      49.029   7.681  12.904  0.00  0.00    +0.000 C 
BRANCH  15  16
ATOM     16  C   UNL     1      50.062   8.247  11.954  0.00  0.00    +0.000 A 
ATOM     17  C   UNL     1      50.232   9.629  11.832  0.00  0.00    +0.000 A 
ATOM     18  C   UNL     1      51.184  10.143  10.957  0.00  0.00    +0.000 A 
ATOM     19  C   UNL     1      51.968   9.280  10.185  0.00  0.00    +0.000 A 
ATOM     20  C   UNL     1      51.808   7.886  10.249  0.00  0.00    +0.000 A 
ATOM     21  C   UNL     1      50.837   7.393  11.146  0.00  0.00    +0.000 A 
BRANCH  20  22
ATOM     22  C   UNL     1      52.614   6.971   9.403  0.00  0.00    +0.000 A 
ATOM     23  C   UNL     1      53.603   6.141   9.952  0.00  0.00    +0.000 A 
ATOM     24  C   UNL     1      54.312   5.281   9.126  0.00  0.00    +0.000 A 
ATOM     25  N   UNL     1      54.125   5.192   7.795  0.00  0.00    +0.000 NA
ATOM     26  C   UNL     1      53.185   5.999   7.269  0.00  0.00    +0.000 A 
ATOM     27  C   UNL     1      52.418   6.884   8.017  0.00  0.00    +0.000 A 
ENDBRANCH  20  22
ENDBRANCH  15  16
ENDBRANCH   7  15
TORSDOF 4
ENDMDL
MODEL 5
REMARK VINA RESULT:    -6.471      2.055      2.507
REMARK INTER + INTRA:          -8.775
REMARK INTER:                  -8.094
REMARK INTRA:                  -0.681
REMARK UNBOUND:                -0.791
REMARK  Name = 
REMARK  4 active torsions:
REMARK  status: ('A' for Active; 'I' for Inactive)
REMARK    1  A    between atoms: C_2  and  C_5
REMARK    2  A    between atoms: N_11  and  C_12
REMARK    3  A    between atoms: C_12  and  C_13
REMARK    4  A    between atoms: C_17  and  C_18
REMARK                            x       y       z     vdW  Elec       q    Type
REMARK                         _______ _______ _______ _____ _____    ______ ____
ROOT
ATOM      1  C   UNL     1      50.206   5.219  17.407  0.00  0.00    +0.000 A 
ATOM      2  N   UNL     1      51.380   5.841  17.103  0.00  0.00    +0.000 NA
ATOM      3  C   UNL     1      51.324   6.767  16.144  0.00  0.00    +0.000 A 
ATOM      4 CL   UNL     1      52.788   7.543  15.749  0.00  0.00    +0.000 Cl
ATOM      5  N   UNL     1      50.241   7.140  15.453  0.00  0.00    +0.000 NA
ATOM      6  C   UNL     1      49.090   6.511  15.750  0.00  0.00    +0.000 A 
ATOM      7  N   UNL     1      47.911   6.907  15.098  0.00  0.00    +0.000 N 
ATOM      8  C   UNL     1      49.027   5.522  16.744  0.00  0.00    +0.000 A 
ATOM      9 CL   UNL     1      47.529   4.738  17.106  0.00  0.00    +0.000 Cl
ATOM     10  H   UNL     1      47.374   6.102  14.788  0.00  0.00    +0.000 HD
ENDROOT
BRANCH   1  12
ATOM     11  F   UNL     1      51.460   3.923  19.007  0.00  0.00    +0.000 F 
ATOM     12  C   UNL     1      50.216   4.177  18.507  0.00  0.00    +0.000 C 
ATOM     13  F   UNL     1      49.741   2.965  18.096  0.00  0.00    +0.000 F 
ATOM     14  F   UNL     1      49.462   4.534  19.586  0.00  0.00    +0.000 F 
ENDBRANCH   1  12
BRANCH   7  15
ATOM     15  C   UNL     1      48.032   7.932  14.075  0.00  0.00    +0.000 C 
BRANCH  15  16
ATOM     16  C   UNL     1      46.838   7.837  13.150  0.00  0.00    +0.000 A 
ATOM     17  C   UNL     1      46.190   8.993  12.706  0.00  0.00    +0.000 A 
ATOM     18  C   UNL     1      45.092   8.899  11.855  0.00  0.00    +0.000 A 
ATOM     19  C   UNL     1      44.623   7.646  11.450  0.00  0.00    +0.000 A 
ATOM     20  C   UNL     1      45.222   6.456  11.898  0.00  0.00    +0.000 A 
ATOM     21  C   UNL     1      46.333   6.582  12.758  0.00  0.00    +0.000 A 
BRANCH  20  22
ATOM     22  C   UNL     1      44.702   5.125  11.497  0.00  0.00    +0.000 A 
ATOM     23  C   UNL     1      43.904   4.356  12.358  0.00  0.00    +0.000 A 
ATOM     24  C   UNL     1      43.417   3.130  11.931  0.00  0.00    +0.000 A 
ATOM     25  N   UNL     1      43.673   2.601  10.718  0.00  0.00    +0.000 NA
ATOM     26  C   UNL     1      44.450   3.334   9.899  0.00  0.00    +0.000 A 
ATOM     27  C   UNL     1      44.973   4.576  10.236  0.00  0.00    +0.000 A 
ENDBRANCH  20  22
ENDBRANCH  15  16
ENDBRANCH   7  15
TORSDOF 4
ENDMDL
MODEL 6
REMARK VINA RESULT:    -6.329      2.058      3.964
REMARK INTER + INTRA:          -8.599
REMARK INTER:                  -7.901
REMARK INTRA:                  -0.698
REMARK UNBOUND:                -0.791
REMARK  Name = 
REMARK  4 active torsions:
REMARK  status: ('A' for Active; 'I' for Inactive)
REMARK    1  A    between atoms: C_2  and  C_5
REMARK    2  A    between atoms: N_11  and  C_12
REMARK    3  A    between atoms: C_12  and  C_13
REMARK    4  A    between atoms: C_17  and  C_18
REMARK                            x       y       z     vdW  Elec       q    Type
REMARK                         _______ _______ _______ _____ _____    ______ ____
ROOT
ATOM      1  C   UNL     1      49.003   4.318  18.970  0.00  0.00    +0.000 A 
ATOM      2  N   UNL     1      49.962   3.403  18.656  0.00  0.00    +0.000 NA
ATOM      3  C   UNL     1      49.860   2.834  17.453  0.00  0.00    +0.000 A 
ATOM      4 CL   UNL     1      51.048   1.679  17.054  0.00  0.00    +0.000 Cl
ATOM      5  N   UNL     1      48.916   3.066  16.534  0.00  0.00    +0.000 NA
ATOM      6  C   UNL     1      47.966   3.961  16.859  0.00  0.00    +0.000 A 
ATOM      7  N   UNL     1      46.987   4.287  15.907  0.00  0.00    +0.000 N 
ATOM      8  C   UNL     1      47.974   4.626  18.095  0.00  0.00    +0.000 A 
ATOM      9 CL   UNL     1      46.740   5.776  18.477  0.00  0.00    +0.000 Cl
ATOM     10  H   UNL     1      46.060   4.307  16.325  0.00  0.00    +0.000 HD
ENDROOT
BRANCH   1  12
ATOM     11  F   UNL     1      49.122   6.370  20.229  0.00  0.00    +0.000 F 
ATOM     12  C   UNL     1      49.091   5.009  20.316  0.00  0.00    +0.000 C 
ATOM     13  F   UNL     1      50.212   4.670  21.016  0.00  0.00    +0.000 F 
ATOM     14  F   UNL     1      48.035   4.725  21.131  0.00  0.00    +0.000 F 
ENDBRANCH   1  12
BRANCH   7  15
ATOM     15  C   UNL     1      47.022   3.567  14.645  0.00  0.00    +0.000 C 
BRANCH  15  16
ATOM     16  C   UNL     1      46.563   4.498  13.544  0.00  0.00    +0.000 A 
ATOM     17  C   UNL     1      45.514   4.130  12.696  0.00  0.00    +0.000 A 
ATOM     18  C   UNL     1      45.096   4.991  11.684  0.00  0.00    +0.000 A 
ATOM     19  C   UNL     1      45.731   6.222  11.503  0.00  0.00    +0.000 A 
ATOM     20  C   UNL     1      46.812   6.619  12.309  0.00  0.00    +0.000 A 
ATOM     21  C   UNL     1      47.213   5.728  13.327  0.00  0.00    +0.000 A 
BRANCH  20  22
ATOM     22  C   UNL     1      47.510   7.910  12.093  0.00  0.00    +0.000 A 
ATOM     23  C   UNL     1      48.878   7.965  11.785  0.00  0.00    +0.000 A 
ATOM     24  C   UNL     1      49.483   9.193  11.563  0.00  0.00    +0.000 A 
ATOM     25  N   UNL     1      48.838  10.374  11.639  0.00  0.00    +0.000 NA
ATOM     26  C   UNL     1      47.529  10.319  11.949  0.00  0.00    +0.000 A 
ATOM     27  C   UNL     1      46.836   9.137  12.176  0.00  0.00    +0.000 A 
ENDBRANCH  20  22
ENDBRANCH  15  16
ENDBRANCH   7  15
TORSDOF 4
ENDMDL
MODEL 7
REMARK VINA RESULT:    -6.320      5.252      8.083
REMARK INTER + INTRA:          -8.589
REMARK INTER:                  -7.811
REMARK INTRA:                  -0.777
REMARK UNBOUND:                -0.791
REMARK  Name = 
REMARK  4 active torsions:
REMARK  status: ('A' for Active; 'I' for Inactive)
REMARK    1  A    between atoms: C_2  and  C_5
REMARK    2  A    between atoms: N_11  and  C_12
REMARK    3  A    between atoms: C_12  and  C_13
REMARK    4  A    between atoms: C_17  and  C_18
REMARK                            x       y       z     vdW  Elec       q    Type
REMARK                         _______ _______ _______ _____ _____    ______ ____
ROOT
ATOM      1  C   UNL     1      44.804   3.418   9.936  0.00  0.00    +0.000 A 
ATOM      2  N   UNL     1      44.103   3.101  11.061  0.00  0.00    +0.000 NA
ATOM      3  C   UNL     1      44.088   4.026  12.023  0.00  0.00    +0.000 A 
ATOM      4 CL   UNL     1      43.224   3.635  13.439  0.00  0.00    +0.000 Cl
ATOM      5  N   UNL     1      44.690   5.220  11.997  0.00  0.00    +0.000 NA
ATOM      6  C   UNL     1      45.390   5.518  10.888  0.00  0.00    +0.000 A 
ATOM      7  N   UNL     1      45.990   6.783  10.784  0.00  0.00    +0.000 N 
ATOM      8  C   UNL     1      45.473   4.625   9.809  0.00  0.00    +0.000 A 
ATOM      9 CL   UNL     1      46.377   5.043   8.395  0.00  0.00    +0.000 Cl
ATOM     10  H   UNL     1      46.942   6.711  10.433  0.00  0.00    +0.000 HD
ENDROOT
BRANCH   1  12
ATOM     11  F   UNL     1      46.078   1.936   8.525  0.00  0.00    +0.000 F 
ATOM     12  C   UNL     1      44.830   2.410   8.805  0.00  0.00    +0.000 C 
ATOM     13  F   UNL     1      44.367   2.918   7.627  0.00  0.00    +0.000 F 
ATOM     14  F   UNL     1      44.076   1.302   9.063  0.00  0.00    +0.000 F 
ENDBRANCH   1  12
BRANCH   7  15
ATOM     15  C   UNL     1      45.877   7.668  11.930  0.00  0.00    +0.000 C 
BRANCH  15  16
ATOM     16  C   UNL     1      47.147   7.569  12.747  0.00  0.00    +0.000 A 
ATOM     17  C   UNL     1      48.285   8.293  12.379  0.00  0.00    +0.000 A 
ATOM     18  C   UNL     1      49.451   8.197  13.135  0.00  0.00    +0.000 A 
ATOM     19  C   UNL     1      49.494   7.367  14.258  0.00  0.00    +0.000 A 
ATOM     20  C   UNL     1      48.386   6.594  14.645  0.00  0.00    +0.000 A 
ATOM     21  C   UNL     1      47.217   6.712  13.862  0.00  0.00    +0.000 A 
BRANCH  20  22
ATOM     22  C   UNL     1      48.442   5.684  15.815  0.00  0.00    +0.000 A 
ATOM     23  C   UNL     1      47.554   4.606  15.954  0.00  0.00    +0.000 A 
ATOM     24  C   UNL     1      47.662   3.765  17.051  0.00  0.00    +0.000 A 
ATOM     25  N   UNL     1      48.576   3.919  18.030  0.00  0.00    +0.000 NA
ATOM     26  C   UNL     1      49.418   4.961  17.901  0.00  0.00    +0.000 A 
ATOM     27  C   UNL     1      49.392   5.850  16.833  0.00  0.00    +0.000 A 
ENDBRANCH  20  22
ENDBRANCH  15  16
ENDBRANCH   7  15
TORSDOF 4
ENDMDL
MODEL 8
REMARK VINA RESULT:    -6.197      4.588      8.187
REMARK INTER + INTRA:          -8.436
REMARK INTER:                  -7.786
REMARK INTRA:                  -0.650
REMARK UNBOUND:                -0.791
REMARK  Name = 
REMARK  4 active torsions:
REMARK  status: ('A' for Active; 'I' for Inactive)
REMARK    1  A    between atoms: C_2  and  C_5
REMARK    2  A    between atoms: N_11  and  C_12
REMARK    3  A    between atoms: C_12  and  C_13
REMARK    4  A    between atoms: C_17  and  C_18
REMARK                            x       y       z     vdW  Elec       q    Type
REMARK                         _______ _______ _______ _____ _____    ______ ____
ROOT
ATOM      1  C   UNL     1      45.107   5.462  11.877  0.00  0.00    +0.000 A 
ATOM      2  N   UNL     1      44.888   6.764  11.538  0.00  0.00    +0.000 NA
ATOM      3  C   UNL     1      45.607   7.673  12.200  0.00  0.00    +0.000 A 
ATOM      4 CL   UNL     1      45.332   9.304  11.792  0.00  0.00    +0.000 Cl
ATOM      5  N   UNL     1      46.510   7.438  13.158  0.00  0.00    +0.000 NA
ATOM      6  C   UNL     1      46.709   6.151  13.496  0.00  0.00    +0.000 A 
ATOM      7  N   UNL     1      47.690   5.844  14.452  0.00  0.00    +0.000 N 
ATOM      8  C   UNL     1      46.014   5.109  12.864  0.00  0.00    +0.000 A 
ATOM      9 CL   UNL     1      46.300   3.464  13.318  0.00  0.00    +0.000 Cl
ATOM     10  H   UNL     1      47.347   5.165  15.126  0.00  0.00    +0.000 HD
ENDROOT
BRANCH   1  12
ATOM     11  F   UNL     1      43.485   4.890  10.189  0.00  0.00    +0.000 F 
ATOM     12  C   UNL     1      44.332   4.393  11.135  0.00  0.00    +0.000 C 
ATOM     13  F   UNL     1      43.547   3.638  11.957  0.00  0.00    +0.000 F 
ATOM     14  F   UNL     1      45.138   3.516  10.470  0.00  0.00    +0.000 F 
ENDBRANCH   1  12
BRANCH   7  15
ATOM     15  C   UNL     1      48.379   6.960  15.078  0.00  0.00    +0.000 C 
BRANCH  15  16
ATOM     16  C   UNL     1      48.904   6.512  16.425  0.00  0.00    +0.000 A 
ATOM     17  C   UNL     1      48.627   7.254  17.577  0.00  0.00    +0.000 A 
ATOM     18  C   UNL     1      49.112   6.837  18.813  0.00  0.00    +0.000 A 
ATOM     19  C   UNL     1      49.890   5.679  18.908  0.00  0.00    +0.000 A 
ATOM     20  C   UNL     1      50.222   4.921  17.773  0.00  0.00    +0.000 A 
ATOM     21  C   UNL     1      49.715   5.366  16.534  0.00  0.00    +0.000 A 
BRANCH  20  22
ATOM     22  C   UNL     1      51.077   3.712  17.868  0.00  0.00    +0.000 A 
ATOM     23  C   UNL     1      50.648   2.466  17.386  0.00  0.00    +0.000 A 
ATOM     24  C   UNL     1      51.492   1.369  17.471  0.00  0.00    +0.000 A 
ATOM     25  N   UNL     1      52.726   1.410  18.010  0.00  0.00    +0.000 NA
ATOM     26  C   UNL     1      53.131   2.604  18.484  0.00  0.00    +0.000 A 
ATOM     27  C   UNL     1      52.360   3.759  18.433  0.00  0.00    +0.000 A 
ENDBRANCH  20  22
ENDBRANCH  15  16
ENDBRANCH   7  15
TORSDOF 4
ENDMDL
MODEL 9
REMARK VINA RESULT:    -6.132      2.044      3.369
REMARK INTER + INTRA:          -8.356
REMARK INTER:                  -7.607
REMARK INTRA:                  -0.749
REMARK UNBOUND:                -0.791
REMARK  Name = 
REMARK  4 active torsions:
REMARK  status: ('A' for Active; 'I' for Inactive)
REMARK    1  A    between atoms: C_2  and  C_5
REMARK    2  A    between atoms: N_11  and  C_12
REMARK    3  A    between atoms: C_12  and  C_13
REMARK    4  A    between atoms: C_17  and  C_18
REMARK                            x       y       z     vdW  Elec       q    Type
REMARK                         _______ _______ _______ _____ _____    ______ ____
ROOT
ATOM      1  C   UNL     1      48.443   5.124  18.986  0.00  0.00    +0.000 A 
ATOM      2  N   UNL     1      48.762   3.858  18.593  0.00  0.00    +0.000 NA
ATOM      3  C   UNL     1      48.922   3.673  17.282  0.00  0.00    +0.000 A 
ATOM      4 CL   UNL     1      49.309   2.092  16.778  0.00  0.00    +0.000 Cl
ATOM      5  N   UNL     1      48.798   4.595  16.321  0.00  0.00    +0.000 NA
ATOM      6  C   UNL     1      48.470   5.838  16.717  0.00  0.00    +0.000 A 
ATOM      7  N   UNL     1      48.388   6.858  15.755  0.00  0.00    +0.000 N 
ATOM      8  C   UNL     1      48.281   6.152  18.071  0.00  0.00    +0.000 A 
ATOM      9 CL   UNL     1      47.867   7.763  18.547  0.00  0.00    +0.000 Cl
ATOM     10  H   UNL     1      47.556   7.426  15.892  0.00  0.00    +0.000 HD
ENDROOT
BRANCH   1  12
ATOM     11  F   UNL     1      49.122   6.343  20.952  0.00  0.00    +0.000 F 
ATOM     12  C   UNL     1      48.275   5.389  20.468  0.00  0.00    +0.000 C 
ATOM     13  F   UNL     1      48.506   4.284  21.236  0.00  0.00    +0.000 F 
ATOM     14  F   UNL     1      47.023   5.822  20.793  0.00  0.00    +0.000 F 
ENDBRANCH   1  12
BRANCH   7  15
ATOM     15  C   UNL     1      48.589   6.478  14.367  0.00  0.00    +0.000 C 
BRANCH  15  16
ATOM     16  C   UNL     1      47.249   6.483  13.664  0.00  0.00    +0.000 A 
ATOM     17  C   UNL     1      46.495   5.310  13.567  0.00  0.00    +0.000 A 
ATOM     18  C   UNL     1      45.263   5.320  12.919  0.00  0.00    +0.000 A 
ATOM     19  C   UNL     1      44.778   6.502  12.351  0.00  0.00    +0.000 A 
ATOM     20  C   UNL     1      45.517   7.696  12.394  0.00  0.00    +0.000 A 
ATOM     21  C   UNL     1      46.761   7.657  13.059  0.00  0.00    +0.000 A 
BRANCH  20  22
ATOM     22  C   UNL     1      45.019   8.942  11.760  0.00  0.00    +0.000 A 
ATOM     23  C   UNL     1      43.822   8.968  11.029  0.00  0.00    +0.000 A 
ATOM     24  C   UNL     1      43.380  10.162  10.476  0.00  0.00    +0.000 A 
ATOM     25  N   UNL     1      44.044  11.329  10.582  0.00  0.00    +0.000 NA
ATOM     26  C   UNL     1      45.199  11.298  11.272  0.00  0.00    +0.000 A 
ATOM     27  C   UNL     1      45.714  10.154  11.869  0.00  0.00    +0.000 A 
ENDBRANCH  20  22
ENDBRANCH  15  16
ENDBRANCH   7  15
TORSDOF 4
ENDMDL
