MODEL 1
REMARK VINA RESULT:    -8.297      0.000      0.000
REMARK INTER + INTRA:         -10.928
REMARK INTER:                 -10.237
REMARK INTRA:                  -0.692
REMARK UNBOUND:                -0.692
REMARK  Name = 
REMARK  4 active torsions:
REMARK  status: ('A' for Active; 'I' for Inactive)
REMARK    1  A    between atoms: C_2  and  C_5
REMARK    2  A    between atoms: N_9  and  C_10
REMARK    3  A    between atoms: C_10  and  C_11
REMARK    4  A    between atoms: C_15  and  C_16
REMARK                            x       y       z     vdW  Elec       q    Type
REMARK                         _______ _______ _______ _____ _____    ______ ____
ROOT
ATOM      1  C   UNL     1      43.985   5.353  10.816  0.00  0.00    +0.000 C 
ENDROOT
BRANCH   1   6
ATOM      2  C   UNL     1      46.469   2.600   7.503  0.00  0.00    +0.000 A 
ATOM      3  C   UNL     1      45.824   1.806   8.416  0.00  0.00    +0.000 A 
ATOM      4  N   UNL     1      44.968   2.280   9.345  0.00  0.00    +0.000 NA
ATOM      5  C   UNL     1      44.736   3.598   9.357  0.00  0.00    +0.000 A 
ATOM      6  N   UNL     1      43.801   4.022  10.282  0.00  0.00    +0.000 N 
ATOM      7  N   UNL     1      45.335   4.459   8.524  0.00  0.00    +0.000 NA
ATOM      8  C   UNL     1      46.186   3.941   7.609  0.00  0.00    +0.000 A 
ATOM      9  H   UNL     1      43.718   3.282  10.971  0.00  0.00    +0.000 HD
BRANCH   2  11
ATOM     10  F   UNL     1      47.451   0.697   6.466  0.00  0.00    +0.000 F 
ATOM     11  C   UNL     1      47.389   2.057   6.474  0.00  0.00    +0.000 C 
ATOM     12  F   UNL     1      48.671   2.485   6.639  0.00  0.00    +0.000 F 
ATOM     13  F   UNL     1      47.035   2.419   5.211  0.00  0.00    +0.000 F 
ENDBRANCH   2  11
ENDBRANCH   1   6
BRANCH   1  14
ATOM     14  C   UNL     1      45.054   5.320  11.881  0.00  0.00    +0.000 A 
ATOM     15  C   UNL     1      44.958   4.469  12.973  0.00  0.00    +0.000 A 
ATOM     16  N   UNL     1      45.898   4.371  13.937  0.00  0.00    +0.000 NA
ATOM     17  C   UNL     1      46.990   5.165  13.809  0.00  0.00    +0.000 A 
ATOM     18  C   UNL     1      47.207   6.080  12.776  0.00  0.00    +0.000 A 
ATOM     19  C   UNL     1      46.198   6.132  11.800  0.00  0.00    +0.000 A 
BRANCH  18  20
ATOM     20  C   UNL     1      48.409   6.939  12.717  0.00  0.00    +0.000 A 
ATOM     21  C   UNL     1      48.794   7.616  11.549  0.00  0.00    +0.000 A 
ATOM     22  C   UNL     1      49.921   8.439  11.537  0.00  0.00    +0.000 A 
ATOM     23  C   UNL     1      50.658   8.562  12.700  0.00  0.00    +0.000 A 
ATOM     24  N   UNL     1      50.344   7.929  13.846  0.00  0.00    +0.000 NA
ATOM     25  C   UNL     1      49.236   7.145  13.826  0.00  0.00    +0.000 A 
ENDBRANCH  18  20
ENDBRANCH   1  14
TORSDOF 4
ENDMDL
MODEL 2
REMARK VINA RESULT:    -7.150      3.595      6.880
REMARK INTER + INTRA:          -9.513
REMARK INTER:                  -9.247
REMARK INTRA:                  -0.266
REMARK UNBOUND:                -0.692
REMARK  Name = 
REMARK  4 active torsions:
REMARK  status: ('A' for Active; 'I' for Inactive)
REMARK    1  A    between atoms: C_2  and  C_5
REMARK    2  A    between atoms: N_9  and  C_10
REMARK    3  A    between atoms: C_10  and  C_11
REMARK    4  A    between atoms: C_15  and  C_16
REMARK                            x       y       z     vdW  Elec       q    Type
REMARK                         _______ _______ _______ _____ _____    ______ ____
ROOT
ATOM      1  C   UNL     1      43.622   6.530  11.144  0.00  0.00    +0.000 C 
ENDROOT
BRANCH   1   6
ATOM      2  C   UNL     1      48.185   8.008  12.457  0.00  0.00    +0.000 A 
ATOM      3  C   UNL     1      47.247   8.453  13.354  0.00  0.00    +0.000 A 
ATOM      4  N   UNL     1      45.949   8.089  13.320  0.00  0.00    +0.000 NA
ATOM      5  C   UNL     1      45.571   7.236  12.360  0.00  0.00    +0.000 A 
ATOM      6  N   UNL     1      44.247   6.843  12.410  0.00  0.00    +0.000 N 
ATOM      7  N   UNL     1      46.404   6.765  11.423  0.00  0.00    +0.000 NA
ATOM      8  C   UNL     1      47.697   7.156  11.494  0.00  0.00    +0.000 A 
ATOM      9  H   UNL     1      43.763   7.528  12.981  0.00  0.00    +0.000 HD
BRANCH   2  11
ATOM     10  F   UNL     1      50.101   8.454  13.795  0.00  0.00    +0.000 F 
ATOM     11  C   UNL     1      49.613   8.402  12.525  0.00  0.00    +0.000 C 
ATOM     12  F   UNL     1      49.844   9.632  11.990  0.00  0.00    +0.000 F 
ATOM     13  F   UNL     1      50.426   7.543  11.851  0.00  0.00    +0.000 F 
ENDBRANCH   2  11
ENDBRANCH   1   6
BRANCH   1  14
ATOM     14  C   UNL     1      43.793   5.059  10.854  0.00  0.00    +0.000 A 
ATOM     15  C   UNL     1      43.146   4.094  11.613  0.00  0.00    +0.000 A 
ATOM     16  N   UNL     1      43.233   2.768  11.378  0.00  0.00    +0.000 NA
ATOM     17  C   UNL     1      44.008   2.381  10.333  0.00  0.00    +0.000 A 
ATOM     18  C   UNL     1      44.728   3.240   9.501  0.00  0.00    +0.000 A 
ATOM     19  C   UNL     1      44.593   4.608   9.790  0.00  0.00    +0.000 A 
BRANCH  18  20
ATOM     20  C   UNL     1      45.580   2.746   8.398  0.00  0.00    +0.000 A 
ATOM     21  C   UNL     1      45.965   3.560   7.321  0.00  0.00    +0.000 A 
ATOM     22  C   UNL     1      46.790   3.067   6.310  0.00  0.00    +0.000 A 
ATOM     23  C   UNL     1      47.211   1.753   6.387  0.00  0.00    +0.000 A 
ATOM     24  N   UNL     1      46.866   0.922   7.389  0.00  0.00    +0.000 NA
ATOM     25  C   UNL     1      46.071   1.437   8.361  0.00  0.00    +0.000 A 
ENDBRANCH  18  20
ENDBRANCH   1  14
TORSDOF 4
ENDMDL
MODEL 3
REMARK VINA RESULT:    -7.049      5.238      8.307
REMARK INTER + INTRA:          -9.389
REMARK INTER:                  -8.978
REMARK INTRA:                  -0.411
REMARK UNBOUND:                -0.692
REMARK  Name = 
REMARK  4 active torsions:
REMARK  status: ('A' for Active; 'I' for Inactive)
REMARK    1  A    between atoms: C_2  and  C_5
REMARK    2  A    between atoms: N_9  and  C_10
REMARK    3  A    between atoms: C_10  and  C_11
REMARK    4  A    between atoms: C_15  and  C_16
REMARK                            x       y       z     vdW  Elec       q    Type
REMARK                         _______ _______ _______ _____ _____    ______ ____
ROOT
ATOM      1  C   UNL     1      45.921   5.403  13.642  0.00  0.00    +0.000 C 
ENDROOT
BRANCH   1   6
ATOM      2  C   UNL     1      48.715   4.508  17.657  0.00  0.00    +0.000 A 
ATOM      3  C   UNL     1      47.729   3.564  17.525  0.00  0.00    +0.000 A 
ATOM      4  N   UNL     1      46.911   3.483  16.455  0.00  0.00    +0.000 NA
ATOM      5  C   UNL     1      47.091   4.372  15.470  0.00  0.00    +0.000 A 
ATOM      6  N   UNL     1      46.273   4.203  14.369  0.00  0.00    +0.000 N 
ATOM      7  N   UNL     1      48.008   5.347  15.516  0.00  0.00    +0.000 NA
ATOM      8  C   UNL     1      48.807   5.391  16.607  0.00  0.00    +0.000 A 
ATOM      9  H   UNL     1      45.494   3.630  14.672  0.00  0.00    +0.000 HD
BRANCH   2  11
ATOM     10  F   UNL     1      50.059   5.823  19.114  0.00  0.00    +0.000 F 
ATOM     11  C   UNL     1      49.619   4.566  18.831  0.00  0.00    +0.000 C 
ATOM     12  F   UNL     1      50.740   3.811  18.668  0.00  0.00    +0.000 F 
ATOM     13  F   UNL     1      49.029   4.115  19.971  0.00  0.00    +0.000 F 
ENDBRANCH   2  11
ENDBRANCH   1   6
BRANCH   1  14
ATOM     14  C   UNL     1      45.099   5.029  12.433  0.00  0.00    +0.000 A 
ATOM     15  C   UNL     1      43.741   5.304  12.371  0.00  0.00    +0.000 A 
ATOM     16  N   UNL     1      42.964   5.026  11.302  0.00  0.00    +0.000 NA
ATOM     17  C   UNL     1      43.571   4.439  10.240  0.00  0.00    +0.000 A 
ATOM     18  C   UNL     1      44.922   4.089  10.174  0.00  0.00    +0.000 A 
ATOM     19  C   UNL     1      45.680   4.410  11.313  0.00  0.00    +0.000 A 
BRANCH  18  20
ATOM     20  C   UNL     1      45.511   3.421   8.995  0.00  0.00    +0.000 A 
ATOM     21  C   UNL     1      45.959   4.134   7.872  0.00  0.00    +0.000 A 
ATOM     22  C   UNL     1      46.533   3.472   6.786  0.00  0.00    +0.000 A 
ATOM     23  C   UNL     1      46.639   2.095   6.836  0.00  0.00    +0.000 A 
ATOM     24  N   UNL     1      46.217   1.357   7.880  0.00  0.00    +0.000 NA
ATOM     25  C   UNL     1      45.674   2.034   8.924  0.00  0.00    +0.000 A 
ENDBRANCH  18  20
ENDBRANCH   1  14
TORSDOF 4
ENDMDL
MODEL 4
REMARK VINA RESULT:    -6.901      1.855      3.058
REMARK INTER + INTRA:          -9.207
REMARK INTER:                  -8.792
REMARK INTRA:                  -0.414
REMARK UNBOUND:                -0.692
REMARK  Name = 
REMARK  4 active torsions:
REMARK  status: ('A' for Active; 'I' for Inactive)
REMARK    1  A    between atoms: C_2  and  C_5
REMARK    2  A    between atoms: N_9  and  C_10
REMARK    3  A    between atoms: C_10  and  C_11
REMARK    4  A    between atoms: C_15  and  C_16
REMARK                            x       y       z     vdW  Elec       q    Type
REMARK                         _______ _______ _______ _____ _____    ______ ____
ROOT
ATOM      1  C   UNL     1      44.036   5.673  11.409  0.00  0.00    +0.000 C 
ENDROOT
BRANCH   1   6
ATOM      2  C   UNL     1      46.101   2.870   7.858  0.00  0.00    +0.000 A 
ATOM      3  C   UNL     1      45.775   2.113   8.954  0.00  0.00    +0.000 A 
ATOM      4  N   UNL     1      45.080   2.586  10.009  0.00  0.00    +0.000 NA
ATOM      5  C   UNL     1      44.685   3.864   9.966  0.00  0.00    +0.000 A 
ATOM      6  N   UNL     1      43.920   4.280  11.039  0.00  0.00    +0.000 N 
ATOM      7  N   UNL     1      44.974   4.691   8.953  0.00  0.00    +0.000 NA
ATOM      8  C   UNL     1      45.672   4.175   7.916  0.00  0.00    +0.000 A 
ATOM      9  H   UNL     1      44.083   3.613  11.787  0.00  0.00    +0.000 HD
BRANCH   2  11
ATOM     10  F   UNL     1      46.325   2.701   5.496  0.00  0.00    +0.000 F 
ATOM     11  C   UNL     1      46.845   2.325   6.696  0.00  0.00    +0.000 C 
ATOM     12  F   UNL     1      46.867   0.964   6.680  0.00  0.00    +0.000 F 
ATOM     13  F   UNL     1      48.147   2.719   6.676  0.00  0.00    +0.000 F 
ENDBRANCH   2  11
ENDBRANCH   1   6
BRANCH   1  14
ATOM     14  C   UNL     1      45.417   5.928  11.962  0.00  0.00    +0.000 A 
ATOM     15  C   UNL     1      46.330   6.723  11.284  0.00  0.00    +0.000 A 
ATOM     16  N   UNL     1      47.564   7.015  11.747  0.00  0.00    +0.000 NA
ATOM     17  C   UNL     1      47.909   6.484  12.947  0.00  0.00    +0.000 A 
ATOM     18  C   UNL     1      47.099   5.653  13.725  0.00  0.00    +0.000 A 
ATOM     19  C   UNL     1      45.825   5.391  13.195  0.00  0.00    +0.000 A 
BRANCH  18  20
ATOM     20  C   UNL     1      47.553   5.083  15.011  0.00  0.00    +0.000 A 
ATOM     21  C   UNL     1      47.104   3.840  15.484  0.00  0.00    +0.000 A 
ATOM     22  C   UNL     1      47.573   3.321  16.691  0.00  0.00    +0.000 A 
ATOM     23  C   UNL     1      48.482   4.065  17.418  0.00  0.00    +0.000 A 
ATOM     24  N   UNL     1      48.941   5.267  17.022  0.00  0.00    +0.000 NA
ATOM     25  C   UNL     1      48.472   5.738  15.838  0.00  0.00    +0.000 A 
ENDBRANCH  18  20
ENDBRANCH   1  14
TORSDOF 4
ENDMDL
MODEL 5
REMARK VINA RESULT:    -6.659      4.268      7.320
REMARK INTER + INTRA:          -8.907
REMARK INTER:                  -8.364
REMARK INTRA:                  -0.543
REMARK UNBOUND:                -0.692
REMARK  Name = 
REMARK  4 active torsions:
REMARK  status: ('A' for Active; 'I' for Inactive)
REMARK    1  A    between atoms: C_2  and  C_5
REMARK    2  A    between atoms: N_9  and  C_10
REMARK    3  A    between atoms: C_10  and  C_11
REMARK    4  A    between atoms: C_15  and  C_16
REMARK                            x       y       z     vdW  Elec       q    Type
REMARK                         _______ _______ _______ _____ _____    ______ ____
ROOT
ATOM      1  C   UNL     1      45.159   5.062  13.455  0.00  0.00    +0.000 C 
ENDROOT
BRANCH   1   6
ATOM      2  C   UNL     1      46.481   9.680  12.168  0.00  0.00    +0.000 A 
ATOM      3  C   UNL     1      47.544   8.994  12.699  0.00  0.00    +0.000 A 
ATOM      4  N   UNL     1      47.507   7.682  13.008  0.00  0.00    +0.000 NA
ATOM      5  C   UNL     1      46.368   7.022  12.768  0.00  0.00    +0.000 A 
ATOM      6  N   UNL     1      46.405   5.667  13.039  0.00  0.00    +0.000 N 
ATOM      7  N   UNL     1      45.268   7.605  12.276  0.00  0.00    +0.000 NA
ATOM      8  C   UNL     1      45.349   8.923  11.979  0.00  0.00    +0.000 A 
ATOM      9  H   UNL     1      47.194   5.517  13.659  0.00  0.00    +0.000 HD
BRANCH   2  11
ATOM     10  F   UNL     1      47.520  11.797  12.482  0.00  0.00    +0.000 F 
ATOM     11  C   UNL     1      46.549  11.118  11.812  0.00  0.00    +0.000 C 
ATOM     12  F   UNL     1      45.388  11.778  12.076  0.00  0.00    +0.000 F 
ATOM     13  F   UNL     1      46.800  11.320  10.490  0.00  0.00    +0.000 F 
ENDBRANCH   2  11
ENDBRANCH   1   6
BRANCH   1  14
ATOM     14  C   UNL     1      44.689   4.104  12.389  0.00  0.00    +0.000 A 
ATOM     15  C   UNL     1      43.560   3.318  12.571  0.00  0.00    +0.000 A 
ATOM     16  N   UNL     1      43.074   2.471  11.640  0.00  0.00    +0.000 NA
ATOM     17  C   UNL     1      43.749   2.398  10.465  0.00  0.00    +0.000 A 
ATOM     18  C   UNL     1      44.908   3.115  10.155  0.00  0.00    +0.000 A 
ATOM     19  C   UNL     1      45.362   3.985  11.160  0.00  0.00    +0.000 A 
BRANCH  18  20
ATOM     20  C   UNL     1      45.612   2.963   8.864  0.00  0.00    +0.000 A 
ATOM     21  C   UNL     1      46.102   1.727   8.415  0.00  0.00    +0.000 A 
ATOM     22  C   UNL     1      46.740   1.615   7.179  0.00  0.00    +0.000 A 
ATOM     23  C   UNL     1      46.888   2.755   6.411  0.00  0.00    +0.000 A 
ATOM     24  N   UNL     1      46.449   3.968   6.793  0.00  0.00    +0.000 NA
ATOM     25  C   UNL     1      45.824   4.039   7.996  0.00  0.00    +0.000 A 
ENDBRANCH  18  20
ENDBRANCH   1  14
TORSDOF 4
ENDMDL
MODEL 6
REMARK VINA RESULT:    -6.654      4.799      6.387
REMARK INTER + INTRA:          -8.901
REMARK INTER:                  -8.385
REMARK INTRA:                  -0.516
REMARK UNBOUND:                -0.692
REMARK  Name = 
REMARK  4 active torsions:
REMARK  status: ('A' for Active; 'I' for Inactive)
REMARK    1  A    between atoms: C_2  and  C_5
REMARK    2  A    between atoms: N_9  and  C_10
REMARK    3  A    between atoms: C_10  and  C_11
REMARK    4  A    between atoms: C_15  and  C_16
REMARK                            x       y       z     vdW  Elec       q    Type
REMARK                         _______ _______ _______ _____ _____    ______ ____
ROOT
ATOM      1  C   UNL     1      47.020   4.255  16.266  0.00  0.00    +0.000 C 
ENDROOT
BRANCH   1   6
ATOM      2  C   UNL     1      45.163   4.480  11.659  0.00  0.00    +0.000 A 
ATOM      3  C   UNL     1      45.559   5.720  12.090  0.00  0.00    +0.000 A 
ATOM      4  N   UNL     1      46.221   5.933  13.246  0.00  0.00    +0.000 NA
ATOM      5  C   UNL     1      46.510   4.865  13.999  0.00  0.00    +0.000 A 
ATOM      6  N   UNL     1      47.247   5.129  15.138  0.00  0.00    +0.000 N 
ATOM      7  N   UNL     1      46.145   3.617  13.678  0.00  0.00    +0.000 NA
ATOM      8  C   UNL     1      45.484   3.448  12.510  0.00  0.00    +0.000 A 
ATOM      9  H   UNL     1      47.145   6.121  15.325  0.00  0.00    +0.000 HD
BRANCH   2  11
ATOM     10  F   UNL     1      43.325   5.009  10.244  0.00  0.00    +0.000 F 
ATOM     11  C   UNL     1      44.457   4.264  10.372  0.00  0.00    +0.000 C 
ATOM     12  F   UNL     1      44.071   2.970  10.198  0.00  0.00    +0.000 F 
ATOM     13  F   UNL     1      45.227   4.572   9.293  0.00  0.00    +0.000 F 
ENDBRANCH   2  11
ENDBRANCH   1   6
BRANCH   1  14
ATOM     14  C   UNL     1      48.301   3.531  16.602  0.00  0.00    +0.000 A 
ATOM     15  C   UNL     1      48.564   2.261  16.108  0.00  0.00    +0.000 A 
ATOM     16  N   UNL     1      49.705   1.582  16.346  0.00  0.00    +0.000 NA
ATOM     17  C   UNL     1      50.634   2.198  17.120  0.00  0.00    +0.000 A 
ATOM     18  C   UNL     1      50.494   3.462  17.698  0.00  0.00    +0.000 A 
ATOM     19  C   UNL     1      49.288   4.122  17.409  0.00  0.00    +0.000 A 
BRANCH  18  20
ATOM     20  C   UNL     1      51.536   4.060  18.559  0.00  0.00    +0.000 A 
ATOM     21  C   UNL     1      52.795   3.466  18.740  0.00  0.00    +0.000 A 
ATOM     22  C   UNL     1      53.764   4.072  19.541  0.00  0.00    +0.000 A 
ATOM     23  C   UNL     1      53.451   5.266  20.162  0.00  0.00    +0.000 A 
ATOM     24  N   UNL     1      52.258   5.877  20.035  0.00  0.00    +0.000 NA
ATOM     25  C   UNL     1      51.343   5.266  19.240  0.00  0.00    +0.000 A 
ENDBRANCH  18  20
ENDBRANCH   1  14
TORSDOF 4
ENDMDL
MODEL 7
REMARK VINA RESULT:    -6.630      4.556      7.770
REMARK INTER + INTRA:          -8.873
REMARK INTER:                  -8.728
REMARK INTRA:                  -0.145
REMARK UNBOUND:                -0.692
REMARK  Name = 
REMARK  4 active torsions:
REMARK  status: ('A' for Active; 'I' for Inactive)
REMARK    1  A    between atoms: C_2  and  C_5
REMARK    2  A    between atoms: N_9  and  C_10
REMARK    3  A    between atoms: C_10  and  C_11
REMARK    4  A    between atoms: C_15  and  C_16
REMARK                            x       y       z     vdW  Elec       q    Type
REMARK                         _______ _______ _______ _____ _____    ______ ____
ROOT
ATOM      1  C   UNL     1      48.471   7.566  13.029  0.00  0.00    +0.000 C 
ENDROOT
BRANCH   1   6
ATOM      2  C   UNL     1      48.138   4.231  16.703  0.00  0.00    +0.000 A 
ATOM      3  C   UNL     1      48.709   5.396  17.147  0.00  0.00    +0.000 A 
ATOM      4  N   UNL     1      48.799   6.516  16.401  0.00  0.00    +0.000 NA
ATOM      5  C   UNL     1      48.289   6.477  15.164  0.00  0.00    +0.000 A 
ATOM      6  N   UNL     1      48.346   7.669  14.466  0.00  0.00    +0.000 N 
ATOM      7  N   UNL     1      47.735   5.381  14.629  0.00  0.00    +0.000 NA
ATOM      8  C   UNL     1      47.665   4.281  15.413  0.00  0.00    +0.000 A 
ATOM      9  H   UNL     1      49.046   8.241  14.926  0.00  0.00    +0.000 HD
BRANCH   2  11
ATOM     10  F   UNL     1      48.711   1.949  17.053  0.00  0.00    +0.000 F 
ATOM     11  C   UNL     1      48.028   3.017  17.548  0.00  0.00    +0.000 C 
ATOM     12  F   UNL     1      46.742   2.597  17.695  0.00  0.00    +0.000 F 
ATOM     13  F   UNL     1      48.504   3.210  18.808  0.00  0.00    +0.000 F 
ENDBRANCH   2  11
ENDBRANCH   1   6
BRANCH   1  14
ATOM     14  C   UNL     1      47.100   7.388  12.422  0.00  0.00    +0.000 A 
ATOM     15  C   UNL     1      46.109   8.345  12.586  0.00  0.00    +0.000 A 
ATOM     16  N   UNL     1      44.879   8.256  12.037  0.00  0.00    +0.000 NA
ATOM     17  C   UNL     1      44.620   7.155  11.288  0.00  0.00    +0.000 A 
ATOM     18  C   UNL     1      45.515   6.107  11.057  0.00  0.00    +0.000 A 
ATOM     19  C   UNL     1      46.781   6.259  11.648  0.00  0.00    +0.000 A 
BRANCH  18  20
ATOM     20  C   UNL     1      45.155   4.919  10.255  0.00  0.00    +0.000 A 
ATOM     21  C   UNL     1      45.642   4.712   8.955  0.00  0.00    +0.000 A 
ATOM     22  C   UNL     1      45.301   3.566   8.236  0.00  0.00    +0.000 A 
ATOM     23  C   UNL     1      44.460   2.644   8.830  0.00  0.00    +0.000 A 
ATOM     24  N   UNL     1      43.953   2.793  10.068  0.00  0.00    +0.000 NA
ATOM     25  C   UNL     1      44.314   3.914  10.743  0.00  0.00    +0.000 A 
ENDBRANCH  18  20
ENDBRANCH   1  14
TORSDOF 4
ENDMDL
MODEL 8
REMARK VINA RESULT:    -6.594      4.947      6.456
REMARK INTER + INTRA:          -8.828
REMARK INTER:                  -8.388
REMARK INTRA:                  -0.440
REMARK UNBOUND:                -0.692
REMARK  Name = 
REMARK  4 active torsions:
REMARK  status: ('A' for Active; 'I' for Inactive)
REMARK    1  A    between atoms: C_2  and  C_5
REMARK    2  A    between atoms: N_9  and  C_10
REMARK    3  A    between atoms: C_10  and  C_11
REMARK    4  A    between atoms: C_15  and  C_16
REMARK                            x       y       z     vdW  Elec       q    Type
REMARK                         _______ _______ _______ _____ _____    ______ ____
ROOT
ATOM      1  C   UNL     1      46.945   4.155  15.946  0.00  0.00    +0.000 C 
ENDROOT
BRANCH   1   6
ATOM      2  C   UNL     1      45.054   4.499  11.360  0.00  0.00    +0.000 A 
ATOM      3  C   UNL     1      45.478   5.723  11.809  0.00  0.00    +0.000 A 
ATOM      4  N   UNL     1      46.154   5.902  12.963  0.00  0.00    +0.000 NA
ATOM      5  C   UNL     1      46.428   4.815  13.694  0.00  0.00    +0.000 A 
ATOM      6  N   UNL     1      47.180   5.044  14.831  0.00  0.00    +0.000 N 
ATOM      7  N   UNL     1      46.035   3.580  13.354  0.00  0.00    +0.000 NA
ATOM      8  C   UNL     1      45.360   3.446  12.190  0.00  0.00    +0.000 A 
ATOM      9  H   UNL     1      47.100   6.035  15.036  0.00  0.00    +0.000 HD
BRANCH   2  11
ATOM     10  F   UNL     1      43.185   5.049   9.993  0.00  0.00    +0.000 F 
ATOM     11  C   UNL     1      44.332   4.320  10.076  0.00  0.00    +0.000 C 
ATOM     12  F   UNL     1      43.966   3.028   9.857  0.00  0.00    +0.000 F 
ATOM     13  F   UNL     1      45.081   4.683   8.999  0.00  0.00    +0.000 F 
ENDBRANCH   2  11
ENDBRANCH   1   6
BRANCH   1  14
ATOM     14  C   UNL     1      48.039   4.337  16.969  0.00  0.00    +0.000 A 
ATOM     15  C   UNL     1      47.940   5.294  17.969  0.00  0.00    +0.000 A 
ATOM     16  N   UNL     1      48.869   5.478  18.930  0.00  0.00    +0.000 NA
ATOM     17  C   UNL     1      49.958   4.669  18.892  0.00  0.00    +0.000 A 
ATOM     18  C   UNL     1      50.196   3.680  17.934  0.00  0.00    +0.000 A 
ATOM     19  C   UNL     1      49.190   3.531  16.965  0.00  0.00    +0.000 A 
BRANCH  18  20
ATOM     20  C   UNL     1      51.422   2.855  17.936  0.00  0.00    +0.000 A 
ATOM     21  C   UNL     1      51.450   1.548  17.424  0.00  0.00    +0.000 A 
ATOM     22  C   UNL     1      52.632   0.807  17.419  0.00  0.00    +0.000 A 
ATOM     23  C   UNL     1      53.774   1.385  17.940  0.00  0.00    +0.000 A 
ATOM     24  N   UNL     1      53.805   2.629  18.454  0.00  0.00    +0.000 NA
ATOM     25  C   UNL     1      52.641   3.326  18.434  0.00  0.00    +0.000 A 
ENDBRANCH  18  20
ENDBRANCH   1  14
TORSDOF 4
ENDMDL
MODEL 9
REMARK VINA RESULT:    -6.248      2.729      4.325
REMARK INTER + INTRA:          -8.401
REMARK INTER:                  -7.795
REMARK INTRA:                  -0.606
REMARK UNBOUND:                -0.692
REMARK  Name = 
REMARK  4 active torsions:
REMARK  status: ('A' for Active; 'I' for Inactive)
REMARK    1  A    between atoms: C_2  and  C_5
REMARK    2  A    between atoms: N_9  and  C_10
REMARK    3  A    between atoms: C_10  and  C_11
REMARK    4  A    between atoms: C_15  and  C_16
REMARK                            x       y       z     vdW  Elec       q    Type
REMARK                         _______ _______ _______ _____ _____    ______ ____
ROOT
ATOM      1  C   UNL     1      46.175   7.589  12.415  0.00  0.00    +0.000 C 
ENDROOT
BRANCH   1   6
ATOM      2  C   UNL     1      45.134   3.517   9.759  0.00  0.00    +0.000 A 
ATOM      3  C   UNL     1      44.836   3.328  11.084  0.00  0.00    +0.000 A 
ATOM      4  N   UNL     1      44.891   4.309  12.009  0.00  0.00    +0.000 NA
ATOM      5  C   UNL     1      45.247   5.531  11.594  0.00  0.00    +0.000 A 
ATOM      6  N   UNL     1      45.222   6.512  12.567  0.00  0.00    +0.000 N 
ATOM      7  N   UNL     1      45.582   5.811  10.328  0.00  0.00    +0.000 NA
ATOM      8  C   UNL     1      45.513   4.798   9.433  0.00  0.00    +0.000 A 
ATOM      9  H   UNL     1      45.240   6.034  13.461  0.00  0.00    +0.000 HD
BRANCH   2  11
ATOM     10  F   UNL     1      44.309   1.365   9.169  0.00  0.00    +0.000 F 
ATOM     11  C   UNL     1      45.045   2.431   8.752  0.00  0.00    +0.000 C 
ATOM     12  F   UNL     1      46.264   1.929   8.413  0.00  0.00    +0.000 F 
ATOM     13  F   UNL     1      44.475   2.842   7.587  0.00  0.00    +0.000 F 
ENDBRANCH   2  11
ENDBRANCH   1   6
BRANCH   1  14
ATOM     14  C   UNL     1      47.360   7.337  13.314  0.00  0.00    +0.000 A 
ATOM     15  C   UNL     1      48.543   8.048  13.166  0.00  0.00    +0.000 A 
ATOM     16  N   UNL     1      49.621   7.890  13.963  0.00  0.00    +0.000 NA
ATOM     17  C   UNL     1      49.519   6.973  14.957  0.00  0.00    +0.000 A 
ATOM     18  C   UNL     1      48.400   6.175  15.208  0.00  0.00    +0.000 A 
ATOM     19  C   UNL     1      47.308   6.390  14.351  0.00  0.00    +0.000 A 
BRANCH  18  20
ATOM     20  C   UNL     1      48.370   5.171  16.292  0.00  0.00    +0.000 A 
ATOM     21  C   UNL     1      47.523   4.052  16.258  0.00  0.00    +0.000 A 
ATOM     22  C   UNL     1      47.539   3.110  17.287  0.00  0.00    +0.000 A 
ATOM     23  C   UNL     1      48.401   3.311  18.349  0.00  0.00    +0.000 A 
ATOM     24  N   UNL     1      49.227   4.369  18.442  0.00  0.00    +0.000 NA
ATOM     25  C   UNL     1      49.194   5.260  17.418  0.00  0.00    +0.000 A 
ENDBRANCH  18  20
ENDBRANCH   1  14
TORSDOF 4
ENDMDL
