MODEL 1
REMARK VINA RESULT:    -8.115      0.000      0.000
REMARK INTER + INTRA:         -13.035
REMARK INTER:                 -11.911
REMARK INTRA:                  -1.124
REMARK UNBOUND:                -1.124
REMARK  Name = 
REMARK  11 active torsions:
REMARK  status: ('A' for Active; 'I' for Inactive)
REMARK    1  A    between atoms: C_1  and  O_2
REMARK    2  A    between atoms: O_2  and  C_3
REMARK    3  A    between atoms: C_5  and  C_6
REMARK    4  A    between atoms: C_8  and  C_9
REMARK    5  A    between atoms: C_9  and  C_10
REMARK    6  A    between atoms: C_9  and  C_11
REMARK    7  A    between atoms: C_11  and  N_12
REMARK    8  A    between atoms: N_12  and  C_13
REMARK    9  A    between atoms: C_16  and  C_17
REMARK   10  A    between atoms: C_24  and  O_25
REMARK   11  A    between atoms: O_25  and  C_26
REMARK                            x       y       z     vdW  Elec       q    Type
REMARK                         _______ _______ _______ _____ _____    ______ ____
ROOT
ATOM      1  C   UNL     1      45.049   5.090  12.113  0.00  0.00    +0.000 C 
ATOM      2  C   UNL     1      43.755   5.402  12.882  0.00  0.00    +0.000 C 
ENDROOT
BRANCH   1   5
ATOM      3  C   UNL     1      47.587   5.267  14.995  0.00  0.00    +0.000 A 
ATOM      4  C   UNL     1      46.474   4.908  14.232  0.00  0.00    +0.000 A 
ATOM      5  C   UNL     1      46.264   5.454  12.961  0.00  0.00    +0.000 A 
ATOM      6  C   UNL     1      47.228   6.353  12.494  0.00  0.00    +0.000 A 
ATOM      7  C   UNL     1      48.323   6.641  13.295  0.00  0.00    +0.000 A 
ATOM      8  N   UNL     1      48.520   6.120  14.523  0.00  0.00    +0.000 NA
BRANCH   3  11
ATOM      9  C   UNL     1      48.582   4.917  18.595  0.00  0.00    +0.000 A 
ATOM     10  C   UNL     1      48.246   5.508  17.390  0.00  0.00    +0.000 A 
ATOM     11  C   UNL     1      47.835   4.693  16.328  0.00  0.00    +0.000 A 
ATOM     12  C   UNL     1      47.716   3.318  16.580  0.00  0.00    +0.000 A 
ATOM     13  C   UNL     1      48.046   2.825  17.830  0.00  0.00    +0.000 A 
ATOM     14  N   UNL     1      48.491   3.593  18.842  0.00  0.00    +0.000 NA
BRANCH   9  16
ATOM     15  C   UNL     1      47.980   6.430  20.248  0.00  0.00    +0.000 C 
ATOM     16  O   UNL     1      49.047   5.760  19.585  0.00  0.00    +0.000 OA
ENDBRANCH   9  16
ENDBRANCH   3  11
BRANCH   7  17
ATOM     17  O   UNL     1      49.265   7.505  12.768  0.00  0.00    +0.000 OA
ATOM     18  C   UNL     1      48.724   8.350  11.754  0.00  0.00    +0.000 C 
ENDBRANCH   7  17
ENDBRANCH   1   5
BRANCH   1  19
ATOM     19  C   UNL     1      44.948   5.796  10.734  0.00  0.00    +0.000 C 
BRANCH  19  20
ATOM     20  N   UNL     1      44.175   5.012   9.758  0.00  0.00    +0.000 N 
ATOM     21  H   UNL     1      43.641   5.601   9.122  0.00  0.00    +0.000 HD
BRANCH  20  22
ATOM     22  C   UNL     1      44.979   4.121   9.012  0.00  0.00    +0.000 A 
ATOM     23  N   UNL     1      45.808   4.637   8.078  0.00  0.00    +0.000 NA
ATOM     24  C   UNL     1      46.598   3.789   7.370  0.00  0.00    +0.000 A 
ATOM     25  C   UNL     1      46.615   2.419   7.545  0.00  0.00    +0.000 A 
ATOM     26  C   UNL     1      45.791   1.891   8.540  0.00  0.00    +0.000 A 
ATOM     27  C   UNL     1      44.980   2.746   9.292  0.00  0.00    +0.000 A 
ATOM     28 CL   UNL     1      43.953   2.067  10.503  0.00  0.00    +0.000 Cl
BRANCH  25  29
ATOM     29  C   UNL     1      47.444   1.505   6.724  0.00  0.00    +0.000 C 
ATOM     30  N   UNL     1      48.591   1.978   6.149  0.00  0.00    +0.000 N 
ATOM     31  O   UNL     1      47.105   0.341   6.547  0.00  0.00    +0.000 OA
ATOM     32  H   UNL     1      48.940   2.923   6.193  0.00  0.00    +0.000 HD
ATOM     33  H   UNL     1      49.109   1.324   5.573  0.00  0.00    +0.000 HD
ENDBRANCH  25  29
ENDBRANCH  20  22
ENDBRANCH  19  20
ENDBRANCH   1  19
TORSDOF 8
ENDMDL
MODEL 2
REMARK VINA RESULT:    -7.778      1.926      4.981
REMARK INTER + INTRA:         -12.539
REMARK INTER:                 -11.378
REMARK INTRA:                  -1.161
REMARK UNBOUND:                -1.124
REMARK  Name = 
REMARK  11 active torsions:
REMARK  status: ('A' for Active; 'I' for Inactive)
REMARK    1  A    between atoms: C_1  and  O_2
REMARK    2  A    between atoms: O_2  and  C_3
REMARK    3  A    between atoms: C_5  and  C_6
REMARK    4  A    between atoms: C_8  and  C_9
REMARK    5  A    between atoms: C_9  and  C_10
REMARK    6  A    between atoms: C_9  and  C_11
REMARK    7  A    between atoms: C_11  and  N_12
REMARK    8  A    between atoms: N_12  and  C_13
REMARK    9  A    between atoms: C_16  and  C_17
REMARK   10  A    between atoms: C_24  and  O_25
REMARK   11  A    between atoms: O_25  and  C_26
REMARK                            x       y       z     vdW  Elec       q    Type
REMARK                         _______ _______ _______ _____ _____    ______ ____
ROOT
ATOM      1  C   UNL     1      45.347   5.108  11.979  0.00  0.00    +0.000 C 
ATOM      2  C   UNL     1      44.124   5.131  12.911  0.00  0.00    +0.000 C 
ENDROOT
BRANCH   1   5
ATOM      3  C   UNL     1      48.560   7.018  12.877  0.00  0.00    +0.000 A 
ATOM      4  C   UNL     1      47.429   6.583  12.183  0.00  0.00    +0.000 A 
ATOM      5  C   UNL     1      46.581   5.611  12.723  0.00  0.00    +0.000 A 
ATOM      6  C   UNL     1      46.912   5.116  13.989  0.00  0.00    +0.000 A 
ATOM      7  C   UNL     1      48.035   5.615  14.633  0.00  0.00    +0.000 A 
ATOM      8  N   UNL     1      48.856   6.547  14.108  0.00  0.00    +0.000 NA
BRANCH   3  11
ATOM      9  C   UNL     1      51.334   8.695  10.988  0.00  0.00    +0.000 A 
ATOM     10  C   UNL     1      50.434   7.722  11.387  0.00  0.00    +0.000 A 
ATOM     11  C   UNL     1      49.458   8.051  12.336  0.00  0.00    +0.000 A 
ATOM     12  C   UNL     1      49.407   9.384  12.771  0.00  0.00    +0.000 A 
ATOM     13  C   UNL     1      50.333  10.292  12.290  0.00  0.00    +0.000 A 
ATOM     14  N   UNL     1      51.307   9.975  11.416  0.00  0.00    +0.000 NA
BRANCH   9  16
ATOM     15  C   UNL     1      52.764   9.380   9.295  0.00  0.00    +0.000 C 
ATOM     16  O   UNL     1      52.317   8.297  10.104  0.00  0.00    +0.000 OA
ENDBRANCH   9  16
ENDBRANCH   3  11
BRANCH   7  17
ATOM     17  O   UNL     1      48.293   5.122  15.898  0.00  0.00    +0.000 OA
ATOM     18  C   UNL     1      47.256   4.266  16.372  0.00  0.00    +0.000 C 
ENDBRANCH   7  17
ENDBRANCH   1   5
BRANCH   1  19
ATOM     19  C   UNL     1      44.963   5.890  10.694  0.00  0.00    +0.000 C 
BRANCH  19  20
ATOM     20  N   UNL     1      44.183   5.072   9.752  0.00  0.00    +0.000 N 
ATOM     21  H   UNL     1      43.624   5.638   9.116  0.00  0.00    +0.000 HD
BRANCH  20  22
ATOM     22  C   UNL     1      44.985   4.179   9.007  0.00  0.00    +0.000 A 
ATOM     23  N   UNL     1      45.830   4.695   8.086  0.00  0.00    +0.000 NA
ATOM     24  C   UNL     1      46.617   3.844   7.379  0.00  0.00    +0.000 A 
ATOM     25  C   UNL     1      46.619   2.473   7.542  0.00  0.00    +0.000 A 
ATOM     26  C   UNL     1      45.779   1.945   8.524  0.00  0.00    +0.000 A 
ATOM     27  C   UNL     1      44.969   2.801   9.274  0.00  0.00    +0.000 A 
ATOM     28 CL   UNL     1      43.922   2.123  10.469  0.00  0.00    +0.000 Cl
BRANCH  25  29
ATOM     29  C   UNL     1      47.447   1.558   6.721  0.00  0.00    +0.000 C 
ATOM     30  N   UNL     1      48.591   2.031   6.142  0.00  0.00    +0.000 N 
ATOM     31  O   UNL     1      47.109   0.393   6.549  0.00  0.00    +0.000 OA
ATOM     32  H   UNL     1      48.939   2.977   6.181  0.00  0.00    +0.000 HD
ATOM     33  H   UNL     1      49.109   1.376   5.566  0.00  0.00    +0.000 HD
ENDBRANCH  25  29
ENDBRANCH  20  22
ENDBRANCH  19  20
ENDBRANCH   1  19
TORSDOF 8
ENDMDL
MODEL 3
REMARK VINA RESULT:    -7.465      2.936      5.536
REMARK INTER + INTRA:         -12.081
REMARK INTER:                 -10.663
REMARK INTRA:                  -1.418
REMARK UNBOUND:                -1.124
REMARK  Name = 
REMARK  11 active torsions:
REMARK  status: ('A' for Active; 'I' for Inactive)
REMARK    1  A    between atoms: C_1  and  O_2
REMARK    2  A    between atoms: O_2  and  C_3
REMARK    3  A    between atoms: C_5  and  C_6
REMARK    4  A    between atoms: C_8  and  C_9
REMARK    5  A    between atoms: C_9  and  C_10
REMARK    6  A    between atoms: C_9  and  C_11
REMARK    7  A    between atoms: C_11  and  N_12
REMARK    8  A    between atoms: N_12  and  C_13
REMARK    9  A    between atoms: C_16  and  C_17
REMARK   10  A    between atoms: C_24  and  O_25
REMARK   11  A    between atoms: O_25  and  C_26
REMARK                            x       y       z     vdW  Elec       q    Type
REMARK                         _______ _______ _______ _____ _____    ______ ____
ROOT
ATOM      1  C   UNL     1      44.262   4.298  13.016  0.00  0.00    +0.000 C 
ATOM      2  C   UNL     1      42.869   4.914  12.805  0.00  0.00    +0.000 C 
ENDROOT
BRANCH   1   5
ATOM      3  C   UNL     1      46.069   7.671  12.651  0.00  0.00    +0.000 A 
ATOM      4  C   UNL     1      45.084   6.684  12.586  0.00  0.00    +0.000 A 
ATOM      5  C   UNL     1      45.316   5.399  13.087  0.00  0.00    +0.000 A 
ATOM      6  C   UNL     1      46.567   5.164  13.667  0.00  0.00    +0.000 A 
ATOM      7  C   UNL     1      47.488   6.200  13.723  0.00  0.00    +0.000 A 
ATOM      8  N   UNL     1      47.265   7.437  13.232  0.00  0.00    +0.000 NA
BRANCH   3  11
ATOM      9  C   UNL     1      44.485  10.634  10.982  0.00  0.00    +0.000 A 
ATOM     10  C   UNL     1      44.621   9.379  11.550  0.00  0.00    +0.000 A 
ATOM     11  C   UNL     1      45.841   9.034  12.145  0.00  0.00    +0.000 A 
ATOM     12  C   UNL     1      46.836  10.023  12.194  0.00  0.00    +0.000 A 
ATOM     13  C   UNL     1      46.593  11.260  11.624  0.00  0.00    +0.000 A 
ATOM     14  N   UNL     1      45.443  11.585  11.005  0.00  0.00    +0.000 NA
BRANCH   9  16
ATOM     15  C   UNL     1      42.325   9.877  10.605  0.00  0.00    +0.000 C 
ATOM     16  O   UNL     1      43.286  10.895  10.349  0.00  0.00    +0.000 OA
ENDBRANCH   9  16
ENDBRANCH   3  11
BRANCH   7  17
ATOM     17  O   UNL     1      48.693   5.925  14.341  0.00  0.00    +0.000 OA
ATOM     18  C   UNL     1      49.058   6.923  15.293  0.00  0.00    +0.000 C 
ENDBRANCH   7  17
ENDBRANCH   1   5
BRANCH   1  19
ATOM     19  C   UNL     1      44.468   3.232  11.906  0.00  0.00    +0.000 C 
BRANCH  19  20
ATOM     20  N   UNL     1      43.997   3.694  10.591  0.00  0.00    +0.000 N 
ATOM     21  H   UNL     1      43.846   4.701  10.564  0.00  0.00    +0.000 HD
BRANCH  20  22
ATOM     22  C   UNL     1      44.859   3.318   9.537  0.00  0.00    +0.000 A 
ATOM     23  N   UNL     1      44.843   2.030   9.126  0.00  0.00    +0.000 NA
ATOM     24  C   UNL     1      45.656   1.666   8.101  0.00  0.00    +0.000 A 
ATOM     25  C   UNL     1      46.504   2.532   7.439  0.00  0.00    +0.000 A 
ATOM     26  C   UNL     1      46.488   3.870   7.835  0.00  0.00    +0.000 A 
ATOM     27  C   UNL     1      45.649   4.272   8.877  0.00  0.00    +0.000 A 
ATOM     28 CL   UNL     1      45.662   5.929   9.364  0.00  0.00    +0.000 Cl
BRANCH  25  29
ATOM     29  C   UNL     1      47.423   2.101   6.359  0.00  0.00    +0.000 C 
ATOM     30  N   UNL     1      46.977   2.088   5.067  0.00  0.00    +0.000 N 
ATOM     31  O   UNL     1      48.568   1.746   6.616  0.00  0.00    +0.000 OA
ATOM     32  H   UNL     1      46.048   2.317   4.749  0.00  0.00    +0.000 HD
ATOM     33  H   UNL     1      47.632   1.759   4.367  0.00  0.00    +0.000 HD
ENDBRANCH  25  29
ENDBRANCH  20  22
ENDBRANCH  19  20
ENDBRANCH   1  19
TORSDOF 8
ENDMDL
MODEL 4
REMARK VINA RESULT:    -7.443      3.239      8.131
REMARK INTER + INTRA:         -12.048
REMARK INTER:                 -10.806
REMARK INTRA:                  -1.242
REMARK UNBOUND:                -1.124
REMARK  Name = 
REMARK  11 active torsions:
REMARK  status: ('A' for Active; 'I' for Inactive)
REMARK    1  A    between atoms: C_1  and  O_2
REMARK    2  A    between atoms: O_2  and  C_3
REMARK    3  A    between atoms: C_5  and  C_6
REMARK    4  A    between atoms: C_8  and  C_9
REMARK    5  A    between atoms: C_9  and  C_10
REMARK    6  A    between atoms: C_9  and  C_11
REMARK    7  A    between atoms: C_11  and  N_12
REMARK    8  A    between atoms: N_12  and  C_13
REMARK    9  A    between atoms: C_16  and  C_17
REMARK   10  A    between atoms: C_24  and  O_25
REMARK   11  A    between atoms: O_25  and  C_26
REMARK                            x       y       z     vdW  Elec       q    Type
REMARK                         _______ _______ _______ _____ _____    ______ ____
ROOT
ATOM      1  C   UNL     1      49.125   8.031  12.041  0.00  0.00    +0.000 C 
ATOM      2  C   UNL     1      49.550   9.509  12.011  0.00  0.00    +0.000 C 
ENDROOT
BRANCH   1   5
ATOM      3  C   UNL     1      45.556   6.634  11.737  0.00  0.00    +0.000 A 
ATOM      4  C   UNL     1      46.950   6.706  11.781  0.00  0.00    +0.000 A 
ATOM      5  C   UNL     1      47.603   7.923  12.003  0.00  0.00    +0.000 A 
ATOM      6  C   UNL     1      46.794   9.048  12.195  0.00  0.00    +0.000 A 
ATOM      7  C   UNL     1      45.415   8.897  12.166  0.00  0.00    +0.000 A 
ATOM      8  N   UNL     1      44.787   7.725  11.945  0.00  0.00    +0.000 NA
BRANCH   3  11
ATOM      9  C   UNL     1      44.257   3.509  10.119  0.00  0.00    +0.000 A 
ATOM     10  C   UNL     1      45.027   4.639  10.336  0.00  0.00    +0.000 A 
ATOM     11  C   UNL     1      44.848   5.363  11.521  0.00  0.00    +0.000 A 
ATOM     12  C   UNL     1      43.940   4.847  12.459  0.00  0.00    +0.000 A 
ATOM     13  C   UNL     1      43.238   3.692  12.163  0.00  0.00    +0.000 A 
ATOM     14  N   UNL     1      43.366   3.016  11.006  0.00  0.00    +0.000 NA
BRANCH   9  16
ATOM     15  C   UNL     1      45.201   3.660   8.005  0.00  0.00    +0.000 C 
ATOM     16  O   UNL     1      44.425   2.875   8.904  0.00  0.00    +0.000 OA
ENDBRANCH   9  16
ENDBRANCH   3  11
BRANCH   7  17
ATOM     17  O   UNL     1      44.664  10.033  12.401  0.00  0.00    +0.000 OA
ATOM     18  C   UNL     1      44.668  10.929  11.291  0.00  0.00    +0.000 C 
ENDBRANCH   7  17
ENDBRANCH   1   5
BRANCH   1  19
ATOM     19  C   UNL     1      49.821   7.376  13.264  0.00  0.00    +0.000 C 
BRANCH  19  20
ATOM     20  N   UNL     1      49.254   7.833  14.544  0.00  0.00    +0.000 N 
ATOM     21  H   UNL     1      48.478   8.479  14.416  0.00  0.00    +0.000 HD
BRANCH  20  22
ATOM     22  C   UNL     1      48.848   6.766  15.375  0.00  0.00    +0.000 A 
ATOM     23  N   UNL     1      48.094   5.784  14.833  0.00  0.00    +0.000 NA
ATOM     24  C   UNL     1      47.716   4.746  15.622  0.00  0.00    +0.000 A 
ATOM     25  C   UNL     1      48.057   4.620  16.955  0.00  0.00    +0.000 A 
ATOM     26  C   UNL     1      48.872   5.612  17.502  0.00  0.00    +0.000 A 
ATOM     27  C   UNL     1      49.287   6.683  16.706  0.00  0.00    +0.000 A 
ATOM     28 CL   UNL     1      50.278   7.909  17.411  0.00  0.00    +0.000 Cl
BRANCH  25  29
ATOM     29  C   UNL     1      47.587   3.506  17.812  0.00  0.00    +0.000 C 
ATOM     30  N   UNL     1      48.273   3.208  18.956  0.00  0.00    +0.000 N 
ATOM     31  O   UNL     1      46.603   2.846  17.497  0.00  0.00    +0.000 OA
ATOM     32  H   UNL     1      49.116   3.654  19.286  0.00  0.00    +0.000 HD
ATOM     33  H   UNL     1      47.932   2.420  19.494  0.00  0.00    +0.000 HD
ENDBRANCH  25  29
ENDBRANCH  20  22
ENDBRANCH  19  20
ENDBRANCH   1  19
TORSDOF 8
ENDMDL
MODEL 5
REMARK VINA RESULT:    -7.394      3.397      6.162
REMARK INTER + INTRA:         -11.976
REMARK INTER:                 -11.240
REMARK INTRA:                  -0.736
REMARK UNBOUND:                -1.124
REMARK  Name = 
REMARK  11 active torsions:
REMARK  status: ('A' for Active; 'I' for Inactive)
REMARK    1  A    between atoms: C_1  and  O_2
REMARK    2  A    between atoms: O_2  and  C_3
REMARK    3  A    between atoms: C_5  and  C_6
REMARK    4  A    between atoms: C_8  and  C_9
REMARK    5  A    between atoms: C_9  and  C_10
REMARK    6  A    between atoms: C_9  and  C_11
REMARK    7  A    between atoms: C_11  and  N_12
REMARK    8  A    between atoms: N_12  and  C_13
REMARK    9  A    between atoms: C_16  and  C_17
REMARK   10  A    between atoms: C_24  and  O_25
REMARK   11  A    between atoms: O_25  and  C_26
REMARK                            x       y       z     vdW  Elec       q    Type
REMARK                         _______ _______ _______ _____ _____    ______ ____
ROOT
ATOM      1  C   UNL     1      45.448   5.036  11.676  0.00  0.00    +0.000 C 
ATOM      2  C   UNL     1      45.758   4.048  12.814  0.00  0.00    +0.000 C 
ENDROOT
BRANCH   1   5
ATOM      3  C   UNL     1      45.490   8.866  12.004  0.00  0.00    +0.000 A 
ATOM      4  C   UNL     1      45.132   7.575  11.609  0.00  0.00    +0.000 A 
ATOM      5  C   UNL     1      45.810   6.456  12.103  0.00  0.00    +0.000 A 
ATOM      6  C   UNL     1      46.840   6.694  13.018  0.00  0.00    +0.000 A 
ATOM      7  C   UNL     1      47.121   8.002  13.388  0.00  0.00    +0.000 A 
ATOM      8  N   UNL     1      46.473   9.080  12.904  0.00  0.00    +0.000 NA
BRANCH   3  11
ATOM      9  C   UNL     1      43.032  11.062  10.212  0.00  0.00    +0.000 A 
ATOM     10  C   UNL     1      43.606   9.927  10.758  0.00  0.00    +0.000 A 
ATOM     11  C   UNL     1      44.781  10.057  11.509  0.00  0.00    +0.000 A 
ATOM     12  C   UNL     1      45.266  11.355  11.725  0.00  0.00    +0.000 A 
ATOM     13  C   UNL     1      44.603  12.432  11.162  0.00  0.00    +0.000 A 
ATOM     14  N   UNL     1      43.502  12.314  10.397  0.00  0.00    +0.000 NA
BRANCH   9  16
ATOM     15  C   UNL     1      40.714  10.963  10.182  0.00  0.00    +0.000 C 
ATOM     16  O   UNL     1      41.915  10.867   9.424  0.00  0.00    +0.000 OA
ENDBRANCH   9  16
ENDBRANCH   3  11
BRANCH   7  17
ATOM     17  O   UNL     1      48.122   8.178  14.325  0.00  0.00    +0.000 OA
ATOM     18  C   UNL     1      49.238   7.320  14.099  0.00  0.00    +0.000 C 
ENDBRANCH   7  17
ENDBRANCH   1   5
BRANCH   1  19
ATOM     19  C   UNL     1      43.972   4.808  11.257  0.00  0.00    +0.000 C 
BRANCH  19  20
ATOM     20  N   UNL     1      43.785   4.879   9.799  0.00  0.00    +0.000 N 
ATOM     21  H   UNL     1      43.811   5.835   9.450  0.00  0.00    +0.000 HD
BRANCH  20  22
ATOM     22  C   UNL     1      44.719   4.093   9.088  0.00  0.00    +0.000 A 
ATOM     23  N   UNL     1      45.554   4.715   8.226  0.00  0.00    +0.000 NA
ATOM     24  C   UNL     1      46.467   3.968   7.553  0.00  0.00    +0.000 A 
ATOM     25  C   UNL     1      46.607   2.601   7.695  0.00  0.00    +0.000 A 
ATOM     26  C   UNL     1      45.774   1.966   8.617  0.00  0.00    +0.000 A 
ATOM     27  C   UNL     1      44.836   2.716   9.333  0.00  0.00    +0.000 A 
ATOM     28 CL   UNL     1      43.802   1.904  10.453  0.00  0.00    +0.000 Cl
BRANCH  25  29
ATOM     29  C   UNL     1      47.573   1.798   6.910  0.00  0.00    +0.000 C 
ATOM     30  N   UNL     1      48.680   2.406   6.388  0.00  0.00    +0.000 N 
ATOM     31  O   UNL     1      47.381   0.603   6.716  0.00  0.00    +0.000 OA
ATOM     32  H   UNL     1      48.914   3.385   6.449  0.00  0.00    +0.000 HD
ATOM     33  H   UNL     1      49.297   1.822   5.835  0.00  0.00    +0.000 HD
ENDBRANCH  25  29
ENDBRANCH  20  22
ENDBRANCH  19  20
ENDBRANCH   1  19
TORSDOF 8
ENDMDL
MODEL 6
REMARK VINA RESULT:    -7.347      3.010      8.234
REMARK INTER + INTRA:         -11.907
REMARK INTER:                 -10.786
REMARK INTRA:                  -1.121
REMARK UNBOUND:                -1.124
REMARK  Name = 
REMARK  11 active torsions:
REMARK  status: ('A' for Active; 'I' for Inactive)
REMARK    1  A    between atoms: C_1  and  O_2
REMARK    2  A    between atoms: O_2  and  C_3
REMARK    3  A    between atoms: C_5  and  C_6
REMARK    4  A    between atoms: C_8  and  C_9
REMARK    5  A    between atoms: C_9  and  C_10
REMARK    6  A    between atoms: C_9  and  C_11
REMARK    7  A    between atoms: C_11  and  N_12
REMARK    8  A    between atoms: N_12  and  C_13
REMARK    9  A    between atoms: C_16  and  C_17
REMARK   10  A    between atoms: C_24  and  O_25
REMARK   11  A    between atoms: O_25  and  C_26
REMARK                            x       y       z     vdW  Elec       q    Type
REMARK                         _______ _______ _______ _____ _____    ______ ____
ROOT
ATOM      1  C   UNL     1      48.922   6.926  14.415  0.00  0.00    +0.000 C 
ATOM      2  C   UNL     1      50.027   7.730  13.709  0.00  0.00    +0.000 C 
ENDROOT
BRANCH   1   5
ATOM      3  C   UNL     1      45.782   6.038  12.383  0.00  0.00    +0.000 A 
ATOM      4  C   UNL     1      46.970   5.912  13.106  0.00  0.00    +0.000 A 
ATOM      5  C   UNL     1      47.616   7.035  13.634  0.00  0.00    +0.000 A 
ATOM      6  C   UNL     1      47.005   8.274  13.418  0.00  0.00    +0.000 A 
ATOM      7  C   UNL     1      45.809   8.321  12.716  0.00  0.00    +0.000 A 
ATOM      8  N   UNL     1      45.192   7.238  12.200  0.00  0.00    +0.000 NA
BRANCH   3  11
ATOM      9  C   UNL     1      44.369   3.543   9.964  0.00  0.00    +0.000 A 
ATOM     10  C   UNL     1      45.137   4.581  10.463  0.00  0.00    +0.000 A 
ATOM     11  C   UNL     1      45.078   4.869  11.832  0.00  0.00    +0.000 A 
ATOM     12  C   UNL     1      44.291   4.028  12.634  0.00  0.00    +0.000 A 
ATOM     13  C   UNL     1      43.583   2.995  12.045  0.00  0.00    +0.000 A 
ATOM     14  N   UNL     1      43.592   2.741  10.723  0.00  0.00    +0.000 NA
BRANCH   9  16
ATOM     15  C   UNL     1      45.650   2.778   8.188  0.00  0.00    +0.000 C 
ATOM     16  O   UNL     1      44.411   3.348   8.598  0.00  0.00    +0.000 OA
ENDBRANCH   9  16
ENDBRANCH   3  11
BRANCH   7  17
ATOM     17  O   UNL     1      45.228   9.566  12.566  0.00  0.00    +0.000 OA
ATOM     18  C   UNL     1      44.396   9.644  11.409  0.00  0.00    +0.000 C 
ENDBRANCH   7  17
ENDBRANCH   1   5
BRANCH   1  19
ATOM     19  C   UNL     1      48.873   7.407  15.890  0.00  0.00    +0.000 C 
BRANCH  19  20
ATOM     20  N   UNL     1      48.274   6.406  16.787  0.00  0.00    +0.000 N 
ATOM     21  H   UNL     1      47.370   6.077  16.453  0.00  0.00    +0.000 HD
BRANCH  20  22
ATOM     22  C   UNL     1      49.123   5.301  17.019  0.00  0.00    +0.000 A 
ATOM     23  N   UNL     1      50.437   5.537  17.229  0.00  0.00    +0.000 NA
ATOM     24  C   UNL     1      51.255   4.480  17.471  0.00  0.00    +0.000 A 
ATOM     25  C   UNL     1      50.831   3.167  17.523  0.00  0.00    +0.000 A 
ATOM     26  C   UNL     1      49.467   2.929  17.350  0.00  0.00    +0.000 A 
ATOM     27  C   UNL     1      48.602   4.001  17.114  0.00  0.00    +0.000 A 
ATOM     28 CL   UNL     1      46.921   3.679  16.881  0.00  0.00    +0.000 Cl
BRANCH  25  29
ATOM     29  C   UNL     1      51.750   2.024  17.735  0.00  0.00    +0.000 C 
ATOM     30  N   UNL     1      52.770   2.144  18.636  0.00  0.00    +0.000 N 
ATOM     31  O   UNL     1      51.612   0.984  17.101  0.00  0.00    +0.000 OA
ATOM     32  H   UNL     1      53.002   2.964  19.177  0.00  0.00    +0.000 HD
ATOM     33  H   UNL     1      53.390   1.347  18.726  0.00  0.00    +0.000 HD
ENDBRANCH  25  29
ENDBRANCH  20  22
ENDBRANCH  19  20
ENDBRANCH   1  19
TORSDOF 8
ENDMDL
MODEL 7
REMARK VINA RESULT:    -7.008      3.229      8.155
REMARK INTER + INTRA:         -11.409
REMARK INTER:                 -10.157
REMARK INTRA:                  -1.253
REMARK UNBOUND:                -1.124
REMARK  Name = 
REMARK  11 active torsions:
REMARK  status: ('A' for Active; 'I' for Inactive)
REMARK    1  A    between atoms: C_1  and  O_2
REMARK    2  A    between atoms: O_2  and  C_3
REMARK    3  A    between atoms: C_5  and  C_6
REMARK    4  A    between atoms: C_8  and  C_9
REMARK    5  A    between atoms: C_9  and  C_10
REMARK    6  A    between atoms: C_9  and  C_11
REMARK    7  A    between atoms: C_11  and  N_12
REMARK    8  A    between atoms: N_12  and  C_13
REMARK    9  A    between atoms: C_16  and  C_17
REMARK   10  A    between atoms: C_24  and  O_25
REMARK   11  A    between atoms: O_25  and  C_26
REMARK                            x       y       z     vdW  Elec       q    Type
REMARK                         _______ _______ _______ _____ _____    ______ ____
ROOT
ATOM      1  C   UNL     1      49.339   8.288  12.284  0.00  0.00    +0.000 C 
ATOM      2  C   UNL     1      49.656   9.783  12.459  0.00  0.00    +0.000 C 
ENDROOT
BRANCH   1   5
ATOM      3  C   UNL     1      45.994   6.816  11.093  0.00  0.00    +0.000 A 
ATOM      4  C   UNL     1      47.358   6.962  11.351  0.00  0.00    +0.000 A 
ATOM      5  C   UNL     1      47.852   8.098  12.002  0.00  0.00    +0.000 A 
ATOM      6  C   UNL     1      46.914   9.059  12.394  0.00  0.00    +0.000 A 
ATOM      7  C   UNL     1      45.571   8.834  12.130  0.00  0.00    +0.000 A 
ATOM      8  N   UNL     1      45.097   7.742  11.495  0.00  0.00    +0.000 NA
BRANCH   3  11
ATOM      9  C   UNL     1      44.169   3.598  10.473  0.00  0.00    +0.000 A 
ATOM     10  C   UNL     1      44.567   4.769  11.093  0.00  0.00    +0.000 A 
ATOM     11  C   UNL     1      45.451   5.624  10.423  0.00  0.00    +0.000 A 
ATOM     12  C   UNL     1      45.823   5.269   9.117  0.00  0.00    +0.000 A 
ATOM     13  C   UNL     1      45.347   4.090   8.571  0.00  0.00    +0.000 A 
ATOM     14  N   UNL     1      44.537   3.237   9.226  0.00  0.00    +0.000 NA
BRANCH   9  16
ATOM     15  C   UNL     1      43.400   3.068  12.597  0.00  0.00    +0.000 C 
ATOM     16  O   UNL     1      43.353   2.760  11.208  0.00  0.00    +0.000 OA
ENDBRANCH   9  16
ENDBRANCH   3  11
BRANCH   7  17
ATOM     17  O   UNL     1      44.683   9.796  12.574  0.00  0.00    +0.000 OA
ATOM     18  C   UNL     1      43.890  10.335  11.518  0.00  0.00    +0.000 C 
ENDBRANCH   7  17
ENDBRANCH   1   5
BRANCH   1  19
ATOM     19  C   UNL     1      49.895   7.550  13.531  0.00  0.00    +0.000 C 
BRANCH  19  20
ATOM     20  N   UNL     1      49.198   7.937  14.768  0.00  0.00    +0.000 N 
ATOM     21  H   UNL     1      48.388   8.529  14.589  0.00  0.00    +0.000 HD
BRANCH  20  22
ATOM     22  C   UNL     1      48.806   6.827  15.547  0.00  0.00    +0.000 A 
ATOM     23  N   UNL     1      48.124   5.829  14.942  0.00  0.00    +0.000 NA
ATOM     24  C   UNL     1      47.761   4.749  15.680  0.00  0.00    +0.000 A 
ATOM     25  C   UNL     1      48.049   4.595  17.022  0.00  0.00    +0.000 A 
ATOM     26  C   UNL     1      48.791   5.605  17.636  0.00  0.00    +0.000 A 
ATOM     27  C   UNL     1      49.189   6.720  16.893  0.00  0.00    +0.000 A 
ATOM     28 CL   UNL     1      50.089   7.967  17.681  0.00  0.00    +0.000 Cl
BRANCH  25  29
ATOM     29  C   UNL     1      47.596   3.433  17.823  0.00  0.00    +0.000 C 
ATOM     30  N   UNL     1      48.308   3.065  18.929  0.00  0.00    +0.000 N 
ATOM     31  O   UNL     1      46.601   2.797  17.494  0.00  0.00    +0.000 OA
ATOM     32  H   UNL     1      49.161   3.487  19.264  0.00  0.00    +0.000 HD
ATOM     33  H   UNL     1      47.976   2.247  19.428  0.00  0.00    +0.000 HD
ENDBRANCH  25  29
ENDBRANCH  20  22
ENDBRANCH  19  20
ENDBRANCH   1  19
TORSDOF 8
ENDMDL
MODEL 8
REMARK VINA RESULT:    -6.967      2.002      2.732
REMARK INTER + INTRA:         -11.349
REMARK INTER:                 -10.672
REMARK INTRA:                  -0.676
REMARK UNBOUND:                -1.124
REMARK  Name = 
REMARK  11 active torsions:
REMARK  status: ('A' for Active; 'I' for Inactive)
REMARK    1  A    between atoms: C_1  and  O_2
REMARK    2  A    between atoms: O_2  and  C_3
REMARK    3  A    between atoms: C_5  and  C_6
REMARK    4  A    between atoms: C_8  and  C_9
REMARK    5  A    between atoms: C_9  and  C_10
REMARK    6  A    between atoms: C_9  and  C_11
REMARK    7  A    between atoms: C_11  and  N_12
REMARK    8  A    between atoms: N_12  and  C_13
REMARK    9  A    between atoms: C_16  and  C_17
REMARK   10  A    between atoms: C_24  and  O_25
REMARK   11  A    between atoms: O_25  and  C_26
REMARK                            x       y       z     vdW  Elec       q    Type
REMARK                         _______ _______ _______ _____ _____    ______ ____
ROOT
ATOM      1  C   UNL     1      45.537   4.679  11.666  0.00  0.00    +0.000 C 
ATOM      2  C   UNL     1      45.766   3.483  12.606  0.00  0.00    +0.000 C 
ENDROOT
BRANCH   1   5
ATOM      3  C   UNL     1      47.667   7.155  13.694  0.00  0.00    +0.000 A 
ATOM      4  C   UNL     1      47.213   5.973  13.104  0.00  0.00    +0.000 A 
ATOM      5  C   UNL     1      46.062   5.959  12.310  0.00  0.00    +0.000 A 
ATOM      6  C   UNL     1      45.408   7.181  12.124  0.00  0.00    +0.000 A 
ATOM      7  C   UNL     1      45.932   8.321  12.716  0.00  0.00    +0.000 A 
ATOM      8  N   UNL     1      47.038   8.332  13.489  0.00  0.00    +0.000 NA
BRANCH   3  11
ATOM      9  C   UNL     1      50.045   6.705  16.560  0.00  0.00    +0.000 A 
ATOM     10  C   UNL     1      48.926   6.548  15.760  0.00  0.00    +0.000 A 
ATOM     11  C   UNL     1      48.884   7.196  14.520  0.00  0.00    +0.000 A 
ATOM     12  C   UNL     1      50.025   7.913  14.129  0.00  0.00    +0.000 A 
ATOM     13  C   UNL     1      51.109   7.987  14.987  0.00  0.00    +0.000 A 
ATOM     14  N   UNL     1      51.140   7.410  16.203  0.00  0.00    +0.000 NA
BRANCH   9  16
ATOM     15  C   UNL     1      48.666   5.948  18.265  0.00  0.00    +0.000 C 
ATOM     16  O   UNL     1      50.003   6.101  17.801  0.00  0.00    +0.000 OA
ENDBRANCH   9  16
ENDBRANCH   3  11
BRANCH   7  17
ATOM     17  O   UNL     1      45.270   9.508  12.468  0.00  0.00    +0.000 OA
ATOM     18  C   UNL     1      44.421   9.430  11.324  0.00  0.00    +0.000 C 
ENDBRANCH   7  17
ENDBRANCH   1   5
BRANCH   1  19
ATOM     19  C   UNL     1      44.034   4.681  11.279  0.00  0.00    +0.000 C 
BRANCH  19  20
ATOM     20  N   UNL     1      43.827   4.877   9.835  0.00  0.00    +0.000 N 
ATOM     21  H   UNL     1      43.820   5.862   9.574  0.00  0.00    +0.000 HD
BRANCH  20  22
ATOM     22  C   UNL     1      44.773   4.187   9.047  0.00  0.00    +0.000 A 
ATOM     23  N   UNL     1      45.639   4.913   8.305  0.00  0.00    +0.000 NA
ATOM     24  C   UNL     1      46.565   4.256   7.560  0.00  0.00    +0.000 A 
ATOM     25  C   UNL     1      46.687   2.881   7.510  0.00  0.00    +0.000 A 
ATOM     26  C   UNL     1      45.821   2.134   8.310  0.00  0.00    +0.000 A 
ATOM     27  C   UNL     1      44.870   2.787   9.097  0.00  0.00    +0.000 A 
ATOM     28 CL   UNL     1      43.795   1.840  10.062  0.00  0.00    +0.000 Cl
BRANCH  25  29
ATOM     29  C   UNL     1      47.668   2.183   6.646  0.00  0.00    +0.000 C 
ATOM     30  N   UNL     1      48.081   2.778   5.488  0.00  0.00    +0.000 N 
ATOM     31  O   UNL     1      48.098   1.078   6.955  0.00  0.00    +0.000 OA
ATOM     32  H   UNL     1      47.762   3.660   5.117  0.00  0.00    +0.000 HD
ATOM     33  H   UNL     1      48.731   2.250   4.916  0.00  0.00    +0.000 HD
ENDBRANCH  25  29
ENDBRANCH  20  22
ENDBRANCH  19  20
ENDBRANCH   1  19
TORSDOF 8
ENDMDL
MODEL 9
REMARK VINA RESULT:    -6.637      3.122      3.930
REMARK INTER + INTRA:         -10.865
REMARK INTER:                 -10.181
REMARK INTRA:                  -0.683
REMARK UNBOUND:                -1.124
REMARK  Name = 
REMARK  11 active torsions:
REMARK  status: ('A' for Active; 'I' for Inactive)
REMARK    1  A    between atoms: C_1  and  O_2
REMARK    2  A    between atoms: O_2  and  C_3
REMARK    3  A    between atoms: C_5  and  C_6
REMARK    4  A    between atoms: C_8  and  C_9
REMARK    5  A    between atoms: C_9  and  C_10
REMARK    6  A    between atoms: C_9  and  C_11
REMARK    7  A    between atoms: C_11  and  N_12
REMARK    8  A    between atoms: N_12  and  C_13
REMARK    9  A    between atoms: C_16  and  C_17
REMARK   10  A    between atoms: C_24  and  O_25
REMARK   11  A    between atoms: O_25  and  C_26
REMARK                            x       y       z     vdW  Elec       q    Type
REMARK                         _______ _______ _______ _____ _____    ______ ____
ROOT
ATOM      1  C   UNL     1      45.554   5.428  11.918  0.00  0.00    +0.000 C 
ATOM      2  C   UNL     1      45.797   4.392  13.029  0.00  0.00    +0.000 C 
ENDROOT
BRANCH   1   5
ATOM      3  C   UNL     1      48.139   7.964  13.210  0.00  0.00    +0.000 A 
ATOM      4  C   UNL     1      47.510   6.756  12.901  0.00  0.00    +0.000 A 
ATOM      5  C   UNL     1      46.270   6.734  12.254  0.00  0.00    +0.000 A 
ATOM      6  C   UNL     1      45.709   7.971  11.921  0.00  0.00    +0.000 A 
ATOM      7  C   UNL     1      46.404   9.130  12.233  0.00  0.00    +0.000 A 
ATOM      8  N   UNL     1      47.596   9.151  12.863  0.00  0.00    +0.000 NA
BRANCH   3  11
ATOM      9  C   UNL     1      51.736   8.733  13.946  0.00  0.00    +0.000 A 
ATOM     10  C   UNL     1      50.484   8.803  13.361  0.00  0.00    +0.000 A 
ATOM     11  C   UNL     1      49.450   8.011  13.876  0.00  0.00    +0.000 A 
ATOM     12  C   UNL     1      49.735   7.242  15.015  0.00  0.00    +0.000 A 
ATOM     13  C   UNL     1      51.013   7.262  15.547  0.00  0.00    +0.000 A 
ATOM     14  N   UNL     1      52.026   7.981  15.029  0.00  0.00    +0.000 NA
BRANCH   9  16
ATOM     15  C   UNL     1      54.026   9.077  13.797  0.00  0.00    +0.000 C 
ATOM     16  O   UNL     1      52.734   9.482  13.355  0.00  0.00    +0.000 OA
ENDBRANCH   9  16
ENDBRANCH   3  11
BRANCH   7  17
ATOM     17  O   UNL     1      45.824  10.323  11.845  0.00  0.00    +0.000 OA
ATOM     18  C   UNL     1      44.402  10.237  11.763  0.00  0.00    +0.000 C 
ENDBRANCH   7  17
ENDBRANCH   1   5
BRANCH   1  19
ATOM     19  C   UNL     1      44.020   5.530  11.709  0.00  0.00    +0.000 C 
BRANCH  19  20
ATOM     20  N   UNL     1      43.634   5.366  10.298  0.00  0.00    +0.000 N 
ATOM     21  H   UNL     1      43.707   6.235   9.772  0.00  0.00    +0.000 HD
BRANCH  20  22
ATOM     22  C   UNL     1      44.371   4.355   9.643  0.00  0.00    +0.000 A 
ATOM     23  N   UNL     1      45.231   4.722   8.666  0.00  0.00    +0.000 NA
ATOM     24  C   UNL     1      45.957   3.757   8.044  0.00  0.00    +0.000 A 
ATOM     25  C   UNL     1      45.879   2.412   8.348  0.00  0.00    +0.000 A 
ATOM     26  C   UNL     1      45.023   2.039   9.385  0.00  0.00    +0.000 A 
ATOM     27  C   UNL     1      44.277   3.015  10.050  0.00  0.00    +0.000 A 
ATOM     28 CL   UNL     1      43.209   2.527  11.317  0.00  0.00    +0.000 Cl
BRANCH  25  29
ATOM     29  C   UNL     1      46.640   1.369   7.619  0.00  0.00    +0.000 C 
ATOM     30  N   UNL     1      47.391   1.726   6.534  0.00  0.00    +0.000 N 
ATOM     31  O   UNL     1      46.589   0.197   7.971  0.00  0.00    +0.000 OA
ATOM     32  H   UNL     1      47.470   2.648   6.134  0.00  0.00    +0.000 HD
ATOM     33  H   UNL     1      47.871   0.974   6.051  0.00  0.00    +0.000 HD
ENDBRANCH  25  29
ENDBRANCH  20  22
ENDBRANCH  19  20
ENDBRANCH   1  19
TORSDOF 8
ENDMDL
