MODEL 1
REMARK VINA RESULT:    -8.638      0.000      0.000
REMARK INTER + INTRA:         -12.547
REMARK INTER:                 -11.668
REMARK INTRA:                  -0.879
REMARK UNBOUND:                -0.879
REMARK  Name = 
REMARK  6 active torsions:
REMARK  status: ('A' for Active; 'I' for Inactive)
REMARK    1  A    between atoms: C_4  and  C_5
REMARK    2  A    between atoms: C_9  and  N_10
REMARK    3  A    between atoms: N_10  and  C_11
REMARK    4  A    between atoms: C_11  and  C_12
REMARK    5  A    between atoms: C_16  and  C_17
REMARK    6  A    between atoms: C_24  and  C_25
REMARK                            x       y       z     vdW  Elec       q    Type
REMARK                         _______ _______ _______ _____ _____    ______ ____
ROOT
ATOM      1  C   UNL     1      46.300   6.127  12.828  0.00  0.00    +0.000 A 
ATOM      2  C   UNL     1      47.273   5.712  13.737  0.00  0.00    +0.000 A 
ATOM      3  N   UNL     1      47.497   4.429  14.104  0.00  0.00    +0.000 NA
ATOM      4  C   UNL     1      46.694   3.495  13.544  0.00  0.00    +0.000 A 
ATOM      5  C   UNL     1      45.652   3.760  12.657  0.00  0.00    +0.000 A 
ATOM      6  C   UNL     1      45.498   5.103  12.287  0.00  0.00    +0.000 A 
ENDROOT
BRANCH   1  10
ATOM      7  F   UNL     1      47.949  10.706  12.487  0.00  0.00    +0.000 F 
ATOM      8  C   UNL     1      46.960   9.826  12.277  0.00  0.00    +0.000 A 
ATOM      9  C   UNL     1      47.144   8.494  12.639  0.00  0.00    +0.000 A 
ATOM     10  C   UNL     1      46.124   7.547  12.445  0.00  0.00    +0.000 A 
ATOM     11  C   UNL     1      44.924   8.006  11.866  0.00  0.00    +0.000 A 
ATOM     12  C   UNL     1      44.737   9.350  11.486  0.00  0.00    +0.000 A 
ATOM     13  C   UNL     1      45.775  10.262  11.705  0.00  0.00    +0.000 A 
BRANCH  12  14
ATOM     14  C   UNL     1      43.447   9.810  10.857  0.00  0.00    +0.000 C 
ATOM     15  F   UNL     1      42.537   8.809  10.689  0.00  0.00    +0.000 F 
ATOM     16  F   UNL     1      42.819  10.764  11.599  0.00  0.00    +0.000 F 
ATOM     17  F   UNL     1      43.633  10.355   9.624  0.00  0.00    +0.000 F 
ENDBRANCH  12  14
ENDBRANCH   1  10
BRANCH   5  18
ATOM     18  N   UNL     1      44.914   2.723  12.094  0.00  0.00    +0.000 N 
ATOM     19  H   UNL     1      44.520   2.068  12.765  0.00  0.00    +0.000 HD
BRANCH  18  20
ATOM     20  C   UNL     1      44.040   2.949  10.945  0.00  0.00    +0.000 C 
BRANCH  20  21
ATOM     21  C   UNL     1      44.841   3.129   9.676  0.00  0.00    +0.000 A 
ATOM     22  C   UNL     1      45.043   4.414   9.154  0.00  0.00    +0.000 A 
ATOM     23  C   UNL     1      45.827   4.605   8.014  0.00  0.00    +0.000 A 
ATOM     24  C   UNL     1      46.437   3.515   7.391  0.00  0.00    +0.000 A 
ATOM     25  C   UNL     1      46.269   2.223   7.902  0.00  0.00    +0.000 A 
ATOM     26  C   UNL     1      45.467   2.043   9.040  0.00  0.00    +0.000 A 
BRANCH  25  27
ATOM     27  C   UNL     1      46.943   1.029   7.274  0.00  0.00    +0.000 C 
ATOM     28  F   UNL     1      46.559  -0.161   7.814  0.00  0.00    +0.000 F 
ATOM     29  F   UNL     1      46.680   0.931   5.939  0.00  0.00    +0.000 F 
ATOM     30  F   UNL     1      48.299   1.070   7.386  0.00  0.00    +0.000 F 
ENDBRANCH  25  27
ENDBRANCH  20  21
ENDBRANCH  18  20
ENDBRANCH   5  18
TORSDOF 6
ENDMDL
MODEL 2
REMARK VINA RESULT:    -8.211      0.597      2.481
REMARK INTER + INTRA:         -11.970
REMARK INTER:                 -11.281
REMARK INTRA:                  -0.689
REMARK UNBOUND:                -0.879
REMARK  Name = 
REMARK  6 active torsions:
REMARK  status: ('A' for Active; 'I' for Inactive)
REMARK    1  A    between atoms: C_4  and  C_5
REMARK    2  A    between atoms: C_9  and  N_10
REMARK    3  A    between atoms: N_10  and  C_11
REMARK    4  A    between atoms: C_11  and  C_12
REMARK    5  A    between atoms: C_16  and  C_17
REMARK    6  A    between atoms: C_24  and  C_25
REMARK                            x       y       z     vdW  Elec       q    Type
REMARK                         _______ _______ _______ _____ _____    ______ ____
ROOT
ATOM      1  C   UNL     1      46.147   6.148  12.685  0.00  0.00    +0.000 A 
ATOM      2  C   UNL     1      47.156   5.744  13.559  0.00  0.00    +0.000 A 
ATOM      3  N   UNL     1      47.405   4.464  13.921  0.00  0.00    +0.000 NA
ATOM      4  C   UNL     1      46.591   3.522  13.392  0.00  0.00    +0.000 A 
ATOM      5  C   UNL     1      45.514   3.775  12.543  0.00  0.00    +0.000 A 
ATOM      6  C   UNL     1      45.335   5.116  12.176  0.00  0.00    +0.000 A 
ENDROOT
BRANCH   1  10
ATOM      7  F   UNL     1      43.377   9.751  10.912  0.00  0.00    +0.000 F 
ATOM      8  C   UNL     1      44.551   9.355  11.423  0.00  0.00    +0.000 A 
ATOM      9  C   UNL     1      44.724   8.020  11.779  0.00  0.00    +0.000 A 
ATOM     10  C   UNL     1      45.945   7.565  12.306  0.00  0.00    +0.000 A 
ATOM     11  C   UNL     1      46.971   8.519  12.460  0.00  0.00    +0.000 A 
ATOM     12  C   UNL     1      46.798   9.874  12.113  0.00  0.00    +0.000 A 
ATOM     13  C   UNL     1      45.569  10.282  11.584  0.00  0.00    +0.000 A 
BRANCH  12  14
ATOM     14  C   UNL     1      47.909  10.875  12.301  0.00  0.00    +0.000 C 
ATOM     15  F   UNL     1      48.717  11.000  11.210  0.00  0.00    +0.000 F 
ATOM     16  F   UNL     1      47.442  12.126  12.563  0.00  0.00    +0.000 F 
ATOM     17  F   UNL     1      48.731  10.555  13.338  0.00  0.00    +0.000 F 
ENDBRANCH  12  14
ENDBRANCH   1  10
BRANCH   5  18
ATOM     18  N   UNL     1      44.765   2.730  12.009  0.00  0.00    +0.000 N 
ATOM     19  H   UNL     1      44.316   2.134  12.699  0.00  0.00    +0.000 HD
BRANCH  18  20
ATOM     20  C   UNL     1      43.957   2.912  10.806  0.00  0.00    +0.000 C 
BRANCH  20  21
ATOM     21  C   UNL     1      44.828   3.120   9.589  0.00  0.00    +0.000 A 
ATOM     22  C   UNL     1      45.069   4.417   9.115  0.00  0.00    +0.000 A 
ATOM     23  C   UNL     1      45.916   4.632   8.026  0.00  0.00    +0.000 A 
ATOM     24  C   UNL     1      46.551   3.555   7.407  0.00  0.00    +0.000 A 
ATOM     25  C   UNL     1      46.345   2.250   7.871  0.00  0.00    +0.000 A 
ATOM     26  C   UNL     1      45.480   2.046   8.958  0.00  0.00    +0.000 A 
BRANCH  25  27
ATOM     27  C   UNL     1      47.044   1.068   7.247  0.00  0.00    +0.000 C 
ATOM     28  F   UNL     1      46.754  -0.117   7.850  0.00  0.00    +0.000 F 
ATOM     29  F   UNL     1      46.712   0.907   5.935  0.00  0.00    +0.000 F 
ATOM     30  F   UNL     1      48.400   1.181   7.278  0.00  0.00    +0.000 F 
ENDBRANCH  25  27
ENDBRANCH  20  21
ENDBRANCH  18  20
ENDBRANCH   5  18
TORSDOF 6
ENDMDL
MODEL 3
REMARK VINA RESULT:    -8.106      3.941      7.596
REMARK INTER + INTRA:         -11.828
REMARK INTER:                 -10.699
REMARK INTRA:                  -1.129
REMARK UNBOUND:                -0.879
REMARK  Name = 
REMARK  6 active torsions:
REMARK  status: ('A' for Active; 'I' for Inactive)
REMARK    1  A    between atoms: C_4  and  C_5
REMARK    2  A    between atoms: C_9  and  N_10
REMARK    3  A    between atoms: N_10  and  C_11
REMARK    4  A    between atoms: C_11  and  C_12
REMARK    5  A    between atoms: C_16  and  C_17
REMARK    6  A    between atoms: C_24  and  C_25
REMARK                            x       y       z     vdW  Elec       q    Type
REMARK                         _______ _______ _______ _____ _____    ______ ____
ROOT
ATOM      1  C   UNL     1      45.029   6.889  11.556  0.00  0.00    +0.000 A 
ATOM      2  C   UNL     1      44.380   8.020  11.063  0.00  0.00    +0.000 A 
ATOM      3  N   UNL     1      44.555   9.281  11.523  0.00  0.00    +0.000 NA
ATOM      4  C   UNL     1      45.421   9.429  12.551  0.00  0.00    +0.000 A 
ATOM      5  C   UNL     1      46.109   8.391  13.179  0.00  0.00    +0.000 A 
ATOM      6  C   UNL     1      45.914   7.117  12.629  0.00  0.00    +0.000 A 
ENDROOT
BRANCH   1  10
ATOM      7  F   UNL     1      42.990   2.460  11.696  0.00  0.00    +0.000 F 
ATOM      8  C   UNL     1      43.789   3.333  11.068  0.00  0.00    +0.000 A 
ATOM      9  C   UNL     1      43.975   4.601  11.613  0.00  0.00    +0.000 A 
ATOM     10  C   UNL     1      44.816   5.539  10.989  0.00  0.00    +0.000 A 
ATOM     11  C   UNL     1      45.447   5.137   9.794  0.00  0.00    +0.000 A 
ATOM     12  C   UNL     1      45.253   3.860   9.231  0.00  0.00    +0.000 A 
ATOM     13  C   UNL     1      44.414   2.955   9.890  0.00  0.00    +0.000 A 
BRANCH  12  14
ATOM     14  C   UNL     1      45.931   3.463   7.945  0.00  0.00    +0.000 C 
ATOM     15  F   UNL     1      46.573   2.263   8.019  0.00  0.00    +0.000 F 
ATOM     16  F   UNL     1      45.057   3.355   6.908  0.00  0.00    +0.000 F 
ATOM     17  F   UNL     1      46.872   4.365   7.551  0.00  0.00    +0.000 F 
ENDBRANCH  12  14
ENDBRANCH   1  10
BRANCH   5  18
ATOM     18  N   UNL     1      47.020   8.653  14.198  0.00  0.00    +0.000 N 
ATOM     19  H   UNL     1      46.607   8.758  15.121  0.00  0.00    +0.000 HD
BRANCH  18  20
ATOM     20  C   UNL     1      48.327   8.001  14.234  0.00  0.00    +0.000 C 
BRANCH  20  21
ATOM     21  C   UNL     1      48.464   7.117  15.452  0.00  0.00    +0.000 A 
ATOM     22  C   UNL     1      48.807   7.679  16.689  0.00  0.00    +0.000 A 
ATOM     23  C   UNL     1      48.883   6.885  17.836  0.00  0.00    +0.000 A 
ATOM     24  C   UNL     1      48.598   5.522  17.766  0.00  0.00    +0.000 A 
ATOM     25  C   UNL     1      48.232   4.937  16.548  0.00  0.00    +0.000 A 
ATOM     26  C   UNL     1      48.173   5.742  15.400  0.00  0.00    +0.000 A 
BRANCH  25  27
ATOM     27  C   UNL     1      47.883   3.473  16.446  0.00  0.00    +0.000 C 
ATOM     28  F   UNL     1      47.486   3.093  15.200  0.00  0.00    +0.000 F 
ATOM     29  F   UNL     1      48.937   2.667  16.760  0.00  0.00    +0.000 F 
ATOM     30  F   UNL     1      46.873   3.112  17.285  0.00  0.00    +0.000 F 
ENDBRANCH  25  27
ENDBRANCH  20  21
ENDBRANCH  18  20
ENDBRANCH   5  18
TORSDOF 6
ENDMDL
MODEL 4
REMARK VINA RESULT:    -8.039      1.903      3.559
REMARK INTER + INTRA:         -11.737
REMARK INTER:                 -10.939
REMARK INTRA:                  -0.798
REMARK UNBOUND:                -0.879
REMARK  Name = 
REMARK  6 active torsions:
REMARK  status: ('A' for Active; 'I' for Inactive)
REMARK    1  A    between atoms: C_4  and  C_5
REMARK    2  A    between atoms: C_9  and  N_10
REMARK    3  A    between atoms: N_10  and  C_11
REMARK    4  A    between atoms: C_11  and  C_12
REMARK    5  A    between atoms: C_16  and  C_17
REMARK    6  A    between atoms: C_24  and  C_25
REMARK                            x       y       z     vdW  Elec       q    Type
REMARK                         _______ _______ _______ _____ _____    ______ ____
ROOT
ATOM      1  C   UNL     1      46.761   5.996  12.618  0.00  0.00    +0.000 A 
ATOM      2  C   UNL     1      47.204   5.111  13.600  0.00  0.00    +0.000 A 
ATOM      3  N   UNL     1      46.620   3.929  13.903  0.00  0.00    +0.000 NA
ATOM      4  C   UNL     1      45.514   3.607  13.194  0.00  0.00    +0.000 A 
ATOM      5  C   UNL     1      44.926   4.408  12.215  0.00  0.00    +0.000 A 
ATOM      6  C   UNL     1      45.602   5.599  11.922  0.00  0.00    +0.000 A 
ENDROOT
BRANCH   1  10
ATOM      7  F   UNL     1      46.818  10.851  12.146  0.00  0.00    +0.000 F 
ATOM      8  C   UNL     1      47.479   9.687  12.086  0.00  0.00    +0.000 A 
ATOM      9  C   UNL     1      46.806   8.504  12.379  0.00  0.00    +0.000 A 
ATOM     10  C   UNL     1      47.463   7.264  12.314  0.00  0.00    +0.000 A 
ATOM     11  C   UNL     1      48.824   7.278  11.948  0.00  0.00    +0.000 A 
ATOM     12  C   UNL     1      49.514   8.473  11.662  0.00  0.00    +0.000 A 
ATOM     13  C   UNL     1      48.820   9.685  11.731  0.00  0.00    +0.000 A 
BRANCH  12  14
ATOM     14  C   UNL     1      50.974   8.460  11.286  0.00  0.00    +0.000 C 
ATOM     15  F   UNL     1      51.394   9.617  10.701  0.00  0.00    +0.000 F 
ATOM     16  F   UNL     1      51.786   8.270  12.362  0.00  0.00    +0.000 F 
ATOM     17  F   UNL     1      51.277   7.466  10.406  0.00  0.00    +0.000 F 
ENDBRANCH  12  14
ENDBRANCH   1  10
BRANCH   5  18
ATOM     18  N   UNL     1      43.815   3.963  11.504  0.00  0.00    +0.000 N 
ATOM     19  H   UNL     1      43.258   4.701  11.081  0.00  0.00    +0.000 HD
BRANCH  18  20
ATOM     20  C   UNL     1      43.872   2.756  10.682  0.00  0.00    +0.000 C 
BRANCH  20  21
ATOM     21  C   UNL     1      44.740   2.965   9.463  0.00  0.00    +0.000 A 
ATOM     22  C   UNL     1      44.925   4.256   8.950  0.00  0.00    +0.000 A 
ATOM     23  C   UNL     1      45.768   4.475   7.858  0.00  0.00    +0.000 A 
ATOM     24  C   UNL     1      46.453   3.408   7.275  0.00  0.00    +0.000 A 
ATOM     25  C   UNL     1      46.303   2.111   7.780  0.00  0.00    +0.000 A 
ATOM     26  C   UNL     1      45.442   1.902   8.869  0.00  0.00    +0.000 A 
BRANCH  25  27
ATOM     27  C   UNL     1      47.057   0.943   7.196  0.00  0.00    +0.000 C 
ATOM     28  F   UNL     1      46.831   0.757   5.866  0.00  0.00    +0.000 F 
ATOM     29  F   UNL     1      48.408   1.084   7.325  0.00  0.00    +0.000 F 
ATOM     30  F   UNL     1      46.747  -0.239   7.796  0.00  0.00    +0.000 F 
ENDBRANCH  25  27
ENDBRANCH  20  21
ENDBRANCH  18  20
ENDBRANCH   5  18
TORSDOF 6
ENDMDL
MODEL 5
REMARK VINA RESULT:    -7.675      2.881      3.926
REMARK INTER + INTRA:         -11.245
REMARK INTER:                 -10.603
REMARK INTRA:                  -0.642
REMARK UNBOUND:                -0.879
REMARK  Name = 
REMARK  6 active torsions:
REMARK  status: ('A' for Active; 'I' for Inactive)
REMARK    1  A    between atoms: C_4  and  C_5
REMARK    2  A    between atoms: C_9  and  N_10
REMARK    3  A    between atoms: N_10  and  C_11
REMARK    4  A    between atoms: C_11  and  C_12
REMARK    5  A    between atoms: C_16  and  C_17
REMARK    6  A    between atoms: C_24  and  C_25
REMARK                            x       y       z     vdW  Elec       q    Type
REMARK                         _______ _______ _______ _____ _____    ______ ____
ROOT
ATOM      1  C   UNL     1      46.366   6.276  12.727  0.00  0.00    +0.000 A 
ATOM      2  C   UNL     1      45.269   7.128  12.604  0.00  0.00    +0.000 A 
ATOM      3  N   UNL     1      44.011   6.736  12.295  0.00  0.00    +0.000 NA
ATOM      4  C   UNL     1      43.831   5.413  12.079  0.00  0.00    +0.000 A 
ATOM      5  C   UNL     1      44.836   4.448  12.120  0.00  0.00    +0.000 A 
ATOM      6  C   UNL     1      46.106   4.913  12.484  0.00  0.00    +0.000 A 
ENDROOT
BRANCH   1  10
ATOM      7  F   UNL     1      49.887   7.041  16.016  0.00  0.00    +0.000 F 
ATOM      8  C   UNL     1      49.465   7.136  14.748  0.00  0.00    +0.000 A 
ATOM      9  C   UNL     1      48.196   6.668  14.415  0.00  0.00    +0.000 A 
ATOM     10  C   UNL     1      47.714   6.764  13.098  0.00  0.00    +0.000 A 
ATOM     11  C   UNL     1      48.573   7.342  12.142  0.00  0.00    +0.000 A 
ATOM     12  C   UNL     1      49.862   7.806  12.470  0.00  0.00    +0.000 A 
ATOM     13  C   UNL     1      50.299   7.700  13.795  0.00  0.00    +0.000 A 
BRANCH  12  14
ATOM     14  C   UNL     1      50.764   8.410  11.424  0.00  0.00    +0.000 C 
ATOM     15  F   UNL     1      50.226   9.501  10.809  0.00  0.00    +0.000 F 
ATOM     16  F   UNL     1      51.954   8.822  11.939  0.00  0.00    +0.000 F 
ATOM     17  F   UNL     1      51.069   7.533  10.428  0.00  0.00    +0.000 F 
ENDBRANCH  12  14
ENDBRANCH   1  10
BRANCH   5  18
ATOM     18  N   UNL     1      44.539   3.101  11.932  0.00  0.00    +0.000 N 
ATOM     19  H   UNL     1      44.214   2.617  12.765  0.00  0.00    +0.000 HD
BRANCH  18  20
ATOM     20  C   UNL     1      43.883   2.630  10.714  0.00  0.00    +0.000 C 
BRANCH  20  21
ATOM     21  C   UNL     1      44.743   2.886   9.498  0.00  0.00    +0.000 A 
ATOM     22  C   UNL     1      44.920   4.194   9.029  0.00  0.00    +0.000 A 
ATOM     23  C   UNL     1      45.756   4.455   7.940  0.00  0.00    +0.000 A 
ATOM     24  C   UNL     1      46.443   3.412   7.317  0.00  0.00    +0.000 A 
ATOM     25  C   UNL     1      46.301   2.097   7.777  0.00  0.00    +0.000 A 
ATOM     26  C   UNL     1      45.447   1.847   8.863  0.00  0.00    +0.000 A 
BRANCH  25  27
ATOM     27  C   UNL     1      47.057   0.953   7.149  0.00  0.00    +0.000 C 
ATOM     28  F   UNL     1      46.731  -0.264   7.665  0.00  0.00    +0.000 F 
ATOM     29  F   UNL     1      46.830   0.859   5.808  0.00  0.00    +0.000 F 
ATOM     30  F   UNL     1      48.406   1.070   7.292  0.00  0.00    +0.000 F 
ENDBRANCH  25  27
ENDBRANCH  20  21
ENDBRANCH  18  20
ENDBRANCH   5  18
TORSDOF 6
ENDMDL
MODEL 6
REMARK VINA RESULT:    -7.620      4.342      7.553
REMARK INTER + INTRA:         -11.172
REMARK INTER:                  -9.961
REMARK INTRA:                  -1.211
REMARK UNBOUND:                -0.879
REMARK  Name = 
REMARK  6 active torsions:
REMARK  status: ('A' for Active; 'I' for Inactive)
REMARK    1  A    between atoms: C_4  and  C_5
REMARK    2  A    between atoms: C_9  and  N_10
REMARK    3  A    between atoms: N_10  and  C_11
REMARK    4  A    between atoms: C_11  and  C_12
REMARK    5  A    between atoms: C_16  and  C_17
REMARK    6  A    between atoms: C_24  and  C_25
REMARK                            x       y       z     vdW  Elec       q    Type
REMARK                         _______ _______ _______ _____ _____    ______ ____
ROOT
ATOM      1  C   UNL     1      46.693   7.398  12.655  0.00  0.00    +0.000 A 
ATOM      2  C   UNL     1      46.699   8.749  12.311  0.00  0.00    +0.000 A 
ATOM      3  N   UNL     1      47.603   9.658  12.744  0.00  0.00    +0.000 NA
ATOM      4  C   UNL     1      48.557   9.201  13.586  0.00  0.00    +0.000 A 
ATOM      5  C   UNL     1      48.654   7.891  14.056  0.00  0.00    +0.000 A 
ATOM      6  C   UNL     1      47.712   6.992  13.539  0.00  0.00    +0.000 A 
ENDROOT
BRANCH   1  10
ATOM      7  F   UNL     1      42.463   4.993  13.005  0.00  0.00    +0.000 F 
ATOM      8  C   UNL     1      43.576   5.255  12.308  0.00  0.00    +0.000 A 
ATOM      9  C   UNL     1      44.506   6.157  12.820  0.00  0.00    +0.000 A 
ATOM     10  C   UNL     1      45.691   6.446  12.122  0.00  0.00    +0.000 A 
ATOM     11  C   UNL     1      45.885   5.792  10.889  0.00  0.00    +0.000 A 
ATOM     12  C   UNL     1      44.942   4.888  10.360  0.00  0.00    +0.000 A 
ATOM     13  C   UNL     1      43.780   4.622  11.091  0.00  0.00    +0.000 A 
BRANCH  12  14
ATOM     14  C   UNL     1      45.170   4.212   9.032  0.00  0.00    +0.000 C 
ATOM     15  F   UNL     1      46.227   4.721   8.338  0.00  0.00    +0.000 F 
ATOM     16  F   UNL     1      45.417   2.880   9.163  0.00  0.00    +0.000 F 
ATOM     17  F   UNL     1      44.096   4.316   8.202  0.00  0.00    +0.000 F 
ENDBRANCH  12  14
ENDBRANCH   1  10
BRANCH   5  18
ATOM     18  N   UNL     1      49.706   7.506  14.882  0.00  0.00    +0.000 N 
ATOM     19  H   UNL     1      50.625   7.562  14.454  0.00  0.00    +0.000 HD
BRANCH  18  20
ATOM     20  C   UNL     1      49.721   7.852  16.302  0.00  0.00    +0.000 C 
BRANCH  20  21
ATOM     21  C   UNL     1      48.938   6.850  17.117  0.00  0.00    +0.000 A 
ATOM     22  C   UNL     1      48.223   7.272  18.246  0.00  0.00    +0.000 A 
ATOM     23  C   UNL     1      47.448   6.369  18.979  0.00  0.00    +0.000 A 
ATOM     24  C   UNL     1      47.362   5.035  18.581  0.00  0.00    +0.000 A 
ATOM     25  C   UNL     1      48.049   4.589  17.445  0.00  0.00    +0.000 A 
ATOM     26  C   UNL     1      48.835   5.503  16.726  0.00  0.00    +0.000 A 
BRANCH  25  27
ATOM     27  C   UNL     1      47.947   3.162  16.968  0.00  0.00    +0.000 C 
ATOM     28  F   UNL     1      47.683   3.049  15.637  0.00  0.00    +0.000 F 
ATOM     29  F   UNL     1      49.100   2.465  17.177  0.00  0.00    +0.000 F 
ATOM     30  F   UNL     1      46.967   2.462  17.603  0.00  0.00    +0.000 F 
ENDBRANCH  25  27
ENDBRANCH  20  21
ENDBRANCH  18  20
ENDBRANCH   5  18
TORSDOF 6
ENDMDL
MODEL 7
REMARK VINA RESULT:    -7.564      3.910      5.970
REMARK INTER + INTRA:         -11.096
REMARK INTER:                 -10.128
REMARK INTRA:                  -0.969
REMARK UNBOUND:                -0.879
REMARK  Name = 
REMARK  6 active torsions:
REMARK  status: ('A' for Active; 'I' for Inactive)
REMARK    1  A    between atoms: C_4  and  C_5
REMARK    2  A    between atoms: C_9  and  N_10
REMARK    3  A    between atoms: N_10  and  C_11
REMARK    4  A    between atoms: C_11  and  C_12
REMARK    5  A    between atoms: C_16  and  C_17
REMARK    6  A    between atoms: C_24  and  C_25
REMARK                            x       y       z     vdW  Elec       q    Type
REMARK                         _______ _______ _______ _____ _____    ______ ____
ROOT
ATOM      1  C   UNL     1      47.300   5.554  14.151  0.00  0.00    +0.000 A 
ATOM      2  C   UNL     1      48.128   6.399  13.413  0.00  0.00    +0.000 A 
ATOM      3  N   UNL     1      47.832   6.909  12.195  0.00  0.00    +0.000 NA
ATOM      4  C   UNL     1      46.642   6.546  11.666  0.00  0.00    +0.000 A 
ATOM      5  C   UNL     1      45.729   5.676  12.261  0.00  0.00    +0.000 A 
ATOM      6  C   UNL     1      46.078   5.215  13.537  0.00  0.00    +0.000 A 
ENDROOT
BRANCH   1  10
ATOM      7  F   UNL     1      46.877   2.319  17.777  0.00  0.00    +0.000 F 
ATOM      8  C   UNL     1      47.452   3.429  17.295  0.00  0.00    +0.000 A 
ATOM      9  C   UNL     1      47.097   3.885  16.027  0.00  0.00    +0.000 A 
ATOM     10  C   UNL     1      47.669   5.052  15.494  0.00  0.00    +0.000 A 
ATOM     11  C   UNL     1      48.614   5.725  16.294  0.00  0.00    +0.000 A 
ATOM     12  C   UNL     1      48.987   5.262  17.571  0.00  0.00    +0.000 A 
ATOM     13  C   UNL     1      48.386   4.100  18.068  0.00  0.00    +0.000 A 
BRANCH  12  14
ATOM     14  C   UNL     1      50.010   5.996  18.399  0.00  0.00    +0.000 C 
ATOM     15  F   UNL     1      49.589   7.221  18.822  0.00  0.00    +0.000 F 
ATOM     16  F   UNL     1      50.356   5.312  19.524  0.00  0.00    +0.000 F 
ATOM     17  F   UNL     1      51.170   6.215  17.722  0.00  0.00    +0.000 F 
ENDBRANCH  12  14
ENDBRANCH   1  10
BRANCH   5  18
ATOM     18  N   UNL     1      44.504   5.405  11.657  0.00  0.00    +0.000 N 
ATOM     19  H   UNL     1      43.697   5.781  12.147  0.00  0.00    +0.000 HD
BRANCH  18  20
ATOM     20  C   UNL     1      44.351   5.437  10.204  0.00  0.00    +0.000 C 
BRANCH  20  21
ATOM     21  C   UNL     1      44.792   4.134   9.579  0.00  0.00    +0.000 A 
ATOM     22  C   UNL     1      44.283   2.920  10.061  0.00  0.00    +0.000 A 
ATOM     23  C   UNL     1      44.637   1.710   9.460  0.00  0.00    +0.000 A 
ATOM     24  C   UNL     1      45.489   1.698   8.355  0.00  0.00    +0.000 A 
ATOM     25  C   UNL     1      45.996   2.896   7.840  0.00  0.00    +0.000 A 
ATOM     26  C   UNL     1      45.644   4.105   8.462  0.00  0.00    +0.000 A 
BRANCH  25  27
ATOM     27  C   UNL     1      46.890   2.920   6.625  0.00  0.00    +0.000 C 
ATOM     28  F   UNL     1      46.651   1.903   5.752  0.00  0.00    +0.000 F 
ATOM     29  F   UNL     1      46.748   4.068   5.903  0.00  0.00    +0.000 F 
ATOM     30  F   UNL     1      48.212   2.839   6.941  0.00  0.00    +0.000 F 
ENDBRANCH  25  27
ENDBRANCH  20  21
ENDBRANCH  18  20
ENDBRANCH   5  18
TORSDOF 6
ENDMDL
MODEL 8
REMARK VINA RESULT:    -7.386      4.343      6.118
REMARK INTER + INTRA:         -10.856
REMARK INTER:                  -9.776
REMARK INTRA:                  -1.080
REMARK UNBOUND:                -0.879
REMARK  Name = 
REMARK  6 active torsions:
REMARK  status: ('A' for Active; 'I' for Inactive)
REMARK    1  A    between atoms: C_4  and  C_5
REMARK    2  A    between atoms: C_9  and  N_10
REMARK    3  A    between atoms: N_10  and  C_11
REMARK    4  A    between atoms: C_11  and  C_12
REMARK    5  A    between atoms: C_16  and  C_17
REMARK    6  A    between atoms: C_24  and  C_25
REMARK                            x       y       z     vdW  Elec       q    Type
REMARK                         _______ _______ _______ _____ _____    ______ ____
ROOT
ATOM      1  C   UNL     1      48.461   6.877  14.366  0.00  0.00    +0.000 A 
ATOM      2  C   UNL     1      49.537   7.467  13.703  0.00  0.00    +0.000 A 
ATOM      3  N   UNL     1      49.496   7.968  12.446  0.00  0.00    +0.000 NA
ATOM      4  C   UNL     1      48.315   7.864  11.797  0.00  0.00    +0.000 A 
ATOM      5  C   UNL     1      47.167   7.261  12.309  0.00  0.00    +0.000 A 
ATOM      6  C   UNL     1      47.263   6.799  13.628  0.00  0.00    +0.000 A 
ENDROOT
BRANCH   1  10
ATOM      7  F   UNL     1      49.406   7.548  19.104  0.00  0.00    +0.000 F 
ATOM      8  C   UNL     1      49.032   6.723  18.117  0.00  0.00    +0.000 A 
ATOM      9  C   UNL     1      48.938   7.213  16.817  0.00  0.00    +0.000 A 
ATOM     10  C   UNL     1      48.562   6.374  15.755  0.00  0.00    +0.000 A 
ATOM     11  C   UNL     1      48.281   5.029  16.069  0.00  0.00    +0.000 A 
ATOM     12  C   UNL     1      48.362   4.530  17.384  0.00  0.00    +0.000 A 
ATOM     13  C   UNL     1      48.749   5.398  18.411  0.00  0.00    +0.000 A 
BRANCH  12  14
ATOM     14  C   UNL     1      48.044   3.090  17.693  0.00  0.00    +0.000 C 
ATOM     15  F   UNL     1      46.729   2.775  17.517  0.00  0.00    +0.000 F 
ATOM     16  F   UNL     1      48.742   2.224  16.909  0.00  0.00    +0.000 F 
ATOM     17  F   UNL     1      48.338   2.754  18.979  0.00  0.00    +0.000 F 
ENDBRANCH  12  14
ENDBRANCH   1  10
BRANCH   5  18
ATOM     18  N   UNL     1      45.981   7.250  11.579  0.00  0.00    +0.000 N 
ATOM     19  H   UNL     1      46.102   7.164  10.574  0.00  0.00    +0.000 HD
BRANCH  18  20
ATOM     20  C   UNL     1      44.795   6.551  12.069  0.00  0.00    +0.000 C 
BRANCH  20  21
ATOM     21  C   UNL     1      44.636   5.207  11.398  0.00  0.00    +0.000 A 
ATOM     22  C   UNL     1      43.809   4.232  11.972  0.00  0.00    +0.000 A 
ATOM     23  C   UNL     1      43.607   3.004  11.337  0.00  0.00    +0.000 A 
ATOM     24  C   UNL     1      44.214   2.742  10.109  0.00  0.00    +0.000 A 
ATOM     25  C   UNL     1      45.030   3.704   9.502  0.00  0.00    +0.000 A 
ATOM     26  C   UNL     1      45.235   4.929  10.157  0.00  0.00    +0.000 A 
BRANCH  25  27
ATOM     27  C   UNL     1      45.671   3.466   8.158  0.00  0.00    +0.000 C 
ATOM     28  F   UNL     1      46.595   4.407   7.819  0.00  0.00    +0.000 F 
ATOM     29  F   UNL     1      46.324   2.270   8.103  0.00  0.00    +0.000 F 
ATOM     30  F   UNL     1      44.768   3.445   7.139  0.00  0.00    +0.000 F 
ENDBRANCH  25  27
ENDBRANCH  20  21
ENDBRANCH  18  20
ENDBRANCH   5  18
TORSDOF 6
ENDMDL
MODEL 9
REMARK VINA RESULT:    -7.218      4.540      7.598
REMARK INTER + INTRA:         -10.628
REMARK INTER:                  -9.100
REMARK INTRA:                  -1.528
REMARK UNBOUND:                -0.879
REMARK  Name = 
REMARK  6 active torsions:
REMARK  status: ('A' for Active; 'I' for Inactive)
REMARK    1  A    between atoms: C_4  and  C_5
REMARK    2  A    between atoms: C_9  and  N_10
REMARK    3  A    between atoms: N_10  and  C_11
REMARK    4  A    between atoms: C_11  and  C_12
REMARK    5  A    between atoms: C_16  and  C_17
REMARK    6  A    between atoms: C_24  and  C_25
REMARK                            x       y       z     vdW  Elec       q    Type
REMARK                         _______ _______ _______ _____ _____    ______ ____
ROOT
ATOM      1  C   UNL     1      48.169   7.402  12.803  0.00  0.00    +0.000 A 
ATOM      2  C   UNL     1      49.197   7.645  11.893  0.00  0.00    +0.000 A 
ATOM      3  N   UNL     1      50.423   8.121  12.213  0.00  0.00    +0.000 NA
ATOM      4  C   UNL     1      50.641   8.388  13.521  0.00  0.00    +0.000 A 
ATOM      5  C   UNL     1      49.698   8.240  14.538  0.00  0.00    +0.000 A 
ATOM      6  C   UNL     1      48.464   7.706  14.147  0.00  0.00    +0.000 A 
ENDROOT
BRANCH   1  10
ATOM      7  F   UNL     1      43.628   7.968  11.112  0.00  0.00    +0.000 F 
ATOM      8  C   UNL     1      44.595   7.147  11.545  0.00  0.00    +0.000 A 
ATOM      9  C   UNL     1      45.825   7.680  11.922  0.00  0.00    +0.000 A 
ATOM     10  C   UNL     1      46.857   6.851  12.393  0.00  0.00    +0.000 A 
ATOM     11  C   UNL     1      46.591   5.469  12.455  0.00  0.00    +0.000 A 
ATOM     12  C   UNL     1      45.353   4.922  12.063  0.00  0.00    +0.000 A 
ATOM     13  C   UNL     1      44.349   5.784  11.608  0.00  0.00    +0.000 A 
BRANCH  12  14
ATOM     14  C   UNL     1      45.100   3.437  12.129  0.00  0.00    +0.000 C 
ATOM     15  F   UNL     1      45.098   2.832  10.908  0.00  0.00    +0.000 F 
ATOM     16  F   UNL     1      46.038   2.783  12.867  0.00  0.00    +0.000 F 
ATOM     17  F   UNL     1      43.899   3.137  12.695  0.00  0.00    +0.000 F 
ENDBRANCH  12  14
ENDBRANCH   1  10
BRANCH   5  18
ATOM     18  N   UNL     1      50.037   8.494  15.865  0.00  0.00    +0.000 N 
ATOM     19  H   UNL     1      49.397   9.112  16.356  0.00  0.00    +0.000 HD
BRANCH  18  20
ATOM     20  C   UNL     1      50.581   7.444  16.723  0.00  0.00    +0.000 C 
BRANCH  20  21
ATOM     21  C   UNL     1      49.477   6.620  17.344  0.00  0.00    +0.000 A 
ATOM     22  C   UNL     1      48.654   7.182  18.329  0.00  0.00    +0.000 A 
ATOM     23  C   UNL     1      47.594   6.453  18.874  0.00  0.00    +0.000 A 
ATOM     24  C   UNL     1      47.331   5.158  18.428  0.00  0.00    +0.000 A 
ATOM     25  C   UNL     1      48.124   4.578  17.431  0.00  0.00    +0.000 A 
ATOM     26  C   UNL     1      49.194   5.316  16.902  0.00  0.00    +0.000 A 
BRANCH  25  27
ATOM     27  C   UNL     1      47.843   3.194  16.901  0.00  0.00    +0.000 C 
ATOM     28  F   UNL     1      47.510   3.173  15.581  0.00  0.00    +0.000 F 
ATOM     29  F   UNL     1      48.920   2.366  17.025  0.00  0.00    +0.000 F 
ATOM     30  F   UNL     1      46.820   2.577  17.554  0.00  0.00    +0.000 F 
ENDBRANCH  25  27
ENDBRANCH  20  21
ENDBRANCH  18  20
ENDBRANCH   5  18
TORSDOF 6
ENDMDL
