MODEL 1
REMARK VINA RESULT:    -7.281      0.000      0.000
REMARK INTER + INTRA:         -11.211
REMARK INTER:                  -9.834
REMARK INTRA:                  -1.377
REMARK UNBOUND:                -1.377
REMARK  Name = 
REMARK  7 active torsions:
REMARK  status: ('A' for Active; 'I' for Inactive)
REMARK    1  A    between atoms: C_1  and  N_2
REMARK    2  A    between atoms: N_2  and  C_3
REMARK    3  A    between atoms: C_3  and  C_4
REMARK    4  A    between atoms: C_10  and  C_12
REMARK    5  A    between atoms: C_15  and  C_16
REMARK    6  A    between atoms: C_16  and  N_17
REMARK    7  A    between atoms: C_18  and  C_20
REMARK                            x       y       z     vdW  Elec       q    Type
REMARK                         _______ _______ _______ _____ _____    ______ ____
ROOT
ATOM      1  C   UNL     1      49.355   7.771  15.837  0.00  0.00    +0.000 A 
ATOM      2  C   UNL     1      48.356   8.712  15.609  0.00  0.00    +0.000 A 
ATOM      3  C   UNL     1      47.746   8.752  14.357  0.00  0.00    +0.000 A 
ATOM      4  C   UNL     1      48.147   7.854  13.365  0.00  0.00    +0.000 A 
ATOM      5  C   UNL     1      49.123   6.923  13.700  0.00  0.00    +0.000 A 
ATOM      6  N   UNL     1      49.733   6.861  14.903  0.00  0.00    +0.000 NA
ENDROOT
BRANCH   1   9
ATOM      7  C   UNL     1      50.035   7.129  19.553  0.00  0.00    +0.000 C 
ATOM      8  N   UNL     1      49.337   7.100  18.279  0.00  0.00    +0.000 N 
ATOM      9  C   UNL     1      49.992   7.705  17.192  0.00  0.00    +0.000 C 
ATOM     10  O   UNL     1      51.118   8.194  17.316  0.00  0.00    +0.000 OA
BRANCH   8  11
ATOM     11  C   UNL     1      48.162   6.231  18.176  0.00  0.00    +0.000 C 
BRANCH  11  12
ATOM     12  C   UNL     1      48.428   4.887  17.553  0.00  0.00    +0.000 A 
ATOM     13  C   UNL     1      49.425   4.031  18.032  0.00  0.00    +0.000 A 
ATOM     14  C   UNL     1      49.574   2.761  17.478  0.00  0.00    +0.000 A 
ATOM     15  C   UNL     1      48.723   2.386  16.454  0.00  0.00    +0.000 A 
ATOM     16  N   UNL     1      47.759   3.186  15.951  0.00  0.00    +0.000 NA
ATOM     17  C   UNL     1      47.636   4.412  16.512  0.00  0.00    +0.000 A 
ENDBRANCH  11  12
ENDBRANCH   8  11
ENDBRANCH   1   9
BRANCH   4  18
ATOM     18  C   UNL     1      47.519   7.853  12.003  0.00  0.00    +0.000 C 
BRANCH  18  19
ATOM     19  N   UNL     1      46.850   6.604  11.745  0.00  0.00    +0.000 N 
ATOM     20  C   UNL     1      45.494   6.482  11.908  0.00  0.00    +0.000 C 
ATOM     21  O   UNL     1      44.792   7.440  12.221  0.00  0.00    +0.000 OA
ATOM     22  H   UNL     1      47.422   5.765  11.717  0.00  0.00    +0.000 HD
BRANCH  20  23
ATOM     23  C   UNL     1      44.913   5.165  11.624  0.00  0.00    +0.000 A 
ATOM     24  C   UNL     1      44.215   4.495  12.619  0.00  0.00    +0.000 A 
ATOM     25  S   UNL     1      43.558   3.006  12.113  0.00  0.00    +0.000 S 
ATOM     26  C   UNL     1      44.226   3.180  10.558  0.00  0.00    +0.000 A 
ATOM     27  N   UNL     1      44.054   2.216   9.613  0.00  0.00    +0.000 NA
ATOM     28  C   UNL     1      44.641   2.459   8.490  0.00  0.00    +0.000 A 
ATOM     29  N   UNL     1      45.384   3.581   8.224  0.00  0.00    +0.000 N 
ATOM     30  C   UNL     1      45.557   4.597   9.134  0.00  0.00    +0.000 A 
ATOM     31  O   UNL     1      46.187   5.609   8.851  0.00  0.00    +0.000 OA
ATOM     32  C   UNL     1      44.926   4.365  10.422  0.00  0.00    +0.000 A 
ATOM     33  H   UNL     1      45.811   3.713   7.319  0.00  0.00    +0.000 HD
ENDBRANCH  20  23
ENDBRANCH  18  19
ENDBRANCH   4  18
TORSDOF 6
ENDMDL
MODEL 2
REMARK VINA RESULT:    -7.111      2.132      2.854
REMARK INTER + INTRA:         -10.982
REMARK INTER:                  -9.764
REMARK INTRA:                  -1.219
REMARK UNBOUND:                -1.377
REMARK  Name = 
REMARK  7 active torsions:
REMARK  status: ('A' for Active; 'I' for Inactive)
REMARK    1  A    between atoms: C_1  and  N_2
REMARK    2  A    between atoms: N_2  and  C_3
REMARK    3  A    between atoms: C_3  and  C_4
REMARK    4  A    between atoms: C_10  and  C_12
REMARK    5  A    between atoms: C_15  and  C_16
REMARK    6  A    between atoms: C_16  and  N_17
REMARK    7  A    between atoms: C_18  and  C_20
REMARK                            x       y       z     vdW  Elec       q    Type
REMARK                         _______ _______ _______ _____ _____    ______ ____
ROOT
ATOM      1  C   UNL     1      48.577   6.311  17.032  0.00  0.00    +0.000 A 
ATOM      2  C   UNL     1      48.948   7.610  16.701  0.00  0.00    +0.000 A 
ATOM      3  C   UNL     1      48.934   7.989  15.360  0.00  0.00    +0.000 A 
ATOM      4  C   UNL     1      48.550   7.066  14.385  0.00  0.00    +0.000 A 
ATOM      5  C   UNL     1      48.154   5.806  14.818  0.00  0.00    +0.000 A 
ATOM      6  N   UNL     1      48.159   5.409  16.108  0.00  0.00    +0.000 NA
ENDROOT
BRANCH   1   9
ATOM      7  C   UNL     1      49.505   4.859  20.455  0.00  0.00    +0.000 C 
ATOM      8  N   UNL     1      49.647   5.231  19.058  0.00  0.00    +0.000 N 
ATOM      9  C   UNL     1      48.562   5.909  18.476  0.00  0.00    +0.000 C 
ATOM     10  O   UNL     1      47.564   6.206  19.139  0.00  0.00    +0.000 OA
BRANCH   8  11
ATOM     11  C   UNL     1      50.981   5.109  18.462  0.00  0.00    +0.000 C 
BRANCH  11  12
ATOM     12  C   UNL     1      51.355   3.714  18.041  0.00  0.00    +0.000 A 
ATOM     13  C   UNL     1      52.607   3.163  18.330  0.00  0.00    +0.000 A 
ATOM     14  C   UNL     1      52.875   1.837  17.996  0.00  0.00    +0.000 A 
ATOM     15  C   UNL     1      51.881   1.100  17.377  0.00  0.00    +0.000 A 
ATOM     16  N   UNL     1      50.665   1.597  17.067  0.00  0.00    +0.000 NA
ATOM     17  C   UNL     1      50.434   2.887  17.405  0.00  0.00    +0.000 A 
ENDBRANCH  11  12
ENDBRANCH   8  11
ENDBRANCH   1   9
BRANCH   4  18
ATOM     18  C   UNL     1      48.512   7.427  12.930  0.00  0.00    +0.000 C 
BRANCH  18  19
ATOM     19  N   UNL     1      47.745   6.467  12.180  0.00  0.00    +0.000 N 
ATOM     20  C   UNL     1      46.451   6.727  11.814  0.00  0.00    +0.000 C 
ATOM     21  O   UNL     1      45.914   7.805  12.056  0.00  0.00    +0.000 OA
ATOM     22  H   UNL     1      48.077   5.506  12.175  0.00  0.00    +0.000 HD
BRANCH  20  23
ATOM     23  C   UNL     1      45.756   5.679  11.057  0.00  0.00    +0.000 A 
ATOM     24  C   UNL     1      45.839   5.664   9.672  0.00  0.00    +0.000 A 
ATOM     25  S   UNL     1      45.024   4.353   8.950  0.00  0.00    +0.000 S 
ATOM     26  C   UNL     1      44.486   3.786  10.461  0.00  0.00    +0.000 A 
ATOM     27  N   UNL     1      43.699   2.680  10.551  0.00  0.00    +0.000 NA
ATOM     28  C   UNL     1      43.336   2.381  11.754  0.00  0.00    +0.000 A 
ATOM     29  N   UNL     1      43.690   3.086  12.875  0.00  0.00    +0.000 N 
ATOM     30  C   UNL     1      44.511   4.189  12.837  0.00  0.00    +0.000 A 
ATOM     31  O   UNL     1      44.849   4.771  13.861  0.00  0.00    +0.000 OA
ATOM     32  C   UNL     1      44.937   4.577  11.503  0.00  0.00    +0.000 A 
ATOM     33  H   UNL     1      43.377   2.793  13.788  0.00  0.00    +0.000 HD
ENDBRANCH  20  23
ENDBRANCH  18  19
ENDBRANCH   4  18
TORSDOF 6
ENDMDL
MODEL 3
REMARK VINA RESULT:    -6.865      1.410      2.141
REMARK INTER + INTRA:         -10.650
REMARK INTER:                  -9.285
REMARK INTRA:                  -1.365
REMARK UNBOUND:                -1.377
REMARK  Name = 
REMARK  7 active torsions:
REMARK  status: ('A' for Active; 'I' for Inactive)
REMARK    1  A    between atoms: C_1  and  N_2
REMARK    2  A    between atoms: N_2  and  C_3
REMARK    3  A    between atoms: C_3  and  C_4
REMARK    4  A    between atoms: C_10  and  C_12
REMARK    5  A    between atoms: C_15  and  C_16
REMARK    6  A    between atoms: C_16  and  N_17
REMARK    7  A    between atoms: C_18  and  C_20
REMARK                            x       y       z     vdW  Elec       q    Type
REMARK                         _______ _______ _______ _____ _____    ______ ____
ROOT
ATOM      1  C   UNL     1      49.143   7.776  16.239  0.00  0.00    +0.000 A 
ATOM      2  C   UNL     1      49.712   6.975  15.254  0.00  0.00    +0.000 A 
ATOM      3  C   UNL     1      49.313   7.155  13.931  0.00  0.00    +0.000 A 
ATOM      4  C   UNL     1      48.358   8.127  13.624  0.00  0.00    +0.000 A 
ATOM      5  C   UNL     1      47.880   8.907  14.669  0.00  0.00    +0.000 A 
ATOM      6  N   UNL     1      48.246   8.756  15.960  0.00  0.00    +0.000 NA
ENDROOT
BRANCH   1   9
ATOM      7  C   UNL     1      49.340   6.821  19.944  0.00  0.00    +0.000 C 
ATOM      8  N   UNL     1      48.822   6.887  18.588  0.00  0.00    +0.000 N 
ATOM      9  C   UNL     1      49.593   7.607  17.658  0.00  0.00    +0.000 C 
ATOM     10  O   UNL     1      50.672   8.113  17.978  0.00  0.00    +0.000 OA
BRANCH   8  11
ATOM     11  C   UNL     1      47.708   5.998  18.249  0.00  0.00    +0.000 C 
BRANCH  11  12
ATOM     12  C   UNL     1      48.110   4.725  17.554  0.00  0.00    +0.000 A 
ATOM     13  C   UNL     1      49.095   3.877  18.068  0.00  0.00    +0.000 A 
ATOM     14  C   UNL     1      49.370   2.667  17.435  0.00  0.00    +0.000 A 
ATOM     15  C   UNL     1      48.652   2.342  16.297  0.00  0.00    +0.000 A 
ATOM     16  N   UNL     1      47.704   3.138  15.758  0.00  0.00    +0.000 NA
ATOM     17  C   UNL     1      47.458   4.305  16.398  0.00  0.00    +0.000 A 
ENDBRANCH  11  12
ENDBRANCH   8  11
ENDBRANCH   1   9
BRANCH   4  18
ATOM     18  C   UNL     1      47.900   8.363  12.216  0.00  0.00    +0.000 C 
BRANCH  18  19
ATOM     19  N   UNL     1      47.326   7.169  11.652  0.00  0.00    +0.000 N 
ATOM     20  C   UNL     1      45.984   7.089  11.385  0.00  0.00    +0.000 C 
ATOM     21  O   UNL     1      45.232   8.045  11.558  0.00  0.00    +0.000 OA
ATOM     22  H   UNL     1      47.868   6.313  11.722  0.00  0.00    +0.000 HD
BRANCH  20  23
ATOM     23  C   UNL     1      45.499   5.825  10.818  0.00  0.00    +0.000 A 
ATOM     24  C   UNL     1      45.758   5.526   9.488  0.00  0.00    +0.000 A 
ATOM     25  S   UNL     1      45.176   4.000   9.002  0.00  0.00    +0.000 S 
ATOM     26  C   UNL     1      44.512   3.704  10.540  0.00  0.00    +0.000 A 
ATOM     27  N   UNL     1      43.835   2.553  10.798  0.00  0.00    +0.000 NA
ATOM     28  C   UNL     1      43.354   2.473  11.993  0.00  0.00    +0.000 A 
ATOM     29  N   UNL     1      43.492   3.439  12.957  0.00  0.00    +0.000 N 
ATOM     30  C   UNL     1      44.196   4.603  12.753  0.00  0.00    +0.000 A 
ATOM     31  O   UNL     1      44.341   5.427  13.649  0.00  0.00    +0.000 OA
ATOM     32  C   UNL     1      44.745   4.748  11.417  0.00  0.00    +0.000 A 
ATOM     33  H   UNL     1      43.097   3.309  13.876  0.00  0.00    +0.000 HD
ENDBRANCH  20  23
ENDBRANCH  18  19
ENDBRANCH   4  18
TORSDOF 6
ENDMDL
MODEL 4
REMARK VINA RESULT:    -6.839      4.792      8.155
REMARK INTER + INTRA:         -10.614
REMARK INTER:                  -9.374
REMARK INTRA:                  -1.241
REMARK UNBOUND:                -1.377
REMARK  Name = 
REMARK  7 active torsions:
REMARK  status: ('A' for Active; 'I' for Inactive)
REMARK    1  A    between atoms: C_1  and  N_2
REMARK    2  A    between atoms: N_2  and  C_3
REMARK    3  A    between atoms: C_3  and  C_4
REMARK    4  A    between atoms: C_10  and  C_12
REMARK    5  A    between atoms: C_15  and  C_16
REMARK    6  A    between atoms: C_16  and  N_17
REMARK    7  A    between atoms: C_18  and  C_20
REMARK                            x       y       z     vdW  Elec       q    Type
REMARK                         _______ _______ _______ _____ _____    ______ ____
ROOT
ATOM      1  C   UNL     1      45.615   5.959  12.566  0.00  0.00    +0.000 A 
ATOM      2  C   UNL     1      46.945   6.035  12.164  0.00  0.00    +0.000 A 
ATOM      3  C   UNL     1      47.518   7.292  11.982  0.00  0.00    +0.000 A 
ATOM      4  C   UNL     1      46.754   8.439  12.206  0.00  0.00    +0.000 A 
ATOM      5  C   UNL     1      45.448   8.262  12.648  0.00  0.00    +0.000 A 
ATOM      6  N   UNL     1      44.864   7.058  12.831  0.00  0.00    +0.000 NA
ENDROOT
BRANCH   1   9
ATOM      7  C   UNL     1      43.527   2.764  12.225  0.00  0.00    +0.000 C 
ATOM      8  N   UNL     1      44.082   4.062  11.883  0.00  0.00    +0.000 N 
ATOM      9  C   UNL     1      45.004   4.609  12.792  0.00  0.00    +0.000 C 
ATOM     10  O   UNL     1      45.350   3.990  13.802  0.00  0.00    +0.000 OA
BRANCH   8  11
ATOM     11  C   UNL     1      43.843   4.559  10.525  0.00  0.00    +0.000 C 
BRANCH  11  12
ATOM     12  C   UNL     1      44.824   4.068   9.496  0.00  0.00    +0.000 A 
ATOM     13  C   UNL     1      44.907   2.720   9.133  0.00  0.00    +0.000 A 
ATOM     14  C   UNL     1      45.771   2.328   8.112  0.00  0.00    +0.000 A 
ATOM     15  C   UNL     1      46.533   3.298   7.486  0.00  0.00    +0.000 A 
ATOM     16  N   UNL     1      46.495   4.607   7.814  0.00  0.00    +0.000 NA
ATOM     17  C   UNL     1      45.645   4.957   8.808  0.00  0.00    +0.000 A 
ENDBRANCH  11  12
ENDBRANCH   8  11
ENDBRANCH   1   9
BRANCH   4  18
ATOM     18  C   UNL     1      47.326   9.814  12.030  0.00  0.00    +0.000 C 
BRANCH  18  19
ATOM     19  N   UNL     1      48.596   9.762  11.353  0.00  0.00    +0.000 N 
ATOM     20  C   UNL     1      49.492  10.794  11.453  0.00  0.00    +0.000 C 
ATOM     21  O   UNL     1      49.276  11.771  12.164  0.00  0.00    +0.000 OA
ATOM     22  H   UNL     1      48.693   9.094  10.593  0.00  0.00    +0.000 HD
BRANCH  20  23
ATOM     23  C   UNL     1      50.754  10.644  10.718  0.00  0.00    +0.000 A 
ATOM     24  C   UNL     1      51.125  11.606   9.790  0.00  0.00    +0.000 A 
ATOM     25  S   UNL     1      52.640  11.312   9.065  0.00  0.00    +0.000 S 
ATOM     26  C   UNL     1      52.832   9.860   9.931  0.00  0.00    +0.000 A 
ATOM     27  N   UNL     1      53.934   9.083   9.754  0.00  0.00    +0.000 NA
ATOM     28  C   UNL     1      53.935   7.994  10.447  0.00  0.00    +0.000 A 
ATOM     29  N   UNL     1      52.935   7.611  11.304  0.00  0.00    +0.000 N 
ATOM     30  C   UNL     1      51.819   8.380  11.540  0.00  0.00    +0.000 A 
ATOM     31  O   UNL     1      50.964   8.034  12.347  0.00  0.00    +0.000 OA
ATOM     32  C   UNL     1      51.762   9.612  10.773  0.00  0.00    +0.000 A 
ATOM     33  H   UNL     1      53.003   6.749  11.822  0.00  0.00    +0.000 HD
ENDBRANCH  20  23
ENDBRANCH  18  19
ENDBRANCH   4  18
TORSDOF 6
ENDMDL
MODEL 5
REMARK VINA RESULT:    -6.702      2.960      8.706
REMARK INTER + INTRA:         -10.429
REMARK INTER:                 -10.043
REMARK INTRA:                  -0.387
REMARK UNBOUND:                -1.377
REMARK  Name = 
REMARK  7 active torsions:
REMARK  status: ('A' for Active; 'I' for Inactive)
REMARK    1  A    between atoms: C_1  and  N_2
REMARK    2  A    between atoms: N_2  and  C_3
REMARK    3  A    between atoms: C_3  and  C_4
REMARK    4  A    between atoms: C_10  and  C_12
REMARK    5  A    between atoms: C_15  and  C_16
REMARK    6  A    between atoms: C_16  and  N_17
REMARK    7  A    between atoms: C_18  and  C_20
REMARK                            x       y       z     vdW  Elec       q    Type
REMARK                         _______ _______ _______ _____ _____    ______ ____
ROOT
ATOM      1  C   UNL     1      44.965   4.985  11.290  0.00  0.00    +0.000 A 
ATOM      2  C   UNL     1      44.125   6.075  11.084  0.00  0.00    +0.000 A 
ATOM      3  C   UNL     1      44.532   7.329  11.535  0.00  0.00    +0.000 A 
ATOM      4  C   UNL     1      45.763   7.466  12.179  0.00  0.00    +0.000 A 
ATOM      5  C   UNL     1      46.552   6.327  12.301  0.00  0.00    +0.000 A 
ATOM      6  N   UNL     1      46.184   5.099  11.876  0.00  0.00    +0.000 NA
ENDROOT
BRANCH   1   9
ATOM      7  C   UNL     1      44.331   1.930   9.066  0.00  0.00    +0.000 C 
ATOM      8  N   UNL     1      44.821   3.240   9.461  0.00  0.00    +0.000 N 
ATOM      9  C   UNL     1      44.544   3.641  10.780  0.00  0.00    +0.000 C 
ATOM     10  O   UNL     1      43.955   2.893  11.565  0.00  0.00    +0.000 OA
BRANCH   8  11
ATOM     11  C   UNL     1      45.767   3.904   8.560  0.00  0.00    +0.000 C 
BRANCH  11  12
ATOM     12  C   UNL     1      46.359   3.012   7.503  0.00  0.00    +0.000 A 
ATOM     13  C   UNL     1      46.331   3.350   6.146  0.00  0.00    +0.000 A 
ATOM     14  C   UNL     1      46.969   2.533   5.215  0.00  0.00    +0.000 A 
ATOM     15  C   UNL     1      47.614   1.396   5.668  0.00  0.00    +0.000 A 
ATOM     16  N   UNL     1      47.652   1.026   6.966  0.00  0.00    +0.000 NA
ATOM     17  C   UNL     1      47.025   1.840   7.847  0.00  0.00    +0.000 A 
ENDBRANCH  11  12
ENDBRANCH   8  11
ENDBRANCH   1   9
BRANCH   4  18
ATOM     18  C   UNL     1      46.249   8.794  12.677  0.00  0.00    +0.000 C 
BRANCH  18  19
ATOM     19  N   UNL     1      46.705   8.699  14.040  0.00  0.00    +0.000 N 
ATOM     20  C   UNL     1      48.021   8.907  14.360  0.00  0.00    +0.000 C 
ATOM     21  O   UNL     1      48.848   9.239  13.515  0.00  0.00    +0.000 OA
ATOM     22  H   UNL     1      46.107   8.209  14.699  0.00  0.00    +0.000 HD
BRANCH  20  23
ATOM     23  C   UNL     1      48.383   8.780  15.777  0.00  0.00    +0.000 A 
ATOM     24  C   UNL     1      48.430   9.912  16.577  0.00  0.00    +0.000 A 
ATOM     25  S   UNL     1      48.812   9.587  18.206  0.00  0.00    +0.000 S 
ATOM     26  C   UNL     1      48.977   7.924  17.890  0.00  0.00    +0.000 A 
ATOM     27  N   UNL     1      49.325   7.057  18.879  0.00  0.00    +0.000 NA
ATOM     28  C   UNL     1      49.449   5.831  18.494  0.00  0.00    +0.000 A 
ATOM     29  N   UNL     1      49.254   5.391  17.210  0.00  0.00    +0.000 N 
ATOM     30  C   UNL     1      48.868   6.224  16.185  0.00  0.00    +0.000 A 
ATOM     31  O   UNL     1      48.655   5.794  15.058  0.00  0.00    +0.000 OA
ATOM     32  C   UNL     1      48.729   7.619  16.563  0.00  0.00    +0.000 A 
ATOM     33  H   UNL     1      49.360   4.415  16.978  0.00  0.00    +0.000 HD
ENDBRANCH  20  23
ENDBRANCH  18  19
ENDBRANCH   4  18
TORSDOF 6
ENDMDL
MODEL 6
REMARK VINA RESULT:    -6.553      3.830      8.399
REMARK INTER + INTRA:         -10.228
REMARK INTER:                  -9.292
REMARK INTRA:                  -0.936
REMARK UNBOUND:                -1.377
REMARK  Name = 
REMARK  7 active torsions:
REMARK  status: ('A' for Active; 'I' for Inactive)
REMARK    1  A    between atoms: C_1  and  N_2
REMARK    2  A    between atoms: N_2  and  C_3
REMARK    3  A    between atoms: C_3  and  C_4
REMARK    4  A    between atoms: C_10  and  C_12
REMARK    5  A    between atoms: C_15  and  C_16
REMARK    6  A    between atoms: C_16  and  N_17
REMARK    7  A    between atoms: C_18  and  C_20
REMARK                            x       y       z     vdW  Elec       q    Type
REMARK                         _______ _______ _______ _____ _____    ______ ____
ROOT
ATOM      1  C   UNL     1      45.484   5.800  12.430  0.00  0.00    +0.000 A 
ATOM      2  C   UNL     1      46.819   5.796  12.037  0.00  0.00    +0.000 A 
ATOM      3  C   UNL     1      47.490   7.013  11.934  0.00  0.00    +0.000 A 
ATOM      4  C   UNL     1      46.815   8.201  12.224  0.00  0.00    +0.000 A 
ATOM      5  C   UNL     1      45.496   8.100  12.649  0.00  0.00    +0.000 A 
ATOM      6  N   UNL     1      44.819   6.937  12.757  0.00  0.00    +0.000 NA
ENDROOT
BRANCH   1   9
ATOM      7  C   UNL     1      43.269   2.735  11.814  0.00  0.00    +0.000 C 
ATOM      8  N   UNL     1      43.941   3.995  11.549  0.00  0.00    +0.000 N 
ATOM      9  C   UNL     1      44.769   4.491  12.572  0.00  0.00    +0.000 C 
ATOM     10  O   UNL     1      44.941   3.859  13.617  0.00  0.00    +0.000 OA
BRANCH   8  11
ATOM     11  C   UNL     1      43.913   4.497  10.172  0.00  0.00    +0.000 C 
BRANCH  11  12
ATOM     12  C   UNL     1      44.817   3.764   9.218  0.00  0.00    +0.000 A 
ATOM     13  C   UNL     1      45.622   4.436   8.294  0.00  0.00    +0.000 A 
ATOM     14  C   UNL     1      46.507   3.718   7.492  0.00  0.00    +0.000 A 
ATOM     15  C   UNL     1      46.557   2.343   7.635  0.00  0.00    +0.000 A 
ATOM     16  N   UNL     1      45.787   1.653   8.504  0.00  0.00    +0.000 NA
ATOM     17  C   UNL     1      44.940   2.379   9.270  0.00  0.00    +0.000 A 
ENDBRANCH  11  12
ENDBRANCH   8  11
ENDBRANCH   1   9
BRANCH   4  18
ATOM     18  C   UNL     1      47.494   9.535  12.133  0.00  0.00    +0.000 C 
BRANCH  18  19
ATOM     19  N   UNL     1      48.628   9.599  13.018  0.00  0.00    +0.000 N 
ATOM     20  C   UNL     1      49.908   9.551  12.530  0.00  0.00    +0.000 C 
ATOM     21  O   UNL     1      50.139   9.513  11.324  0.00  0.00    +0.000 OA
ATOM     22  H   UNL     1      48.466   9.396  14.000  0.00  0.00    +0.000 HD
BRANCH  20  23
ATOM     23  C   UNL     1      50.993   9.616  13.517  0.00  0.00    +0.000 A 
ATOM     24  C   UNL     1      51.888  10.675  13.482  0.00  0.00    +0.000 A 
ATOM     25  S   UNL     1      53.052  10.631  14.727  0.00  0.00    +0.000 S 
ATOM     26  C   UNL     1      52.430   9.165  15.328  0.00  0.00    +0.000 A 
ATOM     27  N   UNL     1      53.000   8.553  16.401  0.00  0.00    +0.000 NA
ATOM     28  C   UNL     1      52.451   7.432  16.730  0.00  0.00    +0.000 A 
ATOM     29  N   UNL     1      51.380   6.868  16.084  0.00  0.00    +0.000 N 
ATOM     30  C   UNL     1      50.750   7.466  15.018  0.00  0.00    +0.000 A 
ATOM     31  O   UNL     1      49.766   6.960  14.491  0.00  0.00    +0.000 OA
ATOM     32  C   UNL     1      51.340   8.725  14.598  0.00  0.00    +0.000 A 
ATOM     33  H   UNL     1      50.993   5.991  16.399  0.00  0.00    +0.000 HD
ENDBRANCH  20  23
ENDBRANCH  18  19
ENDBRANCH   4  18
TORSDOF 6
ENDMDL
MODEL 7
REMARK VINA RESULT:    -6.477      2.279      3.935
REMARK INTER + INTRA:         -10.126
REMARK INTER:                  -8.864
REMARK INTRA:                  -1.262
REMARK UNBOUND:                -1.377
REMARK  Name = 
REMARK  7 active torsions:
REMARK  status: ('A' for Active; 'I' for Inactive)
REMARK    1  A    between atoms: C_1  and  N_2
REMARK    2  A    between atoms: N_2  and  C_3
REMARK    3  A    between atoms: C_3  and  C_4
REMARK    4  A    between atoms: C_10  and  C_12
REMARK    5  A    between atoms: C_15  and  C_16
REMARK    6  A    between atoms: C_16  and  N_17
REMARK    7  A    between atoms: C_18  and  C_20
REMARK                            x       y       z     vdW  Elec       q    Type
REMARK                         _______ _______ _______ _____ _____    ______ ____
ROOT
ATOM      1  C   UNL     1      49.045   5.506  17.428  0.00  0.00    +0.000 A 
ATOM      2  C   UNL     1      48.121   4.837  16.632  0.00  0.00    +0.000 A 
ATOM      3  C   UNL     1      47.842   5.340  15.363  0.00  0.00    +0.000 A 
ATOM      4  C   UNL     1      48.491   6.495  14.920  0.00  0.00    +0.000 A 
ATOM      5  C   UNL     1      49.429   7.068  15.770  0.00  0.00    +0.000 A 
ATOM      6  N   UNL     1      49.719   6.605  17.005  0.00  0.00    +0.000 NA
ENDROOT
BRANCH   1   9
ATOM      7  C   UNL     1      49.064   4.748  21.184  0.00  0.00    +0.000 C 
ATOM      8  N   UNL     1      48.634   5.322  19.920  0.00  0.00    +0.000 N 
ATOM      9  C   UNL     1      49.370   4.950  18.781  0.00  0.00    +0.000 C 
ATOM     10  O   UNL     1      50.302   4.145  18.857  0.00  0.00    +0.000 OA
BRANCH   8  11
ATOM     11  C   UNL     1      47.341   6.010  19.899  0.00  0.00    +0.000 C 
BRANCH  11  12
ATOM     12  C   UNL     1      47.417   7.497  20.111  0.00  0.00    +0.000 A 
ATOM     13  C   UNL     1      47.647   8.056  21.372  0.00  0.00    +0.000 A 
ATOM     14  C   UNL     1      47.797   9.435  21.503  0.00  0.00    +0.000 A 
ATOM     15  C   UNL     1      47.706  10.218  20.366  0.00  0.00    +0.000 A 
ATOM     16  N   UNL     1      47.470   9.722  19.133  0.00  0.00    +0.000 NA
ATOM     17  C   UNL     1      47.332   8.378  19.038  0.00  0.00    +0.000 A 
ENDBRANCH  11  12
ENDBRANCH   8  11
ENDBRANCH   1   9
BRANCH   4  18
ATOM     18  C   UNL     1      48.230   7.073  13.561  0.00  0.00    +0.000 C 
BRANCH  18  19
ATOM     19  N   UNL     1      47.466   6.161  12.750  0.00  0.00    +0.000 N 
ATOM     20  C   UNL     1      46.531   6.621  11.860  0.00  0.00    +0.000 C 
ATOM     21  O   UNL     1      46.350   7.822  11.675  0.00  0.00    +0.000 OA
ATOM     22  H   UNL     1      47.430   5.190  13.047  0.00  0.00    +0.000 HD
BRANCH  20  23
ATOM     23  C   UNL     1      45.802   5.608  11.087  0.00  0.00    +0.000 A 
ATOM     24  C   UNL     1      45.858   5.632   9.701  0.00  0.00    +0.000 A 
ATOM     25  S   UNL     1      45.004   4.358   8.957  0.00  0.00    +0.000 S 
ATOM     26  C   UNL     1      44.487   3.756  10.462  0.00  0.00    +0.000 A 
ATOM     27  N   UNL     1      43.681   2.662  10.537  0.00  0.00    +0.000 NA
ATOM     28  C   UNL     1      43.337   2.334  11.737  0.00  0.00    +0.000 A 
ATOM     29  N   UNL     1      43.727   3.000  12.871  0.00  0.00    +0.000 N 
ATOM     30  C   UNL     1      44.566   4.089  12.848  0.00  0.00    +0.000 A 
ATOM     31  O   UNL     1      44.935   4.634  13.881  0.00  0.00    +0.000 OA
ATOM     32  C   UNL     1      44.972   4.508  11.518  0.00  0.00    +0.000 A 
ATOM     33  H   UNL     1      43.427   2.685  13.782  0.00  0.00    +0.000 HD
ENDBRANCH  20  23
ENDBRANCH  18  19
ENDBRANCH   4  18
TORSDOF 6
ENDMDL
MODEL 8
REMARK VINA RESULT:    -6.463      2.133      2.726
REMARK INTER + INTRA:         -10.107
REMARK INTER:                  -8.581
REMARK INTRA:                  -1.526
REMARK UNBOUND:                -1.377
REMARK  Name = 
REMARK  7 active torsions:
REMARK  status: ('A' for Active; 'I' for Inactive)
REMARK    1  A    between atoms: C_1  and  N_2
REMARK    2  A    between atoms: N_2  and  C_3
REMARK    3  A    between atoms: C_3  and  C_4
REMARK    4  A    between atoms: C_10  and  C_12
REMARK    5  A    between atoms: C_15  and  C_16
REMARK    6  A    between atoms: C_16  and  N_17
REMARK    7  A    between atoms: C_18  and  C_20
REMARK                            x       y       z     vdW  Elec       q    Type
REMARK                         _______ _______ _______ _____ _____    ______ ____
ROOT
ATOM      1  C   UNL     1      50.553   6.930  17.412  0.00  0.00    +0.000 A 
ATOM      2  C   UNL     1      49.721   7.942  17.879  0.00  0.00    +0.000 A 
ATOM      3  C   UNL     1      48.906   8.613  16.969  0.00  0.00    +0.000 A 
ATOM      4  C   UNL     1      48.942   8.259  15.618  0.00  0.00    +0.000 A 
ATOM      5  C   UNL     1      49.774   7.206  15.254  0.00  0.00    +0.000 A 
ATOM      6  N   UNL     1      50.576   6.539  16.112  0.00  0.00    +0.000 NA
ENDROOT
BRANCH   1   9
ATOM      7  C   UNL     1      51.766   4.742  20.314  0.00  0.00    +0.000 C 
ATOM      8  N   UNL     1      50.840   5.385  19.398  0.00  0.00    +0.000 N 
ATOM      9  C   UNL     1      51.408   6.187  18.392  0.00  0.00    +0.000 C 
ATOM     10  O   UNL     1      52.632   6.296  18.278  0.00  0.00    +0.000 OA
BRANCH   8  11
ATOM     11  C   UNL     1      49.444   4.942  19.432  0.00  0.00    +0.000 C 
BRANCH  11  12
ATOM     12  C   UNL     1      49.028   4.087  18.266  0.00  0.00    +0.000 A 
ATOM     13  C   UNL     1      49.842   3.066  17.767  0.00  0.00    +0.000 A 
ATOM     14  C   UNL     1      49.376   2.245  16.742  0.00  0.00    +0.000 A 
ATOM     15  C   UNL     1      48.106   2.473  16.241  0.00  0.00    +0.000 A 
ATOM     16  N   UNL     1      47.294   3.457  16.684  0.00  0.00    +0.000 NA
ATOM     17  C   UNL     1      47.774   4.236  17.681  0.00  0.00    +0.000 A 
ENDBRANCH  11  12
ENDBRANCH   8  11
ENDBRANCH   1   9
BRANCH   4  18
ATOM     18  C   UNL     1      48.081   8.945  14.601  0.00  0.00    +0.000 C 
BRANCH  18  19
ATOM     19  N   UNL     1      47.077   8.051  14.085  0.00  0.00    +0.000 N 
ATOM     20  C   UNL     1      46.805   7.993  12.744  0.00  0.00    +0.000 C 
ATOM     21  O   UNL     1      47.441   8.652  11.925  0.00  0.00    +0.000 OA
ATOM     22  H   UNL     1      46.397   7.683  14.744  0.00  0.00    +0.000 HD
BRANCH  20  23
ATOM     23  C   UNL     1      45.759   7.053  12.323  0.00  0.00    +0.000 A 
ATOM     24  C   UNL     1      44.639   7.527  11.655  0.00  0.00    +0.000 A 
ATOM     25  S   UNL     1      43.548   6.303  11.189  0.00  0.00    +0.000 S 
ATOM     26  C   UNL     1      44.510   5.099  11.910  0.00  0.00    +0.000 A 
ATOM     27  N   UNL     1      44.124   3.794  11.892  0.00  0.00    +0.000 NA
ATOM     28  C   UNL     1      44.928   2.991  12.504  0.00  0.00    +0.000 A 
ATOM     29  N   UNL     1      46.086   3.374  13.133  0.00  0.00    +0.000 N 
ATOM     30  C   UNL     1      46.533   4.675  13.149  0.00  0.00    +0.000 A 
ATOM     31  O   UNL     1      47.595   4.979  13.678  0.00  0.00    +0.000 OA
ATOM     32  C   UNL     1      45.655   5.622  12.484  0.00  0.00    +0.000 A 
ATOM     33  H   UNL     1      46.674   2.693  13.588  0.00  0.00    +0.000 HD
ENDBRANCH  20  23
ENDBRANCH  18  19
ENDBRANCH   4  18
TORSDOF 6
ENDMDL
MODEL 9
REMARK VINA RESULT:    -6.337      4.025      8.649
REMARK INTER + INTRA:          -9.936
REMARK INTER:                  -8.790
REMARK INTRA:                  -1.147
REMARK UNBOUND:                -1.377
REMARK  Name = 
REMARK  7 active torsions:
REMARK  status: ('A' for Active; 'I' for Inactive)
REMARK    1  A    between atoms: C_1  and  N_2
REMARK    2  A    between atoms: N_2  and  C_3
REMARK    3  A    between atoms: C_3  and  C_4
REMARK    4  A    between atoms: C_10  and  C_12
REMARK    5  A    between atoms: C_15  and  C_16
REMARK    6  A    between atoms: C_16  and  N_17
REMARK    7  A    between atoms: C_18  and  C_20
REMARK                            x       y       z     vdW  Elec       q    Type
REMARK                         _______ _______ _______ _____ _____    ______ ____
ROOT
ATOM      1  C   UNL     1      45.744   6.058  12.739  0.00  0.00    +0.000 A 
ATOM      2  C   UNL     1      47.114   6.140  12.511  0.00  0.00    +0.000 A 
ATOM      3  C   UNL     1      47.683   7.395  12.301  0.00  0.00    +0.000 A 
ATOM      4  C   UNL     1      46.874   8.533  12.323  0.00  0.00    +0.000 A 
ATOM      5  C   UNL     1      45.524   8.353  12.601  0.00  0.00    +0.000 A 
ATOM      6  N   UNL     1      44.943   7.152  12.806  0.00  0.00    +0.000 NA
ENDROOT
BRANCH   1   9
ATOM      7  C   UNL     1      43.619   2.878  12.499  0.00  0.00    +0.000 C 
ATOM      8  N   UNL     1      44.168   4.171  12.129  0.00  0.00    +0.000 N 
ATOM      9  C   UNL     1      45.133   4.713  12.995  0.00  0.00    +0.000 C 
ATOM     10  O   UNL     1      45.518   4.094  13.991  0.00  0.00    +0.000 OA
BRANCH   8  11
ATOM     11  C   UNL     1      43.874   4.665  10.781  0.00  0.00    +0.000 C 
BRANCH  11  12
ATOM     12  C   UNL     1      44.776   4.125   9.704  0.00  0.00    +0.000 A 
ATOM     13  C   UNL     1      44.821   2.764   9.388  0.00  0.00    +0.000 A 
ATOM     14  C   UNL     1      45.607   2.324   8.324  0.00  0.00    +0.000 A 
ATOM     15  C   UNL     1      46.331   3.262   7.610  0.00  0.00    +0.000 A 
ATOM     16  N   UNL     1      46.328   4.582   7.891  0.00  0.00    +0.000 NA
ATOM     17  C   UNL     1      45.553   4.978   8.927  0.00  0.00    +0.000 A 
ENDBRANCH  11  12
ENDBRANCH   8  11
ENDBRANCH   1   9
BRANCH   4  18
ATOM     18  C   UNL     1      47.439   9.905  12.108  0.00  0.00    +0.000 C 
BRANCH  18  19
ATOM     19  N   UNL     1      47.903  10.472  13.348  0.00  0.00    +0.000 N 
ATOM     20  C   UNL     1      49.243  10.602  13.607  0.00  0.00    +0.000 C 
ATOM     21  O   UNL     1      50.095  10.297  12.777  0.00  0.00    +0.000 OA
ATOM     22  H   UNL     1      47.244  10.508  14.120  0.00  0.00    +0.000 HD
BRANCH  20  23
ATOM     23  C   UNL     1      49.609  11.186  14.903  0.00  0.00    +0.000 A 
ATOM     24  C   UNL     1      50.404  12.322  14.943  0.00  0.00    +0.000 A 
ATOM     25  S   UNL     1      50.693  12.904  16.519  0.00  0.00    +0.000 S 
ATOM     26  C   UNL     1      49.805  11.627  17.209  0.00  0.00    +0.000 A 
ATOM     27  N   UNL     1      49.677  11.517  18.559  0.00  0.00    +0.000 NA
ATOM     28  C   UNL     1      49.008  10.484  18.948  0.00  0.00    +0.000 A 
ATOM     29  N   UNL     1      48.452   9.551  18.110  0.00  0.00    +0.000 N 
ATOM     30  C   UNL     1      48.527   9.639  16.740  0.00  0.00    +0.000 A 
ATOM     31  O   UNL     1      47.980   8.815  16.015  0.00  0.00    +0.000 OA
ATOM     32  C   UNL     1      49.283  10.778  16.250  0.00  0.00    +0.000 A 
ATOM     33  H   UNL     1      47.933   8.769  18.481  0.00  0.00    +0.000 HD
ENDBRANCH  20  23
ENDBRANCH  18  19
ENDBRANCH   4  18
TORSDOF 6
ENDMDL
