MODEL 1
REMARK VINA RESULT:    -8.093      0.000      0.000
REMARK INTER + INTRA:         -12.779
REMARK INTER:                 -11.877
REMARK INTRA:                  -0.902
REMARK UNBOUND:                -0.902
REMARK  Name = 
REMARK  10 active torsions:
REMARK  status: ('A' for Active; 'I' for Inactive)
REMARK    1  A    between atoms: C_1  and  C_2
REMARK    2  A    between atoms: C_2  and  N_3
REMARK    3  A    between atoms: C_2  and  C_21
REMARK    4  A    between atoms: N_3  and  C_4
REMARK    5  A    between atoms: C_4  and  C_5
REMARK    6  A    between atoms: C_8  and  C_9
REMARK    7  A    between atoms: C_9  and  C_10
REMARK    8  A    between atoms: C_10  and  N_11
REMARK    9  A    between atoms: N_11  and  C_12
REMARK   10  A    between atoms: N_16  and  C_17
REMARK                            x       y       z     vdW  Elec       q    Type
REMARK                         _______ _______ _______ _____ _____    ______ ____
ROOT
ATOM      1  C   UNL     1      46.549   4.519  13.288  0.00  0.00    +0.000 A 
ATOM      2  C   UNL     1      45.798   3.396  12.931  0.00  0.00    +0.000 A 
ATOM      3  C   UNL     1      45.036   3.399  11.765  0.00  0.00    +0.000 A 
ATOM      4  C   UNL     1      44.981   4.536  10.947  0.00  0.00    +0.000 A 
ATOM      5  C   UNL     1      45.743   5.657  11.301  0.00  0.00    +0.000 A 
ATOM      6  C   UNL     1      46.516   5.649  12.461  0.00  0.00    +0.000 A 
ENDROOT
BRANCH   1   7
ATOM      7  C   UNL     1      47.334   4.547  14.573  0.00  0.00    +0.000 C 
BRANCH   7   8
ATOM      8  N   UNL     1      47.663   3.203  15.061  0.00  0.00    +0.000 NA
ATOM      9  H   UNL     1      46.906   2.576  14.787  0.00  0.00    +0.000 HD
BRANCH   8  11
ATOM     10  C   UNL     1      47.034   4.387  17.154  0.00  0.00    +0.000 C 
ATOM     11  C   UNL     1      47.754   3.181  16.530  0.00  0.00    +0.000 C 
BRANCH  11  12
ATOM     12  C   UNL     1      49.187   3.136  17.042  0.00  0.00    +0.000 C 
ATOM     13  C   UNL     1      49.707   4.389  17.590  0.00  0.00    +0.000 C 
ATOM     14  C   UNL     1      50.975   4.486  18.023  0.00  0.00    +0.000 C 
ATOM     15  C   UNL     1      51.867   3.336  17.970  0.00  0.00    +0.000 C 
ATOM     16  C   UNL     1      53.155   3.436  18.366  0.00  0.00    +0.000 C 
ATOM     17  N   UNL     1      54.063   2.397  18.344  0.00  0.00    +0.000 NA
ATOM     18  C   UNL     1      53.591   1.262  17.914  0.00  0.00    +0.000 C 
ATOM     19  C   UNL     1      52.196   1.034  17.470  0.00  0.00    +0.000 C 
ATOM     20  N   UNL     1      51.338   2.114  17.491  0.00  0.00    +0.000 N 
ATOM     21  C   UNL     1      50.013   2.069  17.041  0.00  0.00    +0.000 C 
ENDBRANCH  11  12
ENDBRANCH   8  11
ENDBRANCH   7   8
ENDBRANCH   1   7
BRANCH   4  22
ATOM     22  C   UNL     1      44.167   4.580   9.678  0.00  0.00    +0.000 C 
BRANCH  22  23
ATOM     23  C   UNL     1      44.716   3.789   8.480  0.00  0.00    +0.000 C 
BRANCH  23  24
ATOM     24  N   UNL     1      45.964   4.357   7.957  0.00  0.00    +0.000 NA
ATOM     25  H   UNL     1      46.456   4.862   8.691  0.00  0.00    +0.000 HD
BRANCH  24  26
ATOM     26  C   UNL     1      46.838   3.353   7.331  0.00  0.00    +0.000 C 
ATOM     27  C   UNL     1      46.778   3.414   5.798  0.00  0.00    +0.000 C 
ATOM     28  C   UNL     1      47.601   2.290   5.184  0.00  0.00    +0.000 C 
ATOM     29  C   UNL     1      47.152   0.932   5.713  0.00  0.00    +0.000 C 
ATOM     30  N   UNL     1      47.260   0.872   7.175  0.00  0.00    +0.000 NA
ATOM     31  C   UNL     1      46.853  -0.446   7.659  0.00  0.00    +0.000 C 
ATOM     32  C   UNL     1      46.453   1.928   7.818  0.00  0.00    +0.000 C 
ENDBRANCH  24  26
ENDBRANCH  23  24
ENDBRANCH  22  23
ENDBRANCH   4  22
TORSDOF 8
ENDMDL
MODEL 2
REMARK VINA RESULT:    -7.905      1.810      9.625
REMARK INTER + INTRA:         -12.504
REMARK INTER:                 -11.468
REMARK INTRA:                  -1.036
REMARK UNBOUND:                -0.902
REMARK  Name = 
REMARK  10 active torsions:
REMARK  status: ('A' for Active; 'I' for Inactive)
REMARK    1  A    between atoms: C_1  and  C_2
REMARK    2  A    between atoms: C_2  and  N_3
REMARK    3  A    between atoms: C_2  and  C_21
REMARK    4  A    between atoms: N_3  and  C_4
REMARK    5  A    between atoms: C_4  and  C_5
REMARK    6  A    between atoms: C_8  and  C_9
REMARK    7  A    between atoms: C_9  and  C_10
REMARK    8  A    between atoms: C_10  and  N_11
REMARK    9  A    between atoms: N_11  and  C_12
REMARK   10  A    between atoms: N_16  and  C_17
REMARK                            x       y       z     vdW  Elec       q    Type
REMARK                         _______ _______ _______ _____ _____    ______ ____
ROOT
ATOM      1  C   UNL     1      45.455   6.379  12.314  0.00  0.00    +0.000 A 
ATOM      2  C   UNL     1      46.384   5.363  12.560  0.00  0.00    +0.000 A 
ATOM      3  C   UNL     1      47.544   5.629  13.284  0.00  0.00    +0.000 A 
ATOM      4  C   UNL     1      47.817   6.923  13.749  0.00  0.00    +0.000 A 
ATOM      5  C   UNL     1      46.881   7.936  13.511  0.00  0.00    +0.000 A 
ATOM      6  C   UNL     1      45.714   7.668  12.798  0.00  0.00    +0.000 A 
ENDROOT
BRANCH   1   7
ATOM      7  C   UNL     1      44.224   6.116  11.488  0.00  0.00    +0.000 C 
BRANCH   7   8
ATOM      8  N   UNL     1      44.542   5.696  10.119  0.00  0.00    +0.000 NA
ATOM      9  H   UNL     1      44.151   6.389   9.480  0.00  0.00    +0.000 HD
BRANCH   8  11
ATOM     10  C   UNL     1      43.576   3.621  11.085  0.00  0.00    +0.000 C 
ATOM     11  C   UNL     1      43.924   4.398   9.806  0.00  0.00    +0.000 C 
BRANCH  11  12
ATOM     12  C   UNL     1      44.787   3.522   8.909  0.00  0.00    +0.000 C 
ATOM     13  C   UNL     1      44.939   2.129   9.334  0.00  0.00    +0.000 C 
ATOM     14  C   UNL     1      45.721   1.276   8.653  0.00  0.00    +0.000 C 
ATOM     15  C   UNL     1      46.430   1.711   7.458  0.00  0.00    +0.000 C 
ATOM     16  C   UNL     1      47.249   0.870   6.790  0.00  0.00    +0.000 C 
ATOM     17  N   UNL     1      47.959   1.205   5.655  0.00  0.00    +0.000 NA
ATOM     18  C   UNL     1      47.781   2.425   5.235  0.00  0.00    +0.000 C 
ATOM     19  C   UNL     1      46.898   3.426   5.878  0.00  0.00    +0.000 C 
ATOM     20  N   UNL     1      46.232   3.043   7.024  0.00  0.00    +0.000 N 
ATOM     21  C   UNL     1      45.416   3.897   7.777  0.00  0.00    +0.000 C 
ENDBRANCH  11  12
ENDBRANCH   8  11
ENDBRANCH   7   8
ENDBRANCH   1   7
BRANCH   4  22
ATOM     22  C   UNL     1      49.064   7.251  14.534  0.00  0.00    +0.000 C 
BRANCH  22  23
ATOM     23  C   UNL     1      48.857   7.867  15.927  0.00  0.00    +0.000 C 
BRANCH  23  24
ATOM     24  N   UNL     1      48.374   6.888  16.907  0.00  0.00    +0.000 NA
ATOM     25  H   UNL     1      47.364   6.963  17.013  0.00  0.00    +0.000 HD
BRANCH  24  26
ATOM     26  C   UNL     1      48.768   5.507  16.587  0.00  0.00    +0.000 C 
ATOM     27  C   UNL     1      47.639   4.506  16.871  0.00  0.00    +0.000 C 
ATOM     28  C   UNL     1      48.116   3.079  16.641  0.00  0.00    +0.000 C 
ATOM     29  C   UNL     1      49.359   2.778  17.472  0.00  0.00    +0.000 C 
ATOM     30  N   UNL     1      50.445   3.712  17.156  0.00  0.00    +0.000 NA
ATOM     31  C   UNL     1      51.636   3.389  17.942  0.00  0.00    +0.000 C 
ATOM     32  C   UNL     1      50.038   5.112  17.392  0.00  0.00    +0.000 C 
ENDBRANCH  24  26
ENDBRANCH  23  24
ENDBRANCH  22  23
ENDBRANCH   4  22
TORSDOF 8
ENDMDL
MODEL 3
REMARK VINA RESULT:    -7.719      5.190      6.736
REMARK INTER + INTRA:         -12.231
REMARK INTER:                 -10.861
REMARK INTRA:                  -1.369
REMARK UNBOUND:                -0.902
REMARK  Name = 
REMARK  10 active torsions:
REMARK  status: ('A' for Active; 'I' for Inactive)
REMARK    1  A    between atoms: C_1  and  C_2
REMARK    2  A    between atoms: C_2  and  N_3
REMARK    3  A    between atoms: C_2  and  C_21
REMARK    4  A    between atoms: N_3  and  C_4
REMARK    5  A    between atoms: C_4  and  C_5
REMARK    6  A    between atoms: C_8  and  C_9
REMARK    7  A    between atoms: C_9  and  C_10
REMARK    8  A    between atoms: C_10  and  N_11
REMARK    9  A    between atoms: N_11  and  C_12
REMARK   10  A    between atoms: N_16  and  C_17
REMARK                            x       y       z     vdW  Elec       q    Type
REMARK                         _______ _______ _______ _____ _____    ______ ____
ROOT
ATOM      1  C   UNL     1      44.489   3.250   9.699  0.00  0.00    +0.000 A 
ATOM      2  C   UNL     1      44.931   4.390   9.021  0.00  0.00    +0.000 A 
ATOM      3  C   UNL     1      45.907   4.288   8.032  0.00  0.00    +0.000 A 
ATOM      4  C   UNL     1      46.484   3.050   7.721  0.00  0.00    +0.000 A 
ATOM      5  C   UNL     1      46.032   1.907   8.392  0.00  0.00    +0.000 A 
ATOM      6  C   UNL     1      45.047   2.007   9.373  0.00  0.00    +0.000 A 
ENDROOT
BRANCH   1   7
ATOM      7  C   UNL     1      43.475   3.355  10.806  0.00  0.00    +0.000 C 
BRANCH   7   8
ATOM      8  N   UNL     1      44.092   3.596  12.116  0.00  0.00    +0.000 NA
ATOM      9  H   UNL     1      43.713   2.912  12.771  0.00  0.00    +0.000 HD
BRANCH   8  11
ATOM     10  C   UNL     1      42.495   5.492  11.937  0.00  0.00    +0.000 C 
ATOM     11  C   UNL     1      43.754   4.937  12.621  0.00  0.00    +0.000 C 
BRANCH  11  12
ATOM     12  C   UNL     1      44.889   5.940  12.469  0.00  0.00    +0.000 C 
ATOM     13  C   UNL     1      46.241   5.378  12.480  0.00  0.00    +0.000 C 
ATOM     14  C   UNL     1      47.323   6.170  12.408  0.00  0.00    +0.000 C 
ATOM     15  C   UNL     1      47.180   7.615  12.301  0.00  0.00    +0.000 C 
ATOM     16  C   UNL     1      48.264   8.421  12.268  0.00  0.00    +0.000 C 
ATOM     17  N   UNL     1      48.214   9.796  12.172  0.00  0.00    +0.000 NA
ATOM     18  C   UNL     1      47.015  10.300  12.100  0.00  0.00    +0.000 C 
ATOM     19  C   UNL     1      45.759   9.513  12.111  0.00  0.00    +0.000 C 
ATOM     20  N   UNL     1      45.869   8.143  12.233  0.00  0.00    +0.000 N 
ATOM     21  C   UNL     1      44.774   7.275  12.326  0.00  0.00    +0.000 C 
ENDBRANCH  11  12
ENDBRANCH   8  11
ENDBRANCH   7   8
ENDBRANCH   1   7
BRANCH   4  22
ATOM     22  C   UNL     1      47.544   2.898   6.657  0.00  0.00    +0.000 C 
BRANCH  22  23
ATOM     23  C   UNL     1      47.084   2.341   5.301  0.00  0.00    +0.000 C 
BRANCH  23  24
ATOM     24  N   UNL     1      47.505   0.951   5.093  0.00  0.00    +0.000 NA
ATOM     25  H   UNL     1      47.187   0.367   5.864  0.00  0.00    +0.000 HD
BRANCH  24  26
ATOM     26  C   UNL     1      47.068   0.401   3.800  0.00  0.00    +0.000 C 
ATOM     27  C   UNL     1      45.763   1.047   3.313  0.00  0.00    +0.000 C 
ATOM     28  C   UNL     1      45.277   0.378   2.035  0.00  0.00    +0.000 C 
ATOM     29  C   UNL     1      45.122  -1.127   2.232  0.00  0.00    +0.000 C 
ATOM     30  N   UNL     1      46.387  -1.738   2.652  0.00  0.00    +0.000 NA
ATOM     31  C   UNL     1      46.225  -3.183   2.808  0.00  0.00    +0.000 C 
ATOM     32  C   UNL     1      46.885  -1.139   3.907  0.00  0.00    +0.000 C 
ENDBRANCH  24  26
ENDBRANCH  23  24
ENDBRANCH  22  23
ENDBRANCH   4  22
TORSDOF 8
ENDMDL
MODEL 4
REMARK VINA RESULT:    -7.450      2.643      3.752
REMARK INTER + INTRA:         -11.837
REMARK INTER:                 -10.326
REMARK INTRA:                  -1.510
REMARK UNBOUND:                -0.902
REMARK  Name = 
REMARK  10 active torsions:
REMARK  status: ('A' for Active; 'I' for Inactive)
REMARK    1  A    between atoms: C_1  and  C_2
REMARK    2  A    between atoms: C_2  and  N_3
REMARK    3  A    between atoms: C_2  and  C_21
REMARK    4  A    between atoms: N_3  and  C_4
REMARK    5  A    between atoms: C_4  and  C_5
REMARK    6  A    between atoms: C_8  and  C_9
REMARK    7  A    between atoms: C_9  and  C_10
REMARK    8  A    between atoms: C_10  and  N_11
REMARK    9  A    between atoms: N_11  and  C_12
REMARK   10  A    between atoms: N_16  and  C_17
REMARK                            x       y       z     vdW  Elec       q    Type
REMARK                         _______ _______ _______ _____ _____    ______ ____
ROOT
ATOM      1  C   UNL     1      46.653   6.872  12.918  0.00  0.00    +0.000 A 
ATOM      2  C   UNL     1      47.007   5.714  13.616  0.00  0.00    +0.000 A 
ATOM      3  C   UNL     1      46.267   4.544  13.461  0.00  0.00    +0.000 A 
ATOM      4  C   UNL     1      45.138   4.514  12.631  0.00  0.00    +0.000 A 
ATOM      5  C   UNL     1      44.792   5.672  11.923  0.00  0.00    +0.000 A 
ATOM      6  C   UNL     1      45.540   6.839  12.068  0.00  0.00    +0.000 A 
ENDROOT
BRANCH   1   7
ATOM      7  C   UNL     1      47.413   8.156  13.117  0.00  0.00    +0.000 C 
BRANCH   7   8
ATOM      8  N   UNL     1      47.120   8.790  14.408  0.00  0.00    +0.000 NA
ATOM      9  H   UNL     1      46.561   9.624  14.227  0.00  0.00    +0.000 HD
BRANCH   8  11
ATOM     10  C   UNL     1      49.322   9.899  14.099  0.00  0.00    +0.000 C 
ATOM     11  C   UNL     1      48.357   9.217  15.081  0.00  0.00    +0.000 C 
BRANCH  11  12
ATOM     12  C   UNL     1      49.082   8.078  15.784  0.00  0.00    +0.000 C 
ATOM     13  C   UNL     1      50.467   7.852  15.367  0.00  0.00    +0.000 C 
ATOM     14  C   UNL     1      51.190   6.841  15.878  0.00  0.00    +0.000 C 
ATOM     15  C   UNL     1      50.617   5.948  16.874  0.00  0.00    +0.000 C 
ATOM     16  C   UNL     1      51.325   4.905  17.363  0.00  0.00    +0.000 C 
ATOM     17  N   UNL     1      50.854   4.012  18.304  0.00  0.00    +0.000 NA
ATOM     18  C   UNL     1      49.643   4.243  18.724  0.00  0.00    +0.000 C 
ATOM     19  C   UNL     1      48.783   5.362  18.271  0.00  0.00    +0.000 C 
ATOM     20  N   UNL     1      49.297   6.209  17.311  0.00  0.00    +0.000 N 
ATOM     21  C   UNL     1      48.581   7.268  16.739  0.00  0.00    +0.000 C 
ENDBRANCH  11  12
ENDBRANCH   8  11
ENDBRANCH   7   8
ENDBRANCH   1   7
BRANCH   4  22
ATOM     22  C   UNL     1      44.310   3.267  12.439  0.00  0.00    +0.000 C 
BRANCH  22  23
ATOM     23  C   UNL     1      43.523   3.160  11.123  0.00  0.00    +0.000 C 
BRANCH  23  24
ATOM     24  N   UNL     1      44.070   2.138  10.223  0.00  0.00    +0.000 NA
ATOM     25  H   UNL     1      43.343   1.788   9.603  0.00  0.00    +0.000 HD
BRANCH  24  26
ATOM     26  C   UNL     1      45.235   2.607   9.456  0.00  0.00    +0.000 C 
ATOM     27  C   UNL     1      44.936   3.905   8.692  0.00  0.00    +0.000 C 
ATOM     28  C   UNL     1      46.119   4.299   7.820  0.00  0.00    +0.000 C 
ATOM     29  C   UNL     1      46.505   3.164   6.876  0.00  0.00    +0.000 C 
ATOM     30  N   UNL     1      46.834   1.945   7.623  0.00  0.00    +0.000 NA
ATOM     31  C   UNL     1      47.227   0.879   6.702  0.00  0.00    +0.000 C 
ATOM     32  C   UNL     1      45.702   1.506   8.464  0.00  0.00    +0.000 C 
ENDBRANCH  24  26
ENDBRANCH  23  24
ENDBRANCH  22  23
ENDBRANCH   4  22
TORSDOF 8
ENDMDL
MODEL 5
REMARK VINA RESULT:    -7.405      3.009      6.328
REMARK INTER + INTRA:         -11.769
REMARK INTER:                 -10.921
REMARK INTRA:                  -0.848
REMARK UNBOUND:                -0.902
REMARK  Name = 
REMARK  10 active torsions:
REMARK  status: ('A' for Active; 'I' for Inactive)
REMARK    1  A    between atoms: C_1  and  C_2
REMARK    2  A    between atoms: C_2  and  N_3
REMARK    3  A    between atoms: C_2  and  C_21
REMARK    4  A    between atoms: N_3  and  C_4
REMARK    5  A    between atoms: C_4  and  C_5
REMARK    6  A    between atoms: C_8  and  C_9
REMARK    7  A    between atoms: C_9  and  C_10
REMARK    8  A    between atoms: C_10  and  N_11
REMARK    9  A    between atoms: N_11  and  C_12
REMARK   10  A    between atoms: N_16  and  C_17
REMARK                            x       y       z     vdW  Elec       q    Type
REMARK                         _______ _______ _______ _____ _____    ______ ____
ROOT
ATOM      1  C   UNL     1      45.774   2.583   8.326  0.00  0.00    +0.000 A 
ATOM      2  C   UNL     1      45.844   3.563   7.331  0.00  0.00    +0.000 A 
ATOM      3  C   UNL     1      46.420   3.274   6.097  0.00  0.00    +0.000 A 
ATOM      4  C   UNL     1      46.968   2.010   5.840  0.00  0.00    +0.000 A 
ATOM      5  C   UNL     1      46.888   1.027   6.834  0.00  0.00    +0.000 A 
ATOM      6  C   UNL     1      46.299   1.312   8.065  0.00  0.00    +0.000 A 
ENDROOT
BRANCH   1   7
ATOM      7  C   UNL     1      45.201   2.899   9.682  0.00  0.00    +0.000 C 
BRANCH   7   8
ATOM      8  N   UNL     1      45.265   4.330  10.002  0.00  0.00    +0.000 NA
ATOM      9  H   UNL     1      46.249   4.594  10.060  0.00  0.00    +0.000 HD
BRANCH   8  11
ATOM     10  C   UNL     1      43.517   5.643  11.184  0.00  0.00    +0.000 C 
ATOM     11  C   UNL     1      44.647   4.609  11.308  0.00  0.00    +0.000 C 
BRANCH  11  12
ATOM     12  C   UNL     1      45.644   5.082  12.355  0.00  0.00    +0.000 C 
ATOM     13  C   UNL     1      46.373   6.310  12.032  0.00  0.00    +0.000 C 
ATOM     14  C   UNL     1      47.318   6.795  12.854  0.00  0.00    +0.000 C 
ATOM     15  C   UNL     1      47.634   6.116  14.103  0.00  0.00    +0.000 C 
ATOM     16  C   UNL     1      48.611   6.576  14.916  0.00  0.00    +0.000 C 
ATOM     17  N   UNL     1      48.974   5.990  16.111  0.00  0.00    +0.000 NA
ATOM     18  C   UNL     1      48.289   4.931  16.436  0.00  0.00    +0.000 C 
ATOM     19  C   UNL     1      47.190   4.349  15.631  0.00  0.00    +0.000 C 
ATOM     20  N   UNL     1      46.886   4.963  14.433  0.00  0.00    +0.000 N 
ATOM     21  C   UNL     1      45.920   4.490  13.535  0.00  0.00    +0.000 C 
ENDBRANCH  11  12
ENDBRANCH   8  11
ENDBRANCH   7   8
ENDBRANCH   1   7
BRANCH   4  22
ATOM     22  C   UNL     1      47.603   1.659   4.517  0.00  0.00    +0.000 C 
BRANCH  22  23
ATOM     23  C   UNL     1      46.770   0.787   3.564  0.00  0.00    +0.000 C 
BRANCH  23  24
ATOM     24  N   UNL     1      47.597  -0.146   2.790  0.00  0.00    +0.000 NA
ATOM     25  H   UNL     1      48.573  -0.065   3.066  0.00  0.00    +0.000 HD
BRANCH  24  26
ATOM     26  C   UNL     1      47.138  -1.541   2.886  0.00  0.00    +0.000 C 
ATOM     27  C   UNL     1      46.731  -1.916   4.318  0.00  0.00    +0.000 C 
ATOM     28  C   UNL     1      46.373  -3.393   4.406  0.00  0.00    +0.000 C 
ATOM     29  C   UNL     1      47.518  -4.264   3.898  0.00  0.00    +0.000 C 
ATOM     30  N   UNL     1      47.864  -3.927   2.513  0.00  0.00    +0.000 NA
ATOM     31  C   UNL     1      48.944  -4.791   2.036  0.00  0.00    +0.000 C 
ATOM     32  C   UNL     1      48.248  -2.507   2.383  0.00  0.00    +0.000 C 
ENDBRANCH  24  26
ENDBRANCH  23  24
ENDBRANCH  22  23
ENDBRANCH   4  22
TORSDOF 8
ENDMDL
MODEL 6
REMARK VINA RESULT:    -7.375      3.496      9.512
REMARK INTER + INTRA:         -11.726
REMARK INTER:                 -10.144
REMARK INTRA:                  -1.582
REMARK UNBOUND:                -0.902
REMARK  Name = 
REMARK  10 active torsions:
REMARK  status: ('A' for Active; 'I' for Inactive)
REMARK    1  A    between atoms: C_1  and  C_2
REMARK    2  A    between atoms: C_2  and  N_3
REMARK    3  A    between atoms: C_2  and  C_21
REMARK    4  A    between atoms: N_3  and  C_4
REMARK    5  A    between atoms: C_4  and  C_5
REMARK    6  A    between atoms: C_8  and  C_9
REMARK    7  A    between atoms: C_9  and  C_10
REMARK    8  A    between atoms: C_10  and  N_11
REMARK    9  A    between atoms: N_11  and  C_12
REMARK   10  A    between atoms: N_16  and  C_17
REMARK                            x       y       z     vdW  Elec       q    Type
REMARK                         _______ _______ _______ _____ _____    ______ ____
ROOT
ATOM      1  C   UNL     1      45.515   6.506  12.433  0.00  0.00    +0.000 A 
ATOM      2  C   UNL     1      46.798   6.080  12.074  0.00  0.00    +0.000 A 
ATOM      3  C   UNL     1      47.843   6.995  11.977  0.00  0.00    +0.000 A 
ATOM      4  C   UNL     1      47.623   8.360  12.205  0.00  0.00    +0.000 A 
ATOM      5  C   UNL     1      46.341   8.784  12.575  0.00  0.00    +0.000 A 
ATOM      6  C   UNL     1      45.298   7.866  12.685  0.00  0.00    +0.000 A 
ENDROOT
BRANCH   1   7
ATOM      7  C   UNL     1      44.366   5.535  12.489  0.00  0.00    +0.000 C 
BRANCH   7   8
ATOM      8  N   UNL     1      43.664   5.417  11.205  0.00  0.00    +0.000 NA
ATOM      9  H   UNL     1      42.716   5.771  11.335  0.00  0.00    +0.000 HD
BRANCH   8  11
ATOM     10  C   UNL     1      43.661   3.057  11.984  0.00  0.00    +0.000 C 
ATOM     11  C   UNL     1      43.565   4.011  10.783  0.00  0.00    +0.000 C 
BRANCH  11  12
ATOM     12  C   UNL     1      44.611   3.620   9.749  0.00  0.00    +0.000 C 
ATOM     13  C   UNL     1      45.278   4.730   9.067  0.00  0.00    +0.000 C 
ATOM     14  C   UNL     1      46.180   4.509   8.097  0.00  0.00    +0.000 C 
ATOM     15  C   UNL     1      46.531   3.151   7.705  0.00  0.00    +0.000 C 
ATOM     16  C   UNL     1      47.408   2.920   6.703  0.00  0.00    +0.000 C 
ATOM     17  N   UNL     1      47.789   1.667   6.270  0.00  0.00    +0.000 NA
ATOM     18  C   UNL     1      47.246   0.673   6.913  0.00  0.00    +0.000 C 
ATOM     19  C   UNL     1      46.287   0.808   8.034  0.00  0.00    +0.000 C 
ATOM     20  N   UNL     1      45.923   2.085   8.409  0.00  0.00    +0.000 N 
ATOM     21  C   UNL     1      44.979   2.369   9.404  0.00  0.00    +0.000 C 
ENDBRANCH  11  12
ENDBRANCH   8  11
ENDBRANCH   7   8
ENDBRANCH   1   7
BRANCH   4  22
ATOM     22  C   UNL     1      48.729   9.383  12.108  0.00  0.00    +0.000 C 
BRANCH  22  23
ATOM     23  C   UNL     1      49.829   9.311  13.179  0.00  0.00    +0.000 C 
BRANCH  23  24
ATOM     24  N   UNL     1      49.377   9.809  14.483  0.00  0.00    +0.000 NA
ATOM     25  H   UNL     1      48.392  10.061  14.442  0.00  0.00    +0.000 HD
BRANCH  24  26
ATOM     26  C   UNL     1      49.633   8.865  15.583  0.00  0.00    +0.000 C 
ATOM     27  C   UNL     1      49.725   7.415  15.086  0.00  0.00    +0.000 C 
ATOM     28  C   UNL     1      49.874   6.455  16.258  0.00  0.00    +0.000 C 
ATOM     29  C   UNL     1      48.740   6.637  17.261  0.00  0.00    +0.000 C 
ATOM     30  N   UNL     1      48.693   8.015  17.762  0.00  0.00    +0.000 NA
ATOM     31  C   UNL     1      47.618   8.162  18.743  0.00  0.00    +0.000 C 
ATOM     32  C   UNL     1      48.520   8.984  16.661  0.00  0.00    +0.000 C 
ENDBRANCH  24  26
ENDBRANCH  23  24
ENDBRANCH  22  23
ENDBRANCH   4  22
TORSDOF 8
ENDMDL
MODEL 7
REMARK VINA RESULT:    -7.178      4.544      8.385
REMARK INTER + INTRA:         -11.437
REMARK INTER:                 -10.105
REMARK INTRA:                  -1.332
REMARK UNBOUND:                -0.902
REMARK  Name = 
REMARK  10 active torsions:
REMARK  status: ('A' for Active; 'I' for Inactive)
REMARK    1  A    between atoms: C_1  and  C_2
REMARK    2  A    between atoms: C_2  and  N_3
REMARK    3  A    between atoms: C_2  and  C_21
REMARK    4  A    between atoms: N_3  and  C_4
REMARK    5  A    between atoms: C_4  and  C_5
REMARK    6  A    between atoms: C_8  and  C_9
REMARK    7  A    between atoms: C_9  and  C_10
REMARK    8  A    between atoms: C_10  and  N_11
REMARK    9  A    between atoms: N_11  and  C_12
REMARK   10  A    between atoms: N_16  and  C_17
REMARK                            x       y       z     vdW  Elec       q    Type
REMARK                         _______ _______ _______ _____ _____    ______ ____
ROOT
ATOM      1  C   UNL     1      47.472   6.714  12.795  0.00  0.00    +0.000 A 
ATOM      2  C   UNL     1      47.419   5.700  13.757  0.00  0.00    +0.000 A 
ATOM      3  C   UNL     1      46.472   4.684  13.658  0.00  0.00    +0.000 A 
ATOM      4  C   UNL     1      45.536   4.675  12.615  0.00  0.00    +0.000 A 
ATOM      5  C   UNL     1      45.597   5.685  11.647  0.00  0.00    +0.000 A 
ATOM      6  C   UNL     1      46.553   6.695  11.738  0.00  0.00    +0.000 A 
ENDROOT
BRANCH   1   7
ATOM      7  C   UNL     1      48.455   7.847  12.920  0.00  0.00    +0.000 C 
BRANCH   7   8
ATOM      8  N   UNL     1      47.835   9.080  13.418  0.00  0.00    +0.000 NA
ATOM      9  H   UNL     1      46.824   8.946  13.410  0.00  0.00    +0.000 HD
BRANCH   8  11
ATOM     10  C   UNL     1      48.629  11.434  13.346  0.00  0.00    +0.000 C 
ATOM     11  C   UNL     1      48.144  10.220  12.539  0.00  0.00    +0.000 C 
BRANCH  11  12
ATOM     12  C   UNL     1      46.970  10.638  11.664  0.00  0.00    +0.000 C 
ATOM     13  C   UNL     1      47.260  11.657  10.655  0.00  0.00    +0.000 C 
ATOM     14  C   UNL     1      46.293  12.144   9.860  0.00  0.00    +0.000 C 
ATOM     15  C   UNL     1      44.925  11.658   9.973  0.00  0.00    +0.000 C 
ATOM     16  C   UNL     1      43.939  12.172   9.206  0.00  0.00    +0.000 C 
ATOM     17  N   UNL     1      42.619  11.770   9.254  0.00  0.00    +0.000 NA
ATOM     18  C   UNL     1      42.365  10.819  10.108  0.00  0.00    +0.000 C 
ATOM     19  C   UNL     1      43.367  10.174  10.987  0.00  0.00    +0.000 C 
ATOM     20  N   UNL     1      44.667  10.633  10.913  0.00  0.00    +0.000 N 
ATOM     21  C   UNL     1      45.708  10.168  11.726  0.00  0.00    +0.000 C 
ENDBRANCH  11  12
ENDBRANCH   8  11
ENDBRANCH   7   8
ENDBRANCH   1   7
BRANCH   4  22
ATOM     22  C   UNL     1      44.493   3.593  12.475  0.00  0.00    +0.000 C 
BRANCH  22  23
ATOM     23  C   UNL     1      43.605   3.652  11.223  0.00  0.00    +0.000 C 
BRANCH  23  24
ATOM     24  N   UNL     1      43.908   2.579  10.269  0.00  0.00    +0.000 NA
ATOM     25  H   UNL     1      43.112   2.416   9.655  0.00  0.00    +0.000 HD
BRANCH  24  26
ATOM     26  C   UNL     1      45.131   2.828   9.489  0.00  0.00    +0.000 C 
ATOM     27  C   UNL     1      44.967   4.013   8.527  0.00  0.00    +0.000 C 
ATOM     28  C   UNL     1      46.205   4.171   7.654  0.00  0.00    +0.000 C 
ATOM     29  C   UNL     1      46.517   2.877   6.909  0.00  0.00    +0.000 C 
ATOM     30  N   UNL     1      46.717   1.764   7.843  0.00  0.00    +0.000 NA
ATOM     31  C   UNL     1      47.042   0.540   7.110  0.00  0.00    +0.000 C 
ATOM     32  C   UNL     1      45.528   1.553   8.693  0.00  0.00    +0.000 C 
ENDBRANCH  24  26
ENDBRANCH  23  24
ENDBRANCH  22  23
ENDBRANCH   4  22
TORSDOF 8
ENDMDL
MODEL 8
REMARK VINA RESULT:    -7.017      3.517      4.586
REMARK INTER + INTRA:         -11.201
REMARK INTER:                 -10.127
REMARK INTRA:                  -1.074
REMARK UNBOUND:                -0.902
REMARK  Name = 
REMARK  10 active torsions:
REMARK  status: ('A' for Active; 'I' for Inactive)
REMARK    1  A    between atoms: C_1  and  C_2
REMARK    2  A    between atoms: C_2  and  N_3
REMARK    3  A    between atoms: C_2  and  C_21
REMARK    4  A    between atoms: N_3  and  C_4
REMARK    5  A    between atoms: C_4  and  C_5
REMARK    6  A    between atoms: C_8  and  C_9
REMARK    7  A    between atoms: C_9  and  C_10
REMARK    8  A    between atoms: C_10  and  N_11
REMARK    9  A    between atoms: N_11  and  C_12
REMARK   10  A    between atoms: N_16  and  C_17
REMARK                            x       y       z     vdW  Elec       q    Type
REMARK                         _______ _______ _______ _____ _____    ______ ____
ROOT
ATOM      1  C   UNL     1      46.905   6.383  13.498  0.00  0.00    +0.000 A 
ATOM      2  C   UNL     1      45.855   7.062  12.873  0.00  0.00    +0.000 A 
ATOM      3  C   UNL     1      44.720   6.372  12.454  0.00  0.00    +0.000 A 
ATOM      4  C   UNL     1      44.623   4.984  12.619  0.00  0.00    +0.000 A 
ATOM      5  C   UNL     1      45.672   4.307  13.254  0.00  0.00    +0.000 A 
ATOM      6  C   UNL     1      46.802   4.999  13.686  0.00  0.00    +0.000 A 
ENDROOT
BRANCH   1   7
ATOM      7  C   UNL     1      48.159   7.108  13.907  0.00  0.00    +0.000 C 
BRANCH   7   8
ATOM      8  N   UNL     1      47.898   8.189  14.865  0.00  0.00    +0.000 NA
ATOM      9  H   UNL     1      47.854   9.065  14.344  0.00  0.00    +0.000 HD
BRANCH   8  11
ATOM     10  C   UNL     1      50.160   7.373  15.490  0.00  0.00    +0.000 C 
ATOM     11  C   UNL     1      48.991   8.305  15.844  0.00  0.00    +0.000 C 
BRANCH  11  12
ATOM     12  C   UNL     1      48.548   8.029  17.274  0.00  0.00    +0.000 C 
ATOM     13  C   UNL     1      48.020   9.180  18.009  0.00  0.00    +0.000 C 
ATOM     14  C   UNL     1      47.648   9.071  19.296  0.00  0.00    +0.000 C 
ATOM     15  C   UNL     1      47.748   7.796  19.992  0.00  0.00    +0.000 C 
ATOM     16  C   UNL     1      47.414   7.688  21.297  0.00  0.00    +0.000 C 
ATOM     17  N   UNL     1      47.483   6.520  22.029  0.00  0.00    +0.000 NA
ATOM     18  C   UNL     1      47.894   5.478  21.364  0.00  0.00    +0.000 C 
ATOM     19  C   UNL     1      48.272   5.477  19.932  0.00  0.00    +0.000 C 
ATOM     20  N   UNL     1      48.206   6.678  19.256  0.00  0.00    +0.000 N 
ATOM     21  C   UNL     1      48.593   6.847  17.920  0.00  0.00    +0.000 C 
ENDBRANCH  11  12
ENDBRANCH   8  11
ENDBRANCH   7   8
ENDBRANCH   1   7
BRANCH   4  22
ATOM     22  C   UNL     1      43.412   4.201  12.176  0.00  0.00    +0.000 C 
BRANCH  22  23
ATOM     23  C   UNL     1      43.633   2.714  11.855  0.00  0.00    +0.000 C 
BRANCH  23  24
ATOM     24  N   UNL     1      43.587   2.438  10.415  0.00  0.00    +0.000 NA
ATOM     25  H   UNL     1      42.784   2.898   9.993  0.00  0.00    +0.000 HD
BRANCH  24  26
ATOM     26  C   UNL     1      44.830   2.804   9.717  0.00  0.00    +0.000 C 
ATOM     27  C   UNL     1      44.653   4.055   8.845  0.00  0.00    +0.000 C 
ATOM     28  C   UNL     1      45.919   4.338   8.049  0.00  0.00    +0.000 C 
ATOM     29  C   UNL     1      46.325   3.125   7.219  0.00  0.00    +0.000 C 
ATOM     30  N   UNL     1      46.537   1.949   8.070  0.00  0.00    +0.000 NA
ATOM     31  C   UNL     1      46.953   0.805   7.259  0.00  0.00    +0.000 C 
ATOM     32  C   UNL     1      45.323   1.617   8.843  0.00  0.00    +0.000 C 
ENDBRANCH  24  26
ENDBRANCH  23  24
ENDBRANCH  22  23
ENDBRANCH   4  22
TORSDOF 8
ENDMDL
MODEL 9
REMARK VINA RESULT:    -6.937      2.881      4.362
REMARK INTER + INTRA:         -11.083
REMARK INTER:                  -9.993
REMARK INTRA:                  -1.090
REMARK UNBOUND:                -0.902
REMARK  Name = 
REMARK  10 active torsions:
REMARK  status: ('A' for Active; 'I' for Inactive)
REMARK    1  A    between atoms: C_1  and  C_2
REMARK    2  A    between atoms: C_2  and  N_3
REMARK    3  A    between atoms: C_2  and  C_21
REMARK    4  A    between atoms: N_3  and  C_4
REMARK    5  A    between atoms: C_4  and  C_5
REMARK    6  A    between atoms: C_8  and  C_9
REMARK    7  A    between atoms: C_9  and  C_10
REMARK    8  A    between atoms: C_10  and  N_11
REMARK    9  A    between atoms: N_11  and  C_12
REMARK   10  A    between atoms: N_16  and  C_17
REMARK                            x       y       z     vdW  Elec       q    Type
REMARK                         _______ _______ _______ _____ _____    ______ ____
ROOT
ATOM      1  C   UNL     1      47.561   6.721  13.059  0.00  0.00    +0.000 A 
ATOM      2  C   UNL     1      47.265   5.379  13.316  0.00  0.00    +0.000 A 
ATOM      3  C   UNL     1      45.953   4.918  13.233  0.00  0.00    +0.000 A 
ATOM      4  C   UNL     1      44.904   5.794  12.923  0.00  0.00    +0.000 A 
ATOM      5  C   UNL     1      45.204   7.136  12.656  0.00  0.00    +0.000 A 
ATOM      6  C   UNL     1      46.518   7.595  12.726  0.00  0.00    +0.000 A 
ENDROOT
BRANCH   1   7
ATOM      7  C   UNL     1      48.966   7.242  13.198  0.00  0.00    +0.000 C 
BRANCH   7   8
ATOM      8  N   UNL     1      49.020   8.551  13.861  0.00  0.00    +0.000 NA
ATOM      9  H   UNL     1      49.182   9.258  13.144  0.00  0.00    +0.000 HD
BRANCH   8  11
ATOM     10  C   UNL     1      51.478   8.303  14.130  0.00  0.00    +0.000 C 
ATOM     11  C   UNL     1      50.139   8.615  14.815  0.00  0.00    +0.000 C 
BRANCH  11  12
ATOM     12  C   UNL     1      49.962   7.689  16.011  0.00  0.00    +0.000 C 
ATOM     13  C   UNL     1      50.995   6.666  16.182  0.00  0.00    +0.000 C 
ATOM     14  C   UNL     1      50.917   5.758  17.169  0.00  0.00    +0.000 C 
ATOM     15  C   UNL     1      49.805   5.776  18.108  0.00  0.00    +0.000 C 
ATOM     16  C   UNL     1      49.699   4.842  19.079  0.00  0.00    +0.000 C 
ATOM     17  N   UNL     1      48.676   4.787  20.003  0.00  0.00    +0.000 NA
ATOM     18  C   UNL     1      47.785   5.730  19.896  0.00  0.00    +0.000 C 
ATOM     19  C   UNL     1      47.808   6.812  18.883  0.00  0.00    +0.000 C 
ATOM     20  N   UNL     1      48.842   6.803  17.968  0.00  0.00    +0.000 N 
ATOM     21  C   UNL     1      48.962   7.718  16.915  0.00  0.00    +0.000 C 
ENDBRANCH  11  12
ENDBRANCH   8  11
ENDBRANCH   7   8
ENDBRANCH   1   7
BRANCH   4  22
ATOM     22  C   UNL     1      43.470   5.334  12.826  0.00  0.00    +0.000 C 
BRANCH  22  23
ATOM     23  C   UNL     1      42.924   5.078  11.412  0.00  0.00    +0.000 C 
BRANCH  23  24
ATOM     24  N   UNL     1      43.918   5.353  10.368  0.00  0.00    +0.000 NA
ATOM     25  H   UNL     1      44.798   5.648  10.787  0.00  0.00    +0.000 HD
BRANCH  24  26
ATOM     26  C   UNL     1      44.125   4.219   9.454  0.00  0.00    +0.000 C 
ATOM     27  C   UNL     1      44.199   2.882  10.204  0.00  0.00    +0.000 C 
ATOM     28  C   UNL     1      44.530   1.746   9.245  0.00  0.00    +0.000 C 
ATOM     29  C   UNL     1      45.816   2.035   8.478  0.00  0.00    +0.000 C 
ATOM     30  N   UNL     1      45.714   3.292   7.729  0.00  0.00    +0.000 NA
ATOM     31  C   UNL     1      46.945   3.537   6.979  0.00  0.00    +0.000 C 
ATOM     32  C   UNL     1      45.422   4.431   8.623  0.00  0.00    +0.000 C 
ENDBRANCH  24  26
ENDBRANCH  23  24
ENDBRANCH  22  23
ENDBRANCH   4  22
TORSDOF 8
ENDMDL
