MODEL 1
REMARK VINA RESULT:    -8.548      0.000      0.000
REMARK INTER + INTRA:         -13.216
REMARK INTER:                 -12.046
REMARK INTRA:                  -1.171
REMARK UNBOUND:                -1.171
REMARK  Name = 
REMARK  9 active torsions:
REMARK  status: ('A' for Active; 'I' for Inactive)
REMARK    1  A    between atoms: C_1  and  C_2
REMARK    2  A    between atoms: C_2  and  C_3
REMARK    3  A    between atoms: C_2  and  C_13
REMARK    4  A    between atoms: C_3  and  C_4
REMARK    5  A    between atoms: C_7  and  C_8
REMARK    6  A    between atoms: C_17  and  O_18
REMARK    7  A    between atoms: O_18  and  C_19
REMARK    8  A    between atoms: N_22  and  S_23
REMARK    9  A    between atoms: S_23  and  C_24
REMARK                            x       y       z     vdW  Elec       q    Type
REMARK                         _______ _______ _______ _____ _____    ______ ____
ROOT
ATOM      1  C   UNL     1      45.050   5.368  11.943  0.00  0.00    +0.000 A 
ATOM      2  C   UNL     1      46.064   6.251  11.543  0.00  0.00    +0.000 A 
ATOM      3  C   UNL     1      47.253   6.362  12.270  0.00  0.00    +0.000 A 
ATOM      4  C   UNL     1      47.430   5.631  13.440  0.00  0.00    +0.000 A 
ATOM      5  C   UNL     1      46.397   4.825  13.918  0.00  0.00    +0.000 A 
ATOM      6  C   UNL     1      45.225   4.691  13.168  0.00  0.00    +0.000 A 
ENDROOT
BRANCH   1   8
ATOM      7  C   UNL     1      42.481   5.509  11.764  0.00  0.00    +0.000 C 
ATOM      8  C   UNL     1      43.811   5.155  11.071  0.00  0.00    +0.000 C 
BRANCH   8   9
ATOM      9  C   UNL     1      43.704   3.758  10.383  0.00  0.00    +0.000 C 
BRANCH   9  10
ATOM     10  C   UNL     1      44.702   3.324   9.330  0.00  0.00    +0.000 A 
ATOM     11  C   UNL     1      45.304   4.175   8.403  0.00  0.00    +0.000 A 
ATOM     12  C   UNL     1      46.238   3.675   7.493  0.00  0.00    +0.000 A 
ATOM     13  C   UNL     1      46.547   2.328   7.543  0.00  0.00    +0.000 A 
ATOM     14  N   UNL     1      45.973   1.448   8.409  0.00  0.00    +0.000 NA
ATOM     15  C   UNL     1      45.068   1.975   9.271  0.00  0.00    +0.000 A 
BRANCH  13  16
ATOM     16  C   UNL     1      47.598   1.781   6.622  0.00  0.00    +0.000 C 
ATOM     17  N   UNL     1      48.708   2.561   6.458  0.00  0.00    +0.000 N 
ATOM     18  O   UNL     1      47.471   0.713   6.036  0.00  0.00    +0.000 OA
ATOM     19  H   UNL     1      48.768   3.456   6.934  0.00  0.00    +0.000 HD
ATOM     20  H   UNL     1      49.430   2.272   5.816  0.00  0.00    +0.000 HD
ENDBRANCH  13  16
ENDBRANCH   9  10
ENDBRANCH   8   9
ENDBRANCH   1   8
BRANCH   5  21
ATOM     21  O   UNL     1      46.471   4.089  15.074  0.00  0.00    +0.000 OA
BRANCH  21  22
ATOM     22  C   UNL     1      47.718   4.197  15.777  0.00  0.00    +0.000 C 
ATOM     23  C   UNL     1      48.135   2.849  16.350  0.00  0.00    +0.000 C 
ATOM     24  C   UNL     1      47.697   2.870  17.805  0.00  0.00    +0.000 C 
ATOM     25  N   UNL     1      47.743   4.292  18.214  0.00  0.00    +0.000 NA
ATOM     26  C   UNL     1      47.551   5.122  16.990  0.00  0.00    +0.000 C 
BRANCH  25  27
ATOM     27  S   UNL     1      48.986   4.776  19.257  0.00  0.00    +0.000 S 
ATOM     28  C   UNL     1      48.791   6.545  19.237  0.00  0.00    +0.000 C 
ATOM     29  O   UNL     1      48.677   4.277  20.580  0.00  0.00    +0.000 OA
ATOM     30  O   UNL     1      50.252   4.481  18.621  0.00  0.00    +0.000 OA
ENDBRANCH  25  27
ENDBRANCH  21  22
ENDBRANCH   5  21
TORSDOF 7
ENDMDL
MODEL 2
REMARK VINA RESULT:    -7.962      1.187      1.663
REMARK INTER + INTRA:         -12.392
REMARK INTER:                 -11.415
REMARK INTRA:                  -0.977
REMARK UNBOUND:                -1.171
REMARK  Name = 
REMARK  9 active torsions:
REMARK  status: ('A' for Active; 'I' for Inactive)
REMARK    1  A    between atoms: C_1  and  C_2
REMARK    2  A    between atoms: C_2  and  C_3
REMARK    3  A    between atoms: C_2  and  C_13
REMARK    4  A    between atoms: C_3  and  C_4
REMARK    5  A    between atoms: C_7  and  C_8
REMARK    6  A    between atoms: C_17  and  O_18
REMARK    7  A    between atoms: O_18  and  C_19
REMARK    8  A    between atoms: N_22  and  S_23
REMARK    9  A    between atoms: S_23  and  C_24
REMARK                            x       y       z     vdW  Elec       q    Type
REMARK                         _______ _______ _______ _____ _____    ______ ____
ROOT
ATOM      1  C   UNL     1      45.286   5.126  12.140  0.00  0.00    +0.000 A 
ATOM      2  C   UNL     1      45.864   6.219  11.476  0.00  0.00    +0.000 A 
ATOM      3  C   UNL     1      47.118   6.711  11.850  0.00  0.00    +0.000 A 
ATOM      4  C   UNL     1      47.794   6.155  12.930  0.00  0.00    +0.000 A 
ATOM      5  C   UNL     1      47.198   5.138  13.675  0.00  0.00    +0.000 A 
ATOM      6  C   UNL     1      45.961   4.626  13.274  0.00  0.00    +0.000 A 
ENDROOT
BRANCH   1   8
ATOM      7  C   UNL     1      43.634   3.150  12.277  0.00  0.00    +0.000 C 
ATOM      8  C   UNL     1      43.978   4.511  11.640  0.00  0.00    +0.000 C 
BRANCH   8   9
ATOM      9  C   UNL     1      43.820   4.434  10.089  0.00  0.00    +0.000 C 
BRANCH   9  10
ATOM     10  C   UNL     1      44.818   3.679   9.236  0.00  0.00    +0.000 A 
ATOM     11  C   UNL     1      44.996   2.296   9.253  0.00  0.00    +0.000 A 
ATOM     12  C   UNL     1      45.926   1.696   8.399  0.00  0.00    +0.000 A 
ATOM     13  C   UNL     1      46.649   2.507   7.544  0.00  0.00    +0.000 A 
ATOM     14  N   UNL     1      46.534   3.864   7.502  0.00  0.00    +0.000 NA
ATOM     15  C   UNL     1      45.624   4.403   8.351  0.00  0.00    +0.000 A 
BRANCH  13  16
ATOM     16  C   UNL     1      47.603   1.880   6.569  0.00  0.00    +0.000 C 
ATOM     17  N   UNL     1      48.729   2.603   6.292  0.00  0.00    +0.000 N 
ATOM     18  O   UNL     1      47.386   0.798   6.038  0.00  0.00    +0.000 OA
ATOM     19  H   UNL     1      48.862   3.511   6.726  0.00  0.00    +0.000 HD
ATOM     20  H   UNL     1      49.387   2.258   5.609  0.00  0.00    +0.000 HD
ENDBRANCH  13  16
ENDBRANCH   9  10
ENDBRANCH   8   9
ENDBRANCH   1   8
BRANCH   5  21
ATOM     21  O   UNL     1      47.779   4.547  14.769  0.00  0.00    +0.000 OA
BRANCH  21  22
ATOM     22  C   UNL     1      47.710   5.320  15.977  0.00  0.00    +0.000 C 
ATOM     23  C   UNL     1      48.992   6.116  16.182  0.00  0.00    +0.000 C 
ATOM     24  C   UNL     1      49.831   5.300  17.149  0.00  0.00    +0.000 C 
ATOM     25  N   UNL     1      48.864   4.554  17.985  0.00  0.00    +0.000 NA
ATOM     26  C   UNL     1      47.615   4.383  17.188  0.00  0.00    +0.000 C 
BRANCH  25  27
ATOM     27  S   UNL     1      48.662   5.046  19.593  0.00  0.00    +0.000 S 
ATOM     28  C   UNL     1      50.254   5.763  19.941  0.00  0.00    +0.000 C 
ATOM     29  O   UNL     1      47.655   6.085  19.617  0.00  0.00    +0.000 OA
ATOM     30  O   UNL     1      48.539   3.863  20.417  0.00  0.00    +0.000 OA
ENDBRANCH  25  27
ENDBRANCH  21  22
ENDBRANCH   5  21
TORSDOF 7
ENDMDL
MODEL 3
REMARK VINA RESULT:    -7.690      4.007      5.237
REMARK INTER + INTRA:         -12.008
REMARK INTER:                 -10.688
REMARK INTRA:                  -1.320
REMARK UNBOUND:                -1.171
REMARK  Name = 
REMARK  9 active torsions:
REMARK  status: ('A' for Active; 'I' for Inactive)
REMARK    1  A    between atoms: C_1  and  C_2
REMARK    2  A    between atoms: C_2  and  C_3
REMARK    3  A    between atoms: C_2  and  C_13
REMARK    4  A    between atoms: C_3  and  C_4
REMARK    5  A    between atoms: C_7  and  C_8
REMARK    6  A    between atoms: C_17  and  O_18
REMARK    7  A    between atoms: O_18  and  C_19
REMARK    8  A    between atoms: N_22  and  S_23
REMARK    9  A    between atoms: S_23  and  C_24
REMARK                            x       y       z     vdW  Elec       q    Type
REMARK                         _______ _______ _______ _____ _____    ______ ____
ROOT
ATOM      1  C   UNL     1      45.084   5.148  12.007  0.00  0.00    +0.000 A 
ATOM      2  C   UNL     1      45.578   3.994  12.634  0.00  0.00    +0.000 A 
ATOM      3  C   UNL     1      46.615   4.068  13.569  0.00  0.00    +0.000 A 
ATOM      4  C   UNL     1      47.214   5.290  13.855  0.00  0.00    +0.000 A 
ATOM      5  C   UNL     1      46.816   6.437  13.170  0.00  0.00    +0.000 A 
ATOM      6  C   UNL     1      45.754   6.363  12.263  0.00  0.00    +0.000 A 
ENDROOT
BRANCH   1   8
ATOM      7  C   UNL     1      42.529   5.414  11.779  0.00  0.00    +0.000 C 
ATOM      8  C   UNL     1      43.864   5.076  11.087  0.00  0.00    +0.000 C 
BRANCH   8   9
ATOM      9  C   UNL     1      43.722   3.760  10.260  0.00  0.00    +0.000 C 
BRANCH   9  10
ATOM     10  C   UNL     1      44.766   3.360   9.238  0.00  0.00    +0.000 A 
ATOM     11  C   UNL     1      45.431   4.245   8.389  0.00  0.00    +0.000 A 
ATOM     12  C   UNL     1      46.402   3.773   7.502  0.00  0.00    +0.000 A 
ATOM     13  C   UNL     1      46.683   2.419   7.498  0.00  0.00    +0.000 A 
ATOM     14  N   UNL     1      46.049   1.507   8.286  0.00  0.00    +0.000 NA
ATOM     15  C   UNL     1      45.111   2.008   9.126  0.00  0.00    +0.000 A 
BRANCH  13  16
ATOM     16  C   UNL     1      47.771   1.899   6.604  0.00  0.00    +0.000 C 
ATOM     17  N   UNL     1      48.797   2.766   6.351  0.00  0.00    +0.000 N 
ATOM     18  O   UNL     1      47.742   0.777   6.114  0.00  0.00    +0.000 OA
ATOM     19  H   UNL     1      48.775   3.700   6.748  0.00  0.00    +0.000 HD
ATOM     20  H   UNL     1      49.536   2.493   5.720  0.00  0.00    +0.000 HD
ENDBRANCH  13  16
ENDBRANCH   9  10
ENDBRANCH   8   9
ENDBRANCH   1   8
BRANCH   5  21
ATOM     21  O   UNL     1      47.365   7.679  13.367  0.00  0.00    +0.000 OA
BRANCH  21  22
ATOM     22  C   UNL     1      47.854   8.316  12.177  0.00  0.00    +0.000 C 
ATOM     23  C   UNL     1      49.192   7.723  11.758  0.00  0.00    +0.000 C 
ATOM     24  C   UNL     1      50.248   8.673  12.297  0.00  0.00    +0.000 C 
ATOM     25  N   UNL     1      49.607  10.006  12.329  0.00  0.00    +0.000 NA
ATOM     26  C   UNL     1      48.136   9.797  12.461  0.00  0.00    +0.000 C 
BRANCH  25  27
ATOM     27  S   UNL     1      50.099  11.149  11.179  0.00  0.00    +0.000 S 
ATOM     28  C   UNL     1      51.521  10.344  10.473  0.00  0.00    +0.000 C 
ATOM     29  O   UNL     1      49.059  11.248  10.177  0.00  0.00    +0.000 OA
ATOM     30  O   UNL     1      50.578  12.320  11.881  0.00  0.00    +0.000 OA
ENDBRANCH  25  27
ENDBRANCH  21  22
ENDBRANCH   5  21
TORSDOF 7
ENDMDL
MODEL 4
REMARK VINA RESULT:    -7.616      3.874      4.979
REMARK INTER + INTRA:         -11.903
REMARK INTER:                 -10.629
REMARK INTRA:                  -1.274
REMARK UNBOUND:                -1.171
REMARK  Name = 
REMARK  9 active torsions:
REMARK  status: ('A' for Active; 'I' for Inactive)
REMARK    1  A    between atoms: C_1  and  C_2
REMARK    2  A    between atoms: C_2  and  C_3
REMARK    3  A    between atoms: C_2  and  C_13
REMARK    4  A    between atoms: C_3  and  C_4
REMARK    5  A    between atoms: C_7  and  C_8
REMARK    6  A    between atoms: C_17  and  O_18
REMARK    7  A    between atoms: O_18  and  C_19
REMARK    8  A    between atoms: N_22  and  S_23
REMARK    9  A    between atoms: S_23  and  C_24
REMARK                            x       y       z     vdW  Elec       q    Type
REMARK                         _______ _______ _______ _____ _____    ______ ____
ROOT
ATOM      1  C   UNL     1      45.194   5.158  11.990  0.00  0.00    +0.000 A 
ATOM      2  C   UNL     1      45.512   4.078  12.827  0.00  0.00    +0.000 A 
ATOM      3  C   UNL     1      46.578   4.154  13.729  0.00  0.00    +0.000 A 
ATOM      4  C   UNL     1      47.378   5.291  13.773  0.00  0.00    +0.000 A 
ATOM      5  C   UNL     1      47.150   6.337  12.880  0.00  0.00    +0.000 A 
ATOM      6  C   UNL     1      46.061   6.270  12.006  0.00  0.00    +0.000 A 
ENDROOT
BRANCH   1   8
ATOM      7  C   UNL     1      42.641   5.496  11.829  0.00  0.00    +0.000 C 
ATOM      8  C   UNL     1      43.947   5.117  11.103  0.00  0.00    +0.000 C 
BRANCH   8   9
ATOM      9  C   UNL     1      43.746   3.803  10.285  0.00  0.00    +0.000 C 
BRANCH   9  10
ATOM     10  C   UNL     1      44.747   3.374   9.232  0.00  0.00    +0.000 A 
ATOM     11  C   UNL     1      45.372   4.234   8.329  0.00  0.00    +0.000 A 
ATOM     12  C   UNL     1      46.306   3.737   7.416  0.00  0.00    +0.000 A 
ATOM     13  C   UNL     1      46.591   2.384   7.441  0.00  0.00    +0.000 A 
ATOM     14  N   UNL     1      45.994   1.496   8.282  0.00  0.00    +0.000 NA
ATOM     15  C   UNL     1      45.091   2.020   9.147  0.00  0.00    +0.000 A 
BRANCH  13  16
ATOM     16  C   UNL     1      47.642   1.839   6.517  0.00  0.00    +0.000 C 
ATOM     17  N   UNL     1      48.764   2.606   6.376  0.00  0.00    +0.000 N 
ATOM     18  O   UNL     1      47.504   0.784   5.912  0.00  0.00    +0.000 OA
ATOM     19  H   UNL     1      48.832   3.491   6.868  0.00  0.00    +0.000 HD
ATOM     20  H   UNL     1      49.487   2.318   5.733  0.00  0.00    +0.000 HD
ENDBRANCH  13  16
ENDBRANCH   9  10
ENDBRANCH   8   9
ENDBRANCH   1   8
BRANCH   5  21
ATOM     21  O   UNL     1      47.902   7.484  12.834  0.00  0.00    +0.000 OA
BRANCH  21  22
ATOM     22  C   UNL     1      49.320   7.271  12.759  0.00  0.00    +0.000 C 
ATOM     23  C   UNL     1      50.050   8.134  13.779  0.00  0.00    +0.000 C 
ATOM     24  C   UNL     1      50.531   9.354  13.012  0.00  0.00    +0.000 C 
ATOM     25  N   UNL     1      50.740   8.895  11.621  0.00  0.00    +0.000 NA
ATOM     26  C   UNL     1      49.841   7.728  11.390  0.00  0.00    +0.000 C 
BRANCH  25  27
ATOM     27  S   UNL     1      52.335   8.729  11.073  0.00  0.00    +0.000 S 
ATOM     28  C   UNL     1      52.431  10.040   9.874  0.00  0.00    +0.000 C 
ATOM     29  O   UNL     1      53.218   9.028  12.179  0.00  0.00    +0.000 OA
ATOM     30  O   UNL     1      52.437   7.481  10.348  0.00  0.00    +0.000 OA
ENDBRANCH  25  27
ENDBRANCH  21  22
ENDBRANCH   5  21
TORSDOF 7
ENDMDL
MODEL 5
REMARK VINA RESULT:    -7.556      4.101      5.710
REMARK INTER + INTRA:         -11.818
REMARK INTER:                 -10.739
REMARK INTRA:                  -1.079
REMARK UNBOUND:                -1.171
REMARK  Name = 
REMARK  9 active torsions:
REMARK  status: ('A' for Active; 'I' for Inactive)
REMARK    1  A    between atoms: C_1  and  C_2
REMARK    2  A    between atoms: C_2  and  C_3
REMARK    3  A    between atoms: C_2  and  C_13
REMARK    4  A    between atoms: C_3  and  C_4
REMARK    5  A    between atoms: C_7  and  C_8
REMARK    6  A    between atoms: C_17  and  O_18
REMARK    7  A    between atoms: O_18  and  C_19
REMARK    8  A    between atoms: N_22  and  S_23
REMARK    9  A    between atoms: S_23  and  C_24
REMARK                            x       y       z     vdW  Elec       q    Type
REMARK                         _______ _______ _______ _____ _____    ______ ____
ROOT
ATOM      1  C   UNL     1      45.076   4.410  12.352  0.00  0.00    +0.000 A 
ATOM      2  C   UNL     1      45.875   3.417  12.940  0.00  0.00    +0.000 A 
ATOM      3  C   UNL     1      46.976   3.753  13.733  0.00  0.00    +0.000 A 
ATOM      4  C   UNL     1      47.332   5.085  13.911  0.00  0.00    +0.000 A 
ATOM      5  C   UNL     1      46.620   6.088  13.253  0.00  0.00    +0.000 A 
ATOM      6  C   UNL     1      45.498   5.749  12.491  0.00  0.00    +0.000 A 
ENDROOT
BRANCH   1   8
ATOM      7  C   UNL     1      43.289   2.612  11.879  0.00  0.00    +0.000 C 
ATOM      8  C   UNL     1      43.798   4.039  11.597  0.00  0.00    +0.000 C 
BRANCH   8   9
ATOM      9  C   UNL     1      43.822   4.307  10.060  0.00  0.00    +0.000 C 
BRANCH   9  10
ATOM     10  C   UNL     1      44.832   3.625   9.160  0.00  0.00    +0.000 A 
ATOM     11  C   UNL     1      45.132   2.263   9.187  0.00  0.00    +0.000 A 
ATOM     12  C   UNL     1      46.059   1.729   8.289  0.00  0.00    +0.000 A 
ATOM     13  C   UNL     1      46.658   2.582   7.381  0.00  0.00    +0.000 A 
ATOM     14  N   UNL     1      46.423   3.922   7.326  0.00  0.00    +0.000 NA
ATOM     15  C   UNL     1      45.520   4.398   8.218  0.00  0.00    +0.000 A 
BRANCH  13  16
ATOM     16  C   UNL     1      47.606   2.020   6.361  0.00  0.00    +0.000 C 
ATOM     17  N   UNL     1      48.873   2.530   6.384  0.00  0.00    +0.000 N 
ATOM     18  O   UNL     1      47.269   1.171   5.545  0.00  0.00    +0.000 OA
ATOM     19  H   UNL     1      49.111   3.256   7.054  0.00  0.00    +0.000 HD
ATOM     20  H   UNL     1      49.545   2.229   5.694  0.00  0.00    +0.000 HD
ENDBRANCH  13  16
ENDBRANCH   9  10
ENDBRANCH   8   9
ENDBRANCH   1   8
BRANCH   5  21
ATOM     21  O   UNL     1      46.912   7.426  13.349  0.00  0.00    +0.000 OA
BRANCH  21  22
ATOM     22  C   UNL     1      46.614   8.192  12.173  0.00  0.00    +0.000 C 
ATOM     23  C   UNL     1      47.830   8.993  11.728  0.00  0.00    +0.000 C 
ATOM     24  C   UNL     1      47.624  10.392  12.284  0.00  0.00    +0.000 C 
ATOM     25  N   UNL     1      46.157  10.581  12.354  0.00  0.00    +0.000 NA
ATOM     26  C   UNL     1      45.534   9.234  12.492  0.00  0.00    +0.000 C 
BRANCH  25  27
ATOM     27  S   UNL     1      45.439  11.625  11.230  0.00  0.00    +0.000 S 
ATOM     28  C   UNL     1      46.870  12.295  10.411  0.00  0.00    +0.000 C 
ATOM     29  O   UNL     1      44.686  10.820  10.293  0.00  0.00    +0.000 OA
ATOM     30  O   UNL     1      44.817  12.712  11.955  0.00  0.00    +0.000 OA
ENDBRANCH  25  27
ENDBRANCH  21  22
ENDBRANCH   5  21
TORSDOF 7
ENDMDL
MODEL 6
REMARK VINA RESULT:    -6.635      3.055      4.511
REMARK INTER + INTRA:         -10.521
REMARK INTER:                  -9.583
REMARK INTRA:                  -0.938
REMARK UNBOUND:                -1.171
REMARK  Name = 
REMARK  9 active torsions:
REMARK  status: ('A' for Active; 'I' for Inactive)
REMARK    1  A    between atoms: C_1  and  C_2
REMARK    2  A    between atoms: C_2  and  C_3
REMARK    3  A    between atoms: C_2  and  C_13
REMARK    4  A    between atoms: C_3  and  C_4
REMARK    5  A    between atoms: C_7  and  C_8
REMARK    6  A    between atoms: C_17  and  O_18
REMARK    7  A    between atoms: O_18  and  C_19
REMARK    8  A    between atoms: N_22  and  S_23
REMARK    9  A    between atoms: S_23  and  C_24
REMARK                            x       y       z     vdW  Elec       q    Type
REMARK                         _______ _______ _______ _____ _____    ______ ____
ROOT
ATOM      1  C   UNL     1      47.931   8.626  12.698  0.00  0.00    +0.000 A 
ATOM      2  C   UNL     1      49.037   8.445  11.854  0.00  0.00    +0.000 A 
ATOM      3  C   UNL     1      50.284   8.075  12.368  0.00  0.00    +0.000 A 
ATOM      4  C   UNL     1      50.461   7.931  13.740  0.00  0.00    +0.000 A 
ATOM      5  C   UNL     1      49.407   8.207  14.610  0.00  0.00    +0.000 A 
ATOM      6  C   UNL     1      48.154   8.542  14.088  0.00  0.00    +0.000 A 
ENDROOT
BRANCH   1   8
ATOM      7  C   UNL     1      46.163  10.393  12.061  0.00  0.00    +0.000 C 
ATOM      8  C   UNL     1      46.543   8.901  12.116  0.00  0.00    +0.000 C 
BRANCH   8   9
ATOM      9  C   UNL     1      45.376   8.072  12.739  0.00  0.00    +0.000 C 
BRANCH   9  10
ATOM     10  C   UNL     1      44.992   6.717  12.182  0.00  0.00    +0.000 A 
ATOM     11  C   UNL     1      45.483   6.175  10.995  0.00  0.00    +0.000 A 
ATOM     12  C   UNL     1      45.086   4.899  10.587  0.00  0.00    +0.000 A 
ATOM     13  C   UNL     1      44.206   4.198  11.392  0.00  0.00    +0.000 A 
ATOM     14  N   UNL     1      43.676   4.687  12.547  0.00  0.00    +0.000 NA
ATOM     15  C   UNL     1      44.085   5.930  12.901  0.00  0.00    +0.000 A 
BRANCH  13  16
ATOM     16  C   UNL     1      43.819   2.798  11.010  0.00  0.00    +0.000 C 
ATOM     17  N   UNL     1      44.505   2.258   9.959  0.00  0.00    +0.000 N 
ATOM     18  O   UNL     1      42.934   2.178  11.587  0.00  0.00    +0.000 OA
ATOM     19  H   UNL     1      45.211   2.811   9.483  0.00  0.00    +0.000 HD
ATOM     20  H   UNL     1      44.260   1.339   9.624  0.00  0.00    +0.000 HD
ENDBRANCH  13  16
ENDBRANCH   9  10
ENDBRANCH   8   9
ENDBRANCH   1   8
BRANCH   5  21
ATOM     21  O   UNL     1      49.496   8.116  15.976  0.00  0.00    +0.000 OA
BRANCH  21  22
ATOM     22  C   UNL     1      48.603   7.164  16.575  0.00  0.00    +0.000 C 
ATOM     23  C   UNL     1      49.160   6.661  17.900  0.00  0.00    +0.000 C 
ATOM     24  C   UNL     1      49.828   5.333  17.586  0.00  0.00    +0.000 C 
ATOM     25  N   UNL     1      49.088   4.778  16.430  0.00  0.00    +0.000 NA
ATOM     26  C   UNL     1      48.495   5.922  15.680  0.00  0.00    +0.000 C 
BRANCH  25  27
ATOM     27  S   UNL     1      48.065   3.456  16.707  0.00  0.00    +0.000 S 
ATOM     28  C   UNL     1      48.443   3.072  18.404  0.00  0.00    +0.000 C 
ATOM     29  O   UNL     1      46.699   3.924  16.616  0.00  0.00    +0.000 OA
ATOM     30  O   UNL     1      48.533   2.346  15.906  0.00  0.00    +0.000 OA
ENDBRANCH  25  27
ENDBRANCH  21  22
ENDBRANCH   5  21
TORSDOF 7
ENDMDL
MODEL 7
REMARK VINA RESULT:    -6.597      3.862      8.237
REMARK INTER + INTRA:         -10.468
REMARK INTER:                  -9.190
REMARK INTRA:                  -1.278
REMARK UNBOUND:                -1.171
REMARK  Name = 
REMARK  9 active torsions:
REMARK  status: ('A' for Active; 'I' for Inactive)
REMARK    1  A    between atoms: C_1  and  C_2
REMARK    2  A    between atoms: C_2  and  C_3
REMARK    3  A    between atoms: C_2  and  C_13
REMARK    4  A    between atoms: C_3  and  C_4
REMARK    5  A    between atoms: C_7  and  C_8
REMARK    6  A    between atoms: C_17  and  O_18
REMARK    7  A    between atoms: O_18  and  C_19
REMARK    8  A    between atoms: N_22  and  S_23
REMARK    9  A    between atoms: S_23  and  C_24
REMARK                            x       y       z     vdW  Elec       q    Type
REMARK                         _______ _______ _______ _____ _____    ______ ____
ROOT
ATOM      1  C   UNL     1      49.094   8.331  15.896  0.00  0.00    +0.000 A 
ATOM      2  C   UNL     1      50.231   8.984  15.396  0.00  0.00    +0.000 A 
ATOM      3  C   UNL     1      50.675   8.761  14.089  0.00  0.00    +0.000 A 
ATOM      4  C   UNL     1      50.022   7.841  13.275  0.00  0.00    +0.000 A 
ATOM      5  C   UNL     1      48.954   7.100  13.781  0.00  0.00    +0.000 A 
ATOM      6  C   UNL     1      48.493   7.354  15.076  0.00  0.00    +0.000 A 
ENDROOT
BRANCH   1   8
ATOM      7  C   UNL     1      48.855  10.116  17.744  0.00  0.00    +0.000 C 
ATOM      8  C   UNL     1      48.539   8.680  17.279  0.00  0.00    +0.000 C 
BRANCH   8   9
ATOM      9  C   UNL     1      48.871   7.662  18.415  0.00  0.00    +0.000 C 
BRANCH   9  10
ATOM     10  C   UNL     1      49.098   6.196  18.111  0.00  0.00    +0.000 A 
ATOM     11  C   UNL     1      48.091   5.234  18.030  0.00  0.00    +0.000 A 
ATOM     12  C   UNL     1      48.407   3.910  17.712  0.00  0.00    +0.000 A 
ATOM     13  C   UNL     1      49.732   3.591  17.478  0.00  0.00    +0.000 A 
ATOM     14  N   UNL     1      50.757   4.482  17.568  0.00  0.00    +0.000 NA
ATOM     15  C   UNL     1      50.406   5.753  17.884  0.00  0.00    +0.000 A 
BRANCH  13  16
ATOM     16  C   UNL     1      50.087   2.191  17.067  0.00  0.00    +0.000 C 
ATOM     17  N   UNL     1      50.999   1.554  17.860  0.00  0.00    +0.000 N 
ATOM     18  O   UNL     1      49.609   1.653  16.076  0.00  0.00    +0.000 OA
ATOM     19  H   UNL     1      51.399   2.040  18.656  0.00  0.00    +0.000 HD
ATOM     20  H   UNL     1      51.316   0.628  17.611  0.00  0.00    +0.000 HD
ENDBRANCH  13  16
ENDBRANCH   9  10
ENDBRANCH   8   9
ENDBRANCH   1   8
BRANCH   5  21
ATOM     21  O   UNL     1      48.267   6.155  13.062  0.00  0.00    +0.000 OA
BRANCH  21  22
ATOM     22  C   UNL     1      46.962   5.842  13.572  0.00  0.00    +0.000 C 
ATOM     23  C   UNL     1      46.949   4.461  14.212  0.00  0.00    +0.000 C 
ATOM     24  C   UNL     1      46.391   3.525  13.153  0.00  0.00    +0.000 C 
ATOM     25  N   UNL     1      45.487   4.353  12.325  0.00  0.00    +0.000 NA
ATOM     26  C   UNL     1      45.957   5.766  12.415  0.00  0.00    +0.000 C 
BRANCH  25  27
ATOM     27  S   UNL     1      43.818   4.110  12.489  0.00  0.00    +0.000 S 
ATOM     28  C   UNL     1      43.233   4.608  10.884  0.00  0.00    +0.000 C 
ATOM     29  O   UNL     1      43.591   2.691  12.661  0.00  0.00    +0.000 OA
ATOM     30  O   UNL     1      43.312   5.072  13.444  0.00  0.00    +0.000 OA
ENDBRANCH  25  27
ENDBRANCH  21  22
ENDBRANCH   5  21
TORSDOF 7
ENDMDL
MODEL 8
REMARK VINA RESULT:    -6.545      3.029      9.442
REMARK INTER + INTRA:         -10.394
REMARK INTER:                  -9.641
REMARK INTRA:                  -0.753
REMARK UNBOUND:                -1.171
REMARK  Name = 
REMARK  9 active torsions:
REMARK  status: ('A' for Active; 'I' for Inactive)
REMARK    1  A    between atoms: C_1  and  C_2
REMARK    2  A    between atoms: C_2  and  C_3
REMARK    3  A    between atoms: C_2  and  C_13
REMARK    4  A    between atoms: C_3  and  C_4
REMARK    5  A    between atoms: C_7  and  C_8
REMARK    6  A    between atoms: C_17  and  O_18
REMARK    7  A    between atoms: O_18  and  C_19
REMARK    8  A    between atoms: N_22  and  S_23
REMARK    9  A    between atoms: S_23  and  C_24
REMARK                            x       y       z     vdW  Elec       q    Type
REMARK                         _______ _______ _______ _____ _____    ______ ____
ROOT
ATOM      1  C   UNL     1      45.257   5.426  12.433  0.00  0.00    +0.000 A 
ATOM      2  C   UNL     1      43.998   5.739  12.967  0.00  0.00    +0.000 A 
ATOM      3  C   UNL     1      42.822   5.404  12.288  0.00  0.00    +0.000 A 
ATOM      4  C   UNL     1      42.884   4.799  11.037  0.00  0.00    +0.000 A 
ATOM      5  C   UNL     1      44.121   4.573  10.435  0.00  0.00    +0.000 A 
ATOM      6  C   UNL     1      45.293   4.876  11.135  0.00  0.00    +0.000 A 
ENDROOT
BRANCH   1   8
ATOM      7  C   UNL     1      47.592   6.519  12.508  0.00  0.00    +0.000 C 
ATOM      8  C   UNL     1      46.532   5.675  13.242  0.00  0.00    +0.000 C 
BRANCH   8   9
ATOM      9  C   UNL     1      47.192   4.406  13.865  0.00  0.00    +0.000 C 
BRANCH   9  10
ATOM     10  C   UNL     1      47.566   4.356  15.332  0.00  0.00    +0.000 A 
ATOM     11  C   UNL     1      47.491   3.219  16.136  0.00  0.00    +0.000 A 
ATOM     12  C   UNL     1      47.891   3.275  17.473  0.00  0.00    +0.000 A 
ATOM     13  C   UNL     1      48.363   4.478  17.966  0.00  0.00    +0.000 A 
ATOM     14  N   UNL     1      48.435   5.624  17.235  0.00  0.00    +0.000 NA
ATOM     15  C   UNL     1      48.032   5.525  15.944  0.00  0.00    +0.000 A 
BRANCH  13  16
ATOM     16  C   UNL     1      48.864   4.545  19.380  0.00  0.00    +0.000 C 
ATOM     17  N   UNL     1      48.381   3.588  20.227  0.00  0.00    +0.000 N 
ATOM     18  O   UNL     1      49.643   5.410  19.763  0.00  0.00    +0.000 OA
ATOM     19  H   UNL     1      47.712   2.906  19.884  0.00  0.00    +0.000 HD
ATOM     20  H   UNL     1      48.642   3.608  21.202  0.00  0.00    +0.000 HD
ENDBRANCH  13  16
ENDBRANCH   9  10
ENDBRANCH   8   9
ENDBRANCH   1   8
BRANCH   5  21
ATOM     21  O   UNL     1      44.279   4.005   9.196  0.00  0.00    +0.000 OA
BRANCH  21  22
ATOM     22  C   UNL     1      45.571   3.425   8.960  0.00  0.00    +0.000 C 
ATOM     23  C   UNL     1      46.375   4.275   7.986  0.00  0.00    +0.000 C 
ATOM     24  C   UNL     1      46.202   3.615   6.628  0.00  0.00    +0.000 C 
ATOM     25  N   UNL     1      45.993   2.177   6.907  0.00  0.00    +0.000 NA
ATOM     26  C   UNL     1      45.409   2.062   8.275  0.00  0.00    +0.000 C 
BRANCH  25  27
ATOM     27  S   UNL     1      47.255   1.108   6.541  0.00  0.00    +0.000 S 
ATOM     28  C   UNL     1      46.910  -0.235   7.658  0.00  0.00    +0.000 C 
ATOM     29  O   UNL     1      47.073   0.655   5.179  0.00  0.00    +0.000 OA
ATOM     30  O   UNL     1      48.498   1.710   6.971  0.00  0.00    +0.000 OA
ENDBRANCH  25  27
ENDBRANCH  21  22
ENDBRANCH   5  21
TORSDOF 7
ENDMDL
MODEL 9
REMARK VINA RESULT:    -6.475      3.478      8.334
REMARK INTER + INTRA:         -10.296
REMARK INTER:                  -8.861
REMARK INTRA:                  -1.435
REMARK UNBOUND:                -1.171
REMARK  Name = 
REMARK  9 active torsions:
REMARK  status: ('A' for Active; 'I' for Inactive)
REMARK    1  A    between atoms: C_1  and  C_2
REMARK    2  A    between atoms: C_2  and  C_3
REMARK    3  A    between atoms: C_2  and  C_13
REMARK    4  A    between atoms: C_3  and  C_4
REMARK    5  A    between atoms: C_7  and  C_8
REMARK    6  A    between atoms: C_17  and  O_18
REMARK    7  A    between atoms: O_18  and  C_19
REMARK    8  A    between atoms: N_22  and  S_23
REMARK    9  A    between atoms: S_23  and  C_24
REMARK                            x       y       z     vdW  Elec       q    Type
REMARK                         _______ _______ _______ _____ _____    ______ ____
ROOT
ATOM      1  C   UNL     1      48.803   9.562  14.939  0.00  0.00    +0.000 A 
ATOM      2  C   UNL     1      49.761  10.036  14.030  0.00  0.00    +0.000 A 
ATOM      3  C   UNL     1      49.573   9.907  12.650  0.00  0.00    +0.000 A 
ATOM      4  C   UNL     1      48.450   9.253  12.155  0.00  0.00    +0.000 A 
ATOM      5  C   UNL     1      47.535   8.678  13.036  0.00  0.00    +0.000 A 
ATOM      6  C   UNL     1      47.709   8.843  14.413  0.00  0.00    +0.000 A 
ENDROOT
BRANCH   1   8
ATOM      7  C   UNL     1      49.527  11.213  16.783  0.00  0.00    +0.000 C 
ATOM      8  C   UNL     1      48.952   9.825  16.439  0.00  0.00    +0.000 C 
BRANCH   8   9
ATOM      9  C   UNL     1      49.700   8.718  17.246  0.00  0.00    +0.000 C 
BRANCH   9  10
ATOM     10  C   UNL     1      49.159   7.306  17.326  0.00  0.00    +0.000 A 
ATOM     11  C   UNL     1      48.170   6.879  18.213  0.00  0.00    +0.000 A 
ATOM     12  C   UNL     1      47.720   5.557  18.181  0.00  0.00    +0.000 A 
ATOM     13  C   UNL     1      48.274   4.698  17.251  0.00  0.00    +0.000 A 
ATOM     14  N   UNL     1      49.257   5.053  16.378  0.00  0.00    +0.000 NA
ATOM     15  C   UNL     1      49.668   6.343  16.447  0.00  0.00    +0.000 A 
BRANCH  13  16
ATOM     16  C   UNL     1      47.757   3.292  17.151  0.00  0.00    +0.000 C 
ATOM     17  N   UNL     1      48.642   2.367  16.672  0.00  0.00    +0.000 N 
ATOM     18  O   UNL     1      46.612   2.987  17.460  0.00  0.00    +0.000 OA
ATOM     19  H   UNL     1      49.574   2.660  16.395  0.00  0.00    +0.000 HD
ATOM     20  H   UNL     1      48.342   1.413  16.536  0.00  0.00    +0.000 HD
ENDBRANCH  13  16
ENDBRANCH   9  10
ENDBRANCH   8   9
ENDBRANCH   1   8
BRANCH   5  21
ATOM     21  O   UNL     1      46.413   7.994  12.639  0.00  0.00    +0.000 OA
BRANCH  21  22
ATOM     22  C   UNL     1      46.628   6.604  12.351  0.00  0.00    +0.000 C 
ATOM     23  C   UNL     1      46.277   6.293  10.902  0.00  0.00    +0.000 C 
ATOM     24  C   UNL     1      44.869   5.723  10.936  0.00  0.00    +0.000 C 
ATOM     25  N   UNL     1      44.734   5.070  12.257  0.00  0.00    +0.000 NA
ATOM     26  C   UNL     1      45.676   5.747  13.195  0.00  0.00    +0.000 C 
BRANCH  25  27
ATOM     27  S   UNL     1      44.721   3.376  12.306  0.00  0.00    +0.000 S 
ATOM     28  C   UNL     1      44.738   2.978  10.571  0.00  0.00    +0.000 C 
ATOM     29  O   UNL     1      45.962   2.939  12.908  0.00  0.00    +0.000 OA
ATOM     30  O   UNL     1      43.441   2.948  12.828  0.00  0.00    +0.000 OA
ENDBRANCH  25  27
ENDBRANCH  21  22
ENDBRANCH   5  21
TORSDOF 7
ENDMDL
