MODEL 1
REMARK VINA RESULT:    -8.145      0.000      0.000
REMARK INTER + INTRA:         -11.653
REMARK INTER:                 -11.002
REMARK INTRA:                  -0.651
REMARK UNBOUND:                -0.651
REMARK  Name = 
REMARK  6 active torsions:
REMARK  status: ('A' for Active; 'I' for Inactive)
REMARK    1  A    between atoms: C_2  and  C_4
REMARK    2  A    between atoms: C_7  and  N_8
REMARK    3  A    between atoms: N_8  and  C_9
REMARK    4  A    between atoms: C_9  and  C_10
REMARK    5  A    between atoms: C_10  and  C_11
REMARK    6  A    between atoms: C_13  and  C_14
REMARK                            x       y       z     vdW  Elec       q    Type
REMARK                         _______ _______ _______ _____ _____    ______ ____
ROOT
ATOM      1  C   UNL     1      45.403   6.830  12.525  0.00  0.00    +0.000 C 
ENDROOT
BRANCH   1   2
ATOM      2  N   UNL     1      46.823   6.479  12.622  0.00  0.00    +0.000 N 
ATOM      3  H   UNL     1      47.416   7.306  12.665  0.00  0.00    +0.000 HD
BRANCH   2   7
ATOM      4  C   UNL     1      47.694   3.870  15.683  0.00  0.00    +0.000 A 
ATOM      5  C   UNL     1      48.046   5.208  15.776  0.00  0.00    +0.000 A 
ATOM      6  N   UNL     1      47.782   6.106  14.786  0.00  0.00    +0.000 NA
ATOM      7  C   UNL     1      47.161   5.627  13.688  0.00  0.00    +0.000 A 
ATOM      8  C   UNL     1      46.807   4.271  13.620  0.00  0.00    +0.000 A 
ATOM      9  N   UNL     1      47.063   3.358  14.594  0.00  0.00    +0.000 NA
BRANCH   4  11
ATOM     10  N   UNL     1      46.986   2.743  17.707  0.00  0.00    +0.000 N 
ATOM     11  C   UNL     1      47.998   2.941  16.807  0.00  0.00    +0.000 C 
ATOM     12  O   UNL     1      49.083   2.385  16.921  0.00  0.00    +0.000 OA
ATOM     13  H   UNL     1      47.132   2.124  18.492  0.00  0.00    +0.000 HD
ATOM     14  H   UNL     1      46.096   3.213  17.583  0.00  0.00    +0.000 HD
ENDBRANCH   4  11
ENDBRANCH   2   7
ENDBRANCH   1   2
BRANCH   1  15
ATOM     15  C   UNL     1      44.946   6.646  11.070  0.00  0.00    +0.000 C 
BRANCH  15  16
ATOM     16  C   UNL     1      44.720   5.204  10.683  0.00  0.00    +0.000 A 
ATOM     17  C   UNL     1      45.428   4.675   9.588  0.00  0.00    +0.000 A 
ATOM     18  C   UNL     1      45.227   3.351   9.182  0.00  0.00    +0.000 A 
ATOM     19  N   UNL     1      44.341   2.550   9.819  0.00  0.00    +0.000 NA
ATOM     20  C   UNL     1      43.675   3.064  10.884  0.00  0.00    +0.000 A 
ATOM     21  C   UNL     1      43.832   4.361  11.354  0.00  0.00    +0.000 A 
ATOM     22 CL   UNL     1      42.923   4.868  12.725  0.00  0.00    +0.000 Cl
BRANCH  18  23
ATOM     23  C   UNL     1      45.944   2.748   8.047  0.00  0.00    +0.000 A 
ATOM     24  C   UNL     1      46.253   3.455   6.876  0.00  0.00    +0.000 A 
ATOM     25  C   UNL     1      46.926   2.835   5.823  0.00  0.00    +0.000 A 
ATOM     26  C   UNL     1      47.281   1.505   5.965  0.00  0.00    +0.000 A 
ATOM     27  N   UNL     1      47.018   0.778   7.070  0.00  0.00    +0.000 NA
ATOM     28  C   UNL     1      46.369   1.417   8.079  0.00  0.00    +0.000 A 
ENDBRANCH  18  23
ENDBRANCH  15  16
ENDBRANCH   1  15
TORSDOF 6
ENDMDL
MODEL 2
REMARK VINA RESULT:    -7.816      2.734      7.870
REMARK INTER + INTRA:         -11.209
REMARK INTER:                 -10.531
REMARK INTRA:                  -0.678
REMARK UNBOUND:                -0.651
REMARK  Name = 
REMARK  6 active torsions:
REMARK  status: ('A' for Active; 'I' for Inactive)
REMARK    1  A    between atoms: C_2  and  C_4
REMARK    2  A    between atoms: C_7  and  N_8
REMARK    3  A    between atoms: N_8  and  C_9
REMARK    4  A    between atoms: C_9  and  C_10
REMARK    5  A    between atoms: C_10  and  C_11
REMARK    6  A    between atoms: C_13  and  C_14
REMARK                            x       y       z     vdW  Elec       q    Type
REMARK                         _______ _______ _______ _____ _____    ______ ____
ROOT
ATOM      1  C   UNL     1      44.000   3.456  11.361  0.00  0.00    +0.000 C 
ENDROOT
BRANCH   1   2
ATOM      2  N   UNL     1      43.911   4.009  10.007  0.00  0.00    +0.000 N 
ATOM      3  H   UNL     1      44.001   5.024  10.005  0.00  0.00    +0.000 HD
BRANCH   2   7
ATOM      4  C   UNL     1      46.601   2.313   7.395  0.00  0.00    +0.000 A 
ATOM      5  C   UNL     1      46.242   3.646   7.270  0.00  0.00    +0.000 A 
ATOM      6  N   UNL     1      45.353   4.249   8.108  0.00  0.00    +0.000 NA
ATOM      7  C   UNL     1      44.820   3.476   9.076  0.00  0.00    +0.000 A 
ATOM      8  C   UNL     1      45.204   2.130   9.189  0.00  0.00    +0.000 A 
ATOM      9  N   UNL     1      46.086   1.509   8.363  0.00  0.00    +0.000 NA
BRANCH   4  11
ATOM     10  N   UNL     1      48.750   2.425   6.283  0.00  0.00    +0.000 N 
ATOM     11  C   UNL     1      47.590   1.717   6.455  0.00  0.00    +0.000 C 
ATOM     12  O   UNL     1      47.386   0.660   5.873  0.00  0.00    +0.000 OA
ATOM     13  H   UNL     1      49.460   2.072   5.657  0.00  0.00    +0.000 HD
ATOM     14  H   UNL     1      48.894   3.295   6.784  0.00  0.00    +0.000 HD
ENDBRANCH   4  11
ENDBRANCH   2   7
ENDBRANCH   1   2
BRANCH   1  15
ATOM     15  C   UNL     1      43.987   4.613  12.370  0.00  0.00    +0.000 C 
BRANCH  15  16
ATOM     16  C   UNL     1      45.356   4.985  12.887  0.00  0.00    +0.000 A 
ATOM     17  C   UNL     1      45.799   4.428  14.100  0.00  0.00    +0.000 A 
ATOM     18  C   UNL     1      47.051   4.767  14.625  0.00  0.00    +0.000 A 
ATOM     19  N   UNL     1      47.862   5.646  13.990  0.00  0.00    +0.000 NA
ATOM     20  C   UNL     1      47.433   6.165  12.812  0.00  0.00    +0.000 A 
ATOM     21  C   UNL     1      46.212   5.866  12.222  0.00  0.00    +0.000 A 
ATOM     22 CL   UNL     1      45.810   6.597  10.717  0.00  0.00    +0.000 Cl
BRANCH  18  23
ATOM     23  C   UNL     1      47.564   4.211  15.887  0.00  0.00    +0.000 A 
ATOM     24  C   UNL     1      48.113   2.924  15.987  0.00  0.00    +0.000 A 
ATOM     25  C   UNL     1      48.577   2.438  17.210  0.00  0.00    +0.000 A 
ATOM     26  C   UNL     1      48.483   3.258  18.319  0.00  0.00    +0.000 A 
ATOM     27  N   UNL     1      47.972   4.506  18.282  0.00  0.00    +0.000 NA
ATOM     28  C   UNL     1      47.537   4.949  17.073  0.00  0.00    +0.000 A 
ENDBRANCH  18  23
ENDBRANCH  15  16
ENDBRANCH   1  15
TORSDOF 6
ENDMDL
MODEL 3
REMARK VINA RESULT:    -7.731      3.275      7.452
REMARK INTER + INTRA:         -11.094
REMARK INTER:                 -10.311
REMARK INTRA:                  -0.783
REMARK UNBOUND:                -0.651
REMARK  Name = 
REMARK  6 active torsions:
REMARK  status: ('A' for Active; 'I' for Inactive)
REMARK    1  A    between atoms: C_2  and  C_4
REMARK    2  A    between atoms: C_7  and  N_8
REMARK    3  A    between atoms: N_8  and  C_9
REMARK    4  A    between atoms: C_9  and  C_10
REMARK    5  A    between atoms: C_10  and  C_11
REMARK    6  A    between atoms: C_13  and  C_14
REMARK                            x       y       z     vdW  Elec       q    Type
REMARK                         _______ _______ _______ _____ _____    ______ ____
ROOT
ATOM      1  C   UNL     1      43.829   3.112  11.884  0.00  0.00    +0.000 C 
ENDROOT
BRANCH   1   2
ATOM      2  N   UNL     1      43.629   3.709  10.560  0.00  0.00    +0.000 N 
ATOM      3  H   UNL     1      43.556   4.723  10.609  0.00  0.00    +0.000 HD
BRANCH   2   7
ATOM      4  C   UNL     1      46.430   2.883   7.661  0.00  0.00    +0.000 A 
ATOM      5  C   UNL     1      45.862   1.859   8.404  0.00  0.00    +0.000 A 
ATOM      6  N   UNL     1      44.935   2.086   9.376  0.00  0.00    +0.000 NA
ATOM      7  C   UNL     1      44.594   3.373   9.596  0.00  0.00    +0.000 A 
ATOM      8  C   UNL     1      45.177   4.392   8.826  0.00  0.00    +0.000 A 
ATOM      9  N   UNL     1      46.105   4.189   7.854  0.00  0.00    +0.000 NA
BRANCH   4  11
ATOM     10  N   UNL     1      47.259   3.221   5.411  0.00  0.00    +0.000 N 
ATOM     11  C   UNL     1      47.428   2.568   6.602  0.00  0.00    +0.000 C 
ATOM     12  O   UNL     1      48.346   1.778   6.782  0.00  0.00    +0.000 OA
ATOM     13  H   UNL     1      47.905   3.049   4.653  0.00  0.00    +0.000 HD
ATOM     14  H   UNL     1      46.493   3.875   5.293  0.00  0.00    +0.000 HD
ENDBRANCH   4  11
ENDBRANCH   2   7
ENDBRANCH   1   2
BRANCH   1  15
ATOM     15  C   UNL     1      43.759   4.223  12.943  0.00  0.00    +0.000 C 
BRANCH  15  16
ATOM     16  C   UNL     1      44.838   5.268  12.797  0.00  0.00    +0.000 A 
ATOM     17  C   UNL     1      44.479   6.562  12.376  0.00  0.00    +0.000 A 
ATOM     18  C   UNL     1      45.454   7.551  12.204  0.00  0.00    +0.000 A 
ATOM     19  N   UNL     1      46.764   7.290  12.425  0.00  0.00    +0.000 NA
ATOM     20  C   UNL     1      47.098   6.045  12.847  0.00  0.00    +0.000 A 
ATOM     21  C   UNL     1      46.188   5.017  13.054  0.00  0.00    +0.000 A 
ATOM     22 CL   UNL     1      46.763   3.490  13.601  0.00  0.00    +0.000 Cl
BRANCH  18  23
ATOM     23  C   UNL     1      45.132   8.920  11.770  0.00  0.00    +0.000 A 
ATOM     24  C   UNL     1      43.975   9.239  11.044  0.00  0.00    +0.000 A 
ATOM     25  C   UNL     1      43.720  10.551  10.646  0.00  0.00    +0.000 A 
ATOM     26  C   UNL     1      44.636  11.530  10.987  0.00  0.00    +0.000 A 
ATOM     27  N   UNL     1      45.760  11.284  11.690  0.00  0.00    +0.000 NA
ATOM     28  C   UNL     1      45.973   9.996  12.068  0.00  0.00    +0.000 A 
ENDBRANCH  18  23
ENDBRANCH  15  16
ENDBRANCH   1  15
TORSDOF 6
ENDMDL
MODEL 4
REMARK VINA RESULT:    -7.355      3.815      7.735
REMARK INTER + INTRA:         -10.586
REMARK INTER:                 -10.150
REMARK INTRA:                  -0.436
REMARK UNBOUND:                -0.651
REMARK  Name = 
REMARK  6 active torsions:
REMARK  status: ('A' for Active; 'I' for Inactive)
REMARK    1  A    between atoms: C_2  and  C_4
REMARK    2  A    between atoms: C_7  and  N_8
REMARK    3  A    between atoms: N_8  and  C_9
REMARK    4  A    between atoms: C_9  and  C_10
REMARK    5  A    between atoms: C_10  and  C_11
REMARK    6  A    between atoms: C_13  and  C_14
REMARK                            x       y       z     vdW  Elec       q    Type
REMARK                         _______ _______ _______ _____ _____    ______ ____
ROOT
ATOM      1  C   UNL     1      43.882   4.947  11.206  0.00  0.00    +0.000 C 
ENDROOT
BRANCH   1   2
ATOM      2  N   UNL     1      43.878   4.978   9.740  0.00  0.00    +0.000 N 
ATOM      3  H   UNL     1      44.147   5.892   9.379  0.00  0.00    +0.000 HD
BRANCH   2   7
ATOM      4  C   UNL     1      46.173   2.007   8.055  0.00  0.00    +0.000 A 
ATOM      5  C   UNL     1      46.203   3.296   7.545  0.00  0.00    +0.000 A 
ATOM      6  N   UNL     1      45.458   4.309   8.067  0.00  0.00    +0.000 NA
ATOM      7  C   UNL     1      44.667   3.997   9.115  0.00  0.00    +0.000 A 
ATOM      8  C   UNL     1      44.658   2.687   9.619  0.00  0.00    +0.000 A 
ATOM      9  N   UNL     1      45.391   1.661   9.112  0.00  0.00    +0.000 NA
BRANCH   4  11
ATOM     10  N   UNL     1      48.057   1.387   6.665  0.00  0.00    +0.000 N 
ATOM     11  C   UNL     1      47.023   0.947   7.448  0.00  0.00    +0.000 C 
ATOM     12  O   UNL     1      46.817  -0.246   7.635  0.00  0.00    +0.000 OA
ATOM     13  H   UNL     1      48.669   0.715   6.225  0.00  0.00    +0.000 HD
ATOM     14  H   UNL     1      48.207   2.381   6.533  0.00  0.00    +0.000 HD
ENDBRANCH   4  11
ENDBRANCH   2   7
ENDBRANCH   1   2
BRANCH   1  15
ATOM     15  C   UNL     1      45.302   5.260  11.702  0.00  0.00    +0.000 C 
BRANCH  15  16
ATOM     16  C   UNL     1      45.527   6.719  12.017  0.00  0.00    +0.000 A 
ATOM     17  C   UNL     1      44.660   7.677  11.459  0.00  0.00    +0.000 A 
ATOM     18  C   UNL     1      44.851   9.041  11.706  0.00  0.00    +0.000 A 
ATOM     19  N   UNL     1      45.877   9.477  12.474  0.00  0.00    +0.000 NA
ATOM     20  C   UNL     1      46.698   8.545  13.021  0.00  0.00    +0.000 A 
ATOM     21  C   UNL     1      46.564   7.176  12.834  0.00  0.00    +0.000 A 
ATOM     22 CL   UNL     1      47.679   6.115  13.603  0.00  0.00    +0.000 Cl
BRANCH  18  23
ATOM     23  C   UNL     1      43.972  10.082  11.151  0.00  0.00    +0.000 A 
ATOM     24  C   UNL     1      42.758   9.795  10.509  0.00  0.00    +0.000 A 
ATOM     25  C   UNL     1      41.963  10.818   9.991  0.00  0.00    +0.000 A 
ATOM     26  C   UNL     1      42.404  12.122  10.127  0.00  0.00    +0.000 A 
ATOM     27  N   UNL     1      43.556  12.458  10.741  0.00  0.00    +0.000 NA
ATOM     28  C   UNL     1      44.300  11.437  11.241  0.00  0.00    +0.000 A 
ENDBRANCH  18  23
ENDBRANCH  15  16
ENDBRANCH   1  15
TORSDOF 6
ENDMDL
MODEL 5
REMARK VINA RESULT:    -6.883      1.955      2.150
REMARK INTER + INTRA:          -9.948
REMARK INTER:                  -9.353
REMARK INTRA:                  -0.595
REMARK UNBOUND:                -0.651
REMARK  Name = 
REMARK  6 active torsions:
REMARK  status: ('A' for Active; 'I' for Inactive)
REMARK    1  A    between atoms: C_2  and  C_4
REMARK    2  A    between atoms: C_7  and  N_8
REMARK    3  A    between atoms: N_8  and  C_9
REMARK    4  A    between atoms: C_9  and  C_10
REMARK    5  A    between atoms: C_10  and  C_11
REMARK    6  A    between atoms: C_13  and  C_14
REMARK                            x       y       z     vdW  Elec       q    Type
REMARK                         _______ _______ _______ _____ _____    ______ ____
ROOT
ATOM      1  C   UNL     1      46.543   6.830  11.530  0.00  0.00    +0.000 C 
ENDROOT
BRANCH   1   2
ATOM      2  N   UNL     1      46.622   7.919  12.508  0.00  0.00    +0.000 N 
ATOM      3  H   UNL     1      45.699   8.211  12.826  0.00  0.00    +0.000 HD
BRANCH   2   7
ATOM      4  C   UNL     1      48.912   6.994  15.800  0.00  0.00    +0.000 A 
ATOM      5  C   UNL     1      48.604   8.313  15.504  0.00  0.00    +0.000 A 
ATOM      6  N   UNL     1      47.854   8.666  14.423  0.00  0.00    +0.000 NA
ATOM      7  C   UNL     1      47.423   7.660  13.634  0.00  0.00    +0.000 A 
ATOM      8  C   UNL     1      47.741   6.332  13.958  0.00  0.00    +0.000 A 
ATOM      9  N   UNL     1      48.490   5.958  15.028  0.00  0.00    +0.000 NA
BRANCH   4  11
ATOM     10  N   UNL     1      50.571   5.602  16.885  0.00  0.00    +0.000 N 
ATOM     11  C   UNL     1      49.726   6.673  17.005  0.00  0.00    +0.000 C 
ATOM     12  O   UNL     1      49.649   7.324  18.039  0.00  0.00    +0.000 OA
ATOM     13  H   UNL     1      51.149   5.334  17.669  0.00  0.00    +0.000 HD
ATOM     14  H   UNL     1      50.617   5.086  16.014  0.00  0.00    +0.000 HD
ENDBRANCH   4  11
ENDBRANCH   2   7
ENDBRANCH   1   2
BRANCH   1  15
ATOM     15  C   UNL     1      45.066   6.569  11.199  0.00  0.00    +0.000 C 
BRANCH  15  16
ATOM     16  C   UNL     1      44.781   5.148  10.776  0.00  0.00    +0.000 A 
ATOM     17  C   UNL     1      45.481   4.611   9.680  0.00  0.00    +0.000 A 
ATOM     18  C   UNL     1      45.227   3.307   9.242  0.00  0.00    +0.000 A 
ATOM     19  N   UNL     1      44.296   2.533   9.848  0.00  0.00    +0.000 NA
ATOM     20  C   UNL     1      43.639   3.053  10.915  0.00  0.00    +0.000 A 
ATOM     21  C   UNL     1      43.846   4.331  11.416  0.00  0.00    +0.000 A 
ATOM     22 CL   UNL     1      42.941   4.849  12.785  0.00  0.00    +0.000 Cl
BRANCH  18  23
ATOM     23  C   UNL     1      45.933   2.696   8.104  0.00  0.00    +0.000 A 
ATOM     24  C   UNL     1      46.250   3.403   6.934  0.00  0.00    +0.000 A 
ATOM     25  C   UNL     1      46.912   2.776   5.878  0.00  0.00    +0.000 A 
ATOM     26  C   UNL     1      47.248   1.441   6.015  0.00  0.00    +0.000 A 
ATOM     27  N   UNL     1      46.977   0.715   7.118  0.00  0.00    +0.000 NA
ATOM     28  C   UNL     1      46.338   1.359   8.130  0.00  0.00    +0.000 A 
ENDBRANCH  18  23
ENDBRANCH  15  16
ENDBRANCH   1  15
TORSDOF 6
ENDMDL
MODEL 6
REMARK VINA RESULT:    -6.788      3.251      4.497
REMARK INTER + INTRA:          -9.820
REMARK INTER:                  -9.089
REMARK INTRA:                  -0.731
REMARK UNBOUND:                -0.651
REMARK  Name = 
REMARK  6 active torsions:
REMARK  status: ('A' for Active; 'I' for Inactive)
REMARK    1  A    between atoms: C_2  and  C_4
REMARK    2  A    between atoms: C_7  and  N_8
REMARK    3  A    between atoms: N_8  and  C_9
REMARK    4  A    between atoms: C_9  and  C_10
REMARK    5  A    between atoms: C_10  and  C_11
REMARK    6  A    between atoms: C_13  and  C_14
REMARK                            x       y       z     vdW  Elec       q    Type
REMARK                         _______ _______ _______ _____ _____    ______ ____
ROOT
ATOM      1  C   UNL     1      49.736   7.214  12.967  0.00  0.00    +0.000 C 
ENDROOT
BRANCH   1   2
ATOM      2  N   UNL     1      49.255   7.660  14.278  0.00  0.00    +0.000 N 
ATOM      3  H   UNL     1      48.547   8.388  14.194  0.00  0.00    +0.000 HD
BRANCH   2   7
ATOM      4  C   UNL     1      47.933   4.728  16.845  0.00  0.00    +0.000 A 
ATOM      5  C   UNL     1      47.553   4.721  15.511  0.00  0.00    +0.000 A 
ATOM      6  N   UNL     1      47.962   5.673  14.627  0.00  0.00    +0.000 NA
ATOM      7  C   UNL     1      48.760   6.646  15.115  0.00  0.00    +0.000 A 
ATOM      8  C   UNL     1      49.137   6.628  16.467  0.00  0.00    +0.000 A 
ATOM      9  N   UNL     1      48.739   5.691  17.366  0.00  0.00    +0.000 NA
BRANCH   4  11
ATOM     10  N   UNL     1      48.089   3.584  18.974  0.00  0.00    +0.000 N 
ATOM     11  C   UNL     1      47.463   3.651  17.758  0.00  0.00    +0.000 C 
ATOM     12  O   UNL     1      46.570   2.872  17.446  0.00  0.00    +0.000 OA
ATOM     13  H   UNL     1      47.814   2.873  19.637  0.00  0.00    +0.000 HD
ATOM     14  H   UNL     1      48.821   4.246  19.206  0.00  0.00    +0.000 HD
ENDBRANCH   4  11
ENDBRANCH   2   7
ENDBRANCH   1   2
BRANCH   1  15
ATOM     15  C   UNL     1      49.012   8.015  11.875  0.00  0.00    +0.000 C 
BRANCH  15  16
ATOM     16  C   UNL     1      47.508   7.911  11.942  0.00  0.00    +0.000 A 
ATOM     17  C   UNL     1      46.909   6.641  11.840  0.00  0.00    +0.000 A 
ATOM     18  C   UNL     1      45.517   6.506  11.871  0.00  0.00    +0.000 A 
ATOM     19  N   UNL     1      44.710   7.587  11.987  0.00  0.00    +0.000 NA
ATOM     20  C   UNL     1      45.297   8.804  12.101  0.00  0.00    +0.000 A 
ATOM     21  C   UNL     1      46.669   9.017  12.093  0.00  0.00    +0.000 A 
ATOM     22 CL   UNL     1      47.266  10.623  12.257  0.00  0.00    +0.000 Cl
BRANCH  18  23
ATOM     23  C   UNL     1      44.841   5.202  11.773  0.00  0.00    +0.000 A 
ATOM     24  C   UNL     1      44.704   4.502  10.565  0.00  0.00    +0.000 A 
ATOM     25  C   UNL     1      44.045   3.273  10.522  0.00  0.00    +0.000 A 
ATOM     26  C   UNL     1      43.532   2.763  11.701  0.00  0.00    +0.000 A 
ATOM     27  N   UNL     1      43.640   3.387  12.891  0.00  0.00    +0.000 NA
ATOM     28  C   UNL     1      44.295   4.578  12.898  0.00  0.00    +0.000 A 
ENDBRANCH  18  23
ENDBRANCH  15  16
ENDBRANCH   1  15
TORSDOF 6
ENDMDL
MODEL 7
REMARK VINA RESULT:    -6.762      3.569      7.278
REMARK INTER + INTRA:          -9.784
REMARK INTER:                  -9.322
REMARK INTRA:                  -0.463
REMARK UNBOUND:                -0.651
REMARK  Name = 
REMARK  6 active torsions:
REMARK  status: ('A' for Active; 'I' for Inactive)
REMARK    1  A    between atoms: C_2  and  C_4
REMARK    2  A    between atoms: C_7  and  N_8
REMARK    3  A    between atoms: N_8  and  C_9
REMARK    4  A    between atoms: C_9  and  C_10
REMARK    5  A    between atoms: C_10  and  C_11
REMARK    6  A    between atoms: C_13  and  C_14
REMARK                            x       y       z     vdW  Elec       q    Type
REMARK                         _______ _______ _______ _____ _____    ______ ____
ROOT
ATOM      1  C   UNL     1      44.414   3.085  11.348  0.00  0.00    +0.000 C 
ENDROOT
BRANCH   1   2
ATOM      2  N   UNL     1      44.482   3.887  10.124  0.00  0.00    +0.000 N 
ATOM      3  H   UNL     1      44.780   4.843  10.313  0.00  0.00    +0.000 HD
BRANCH   2   7
ATOM      4  C   UNL     1      46.816   2.488   7.037  0.00  0.00    +0.000 A 
ATOM      5  C   UNL     1      46.325   1.619   8.000  0.00  0.00    +0.000 A 
ATOM      6  N   UNL     1      45.553   2.037   9.041  0.00  0.00    +0.000 NA
ATOM      7  C   UNL     1      45.290   3.359   9.102  0.00  0.00    +0.000 A 
ATOM      8  C   UNL     1      45.791   4.219   8.112  0.00  0.00    +0.000 A 
ATOM      9  N   UNL     1      46.564   3.823   7.067  0.00  0.00    +0.000 NA
BRANCH   4  11
ATOM     10  N   UNL     1      48.262   2.908   5.141  0.00  0.00    +0.000 N 
ATOM     11  C   UNL     1      47.643   1.964   5.915  0.00  0.00    +0.000 C 
ATOM     12  O   UNL     1      47.767   0.765   5.697  0.00  0.00    +0.000 OA
ATOM     13  H   UNL     1      48.838   2.615   4.364  0.00  0.00    +0.000 HD
ATOM     14  H   UNL     1      48.146   3.894   5.349  0.00  0.00    +0.000 HD
ENDBRANCH   4  11
ENDBRANCH   2   7
ENDBRANCH   1   2
BRANCH   1  15
ATOM     15  C   UNL     1      45.452   3.617  12.348  0.00  0.00    +0.000 C 
BRANCH  15  16
ATOM     16  C   UNL     1      45.512   5.124  12.414  0.00  0.00    +0.000 A 
ATOM     17  C   UNL     1      46.739   5.767  12.167  0.00  0.00    +0.000 A 
ATOM     18  C   UNL     1      46.842   7.160  12.245  0.00  0.00    +0.000 A 
ATOM     19  N   UNL     1      45.773   7.925  12.571  0.00  0.00    +0.000 NA
ATOM     20  C   UNL     1      44.591   7.297  12.791  0.00  0.00    +0.000 A 
ATOM     21  C   UNL     1      44.407   5.923  12.719  0.00  0.00    +0.000 A 
ATOM     22 CL   UNL     1      42.842   5.272  13.015  0.00  0.00    +0.000 Cl
BRANCH  18  23
ATOM     23  C   UNL     1      48.099   7.882  11.992  0.00  0.00    +0.000 A 
ATOM     24  C   UNL     1      48.155   9.269  11.785  0.00  0.00    +0.000 A 
ATOM     25  C   UNL     1      49.371   9.907  11.539  0.00  0.00    +0.000 A 
ATOM     26  C   UNL     1      50.520   9.136  11.505  0.00  0.00    +0.000 A 
ATOM     27  N   UNL     1      50.528   7.803  11.705  0.00  0.00    +0.000 NA
ATOM     28  C   UNL     1      49.327   7.216  11.949  0.00  0.00    +0.000 A 
ENDBRANCH  18  23
ENDBRANCH  15  16
ENDBRANCH   1  15
TORSDOF 6
ENDMDL
MODEL 8
REMARK VINA RESULT:    -6.363      3.703      5.568
REMARK INTER + INTRA:          -9.246
REMARK INTER:                  -8.595
REMARK INTRA:                  -0.650
REMARK UNBOUND:                -0.651
REMARK  Name = 
REMARK  6 active torsions:
REMARK  status: ('A' for Active; 'I' for Inactive)
REMARK    1  A    between atoms: C_2  and  C_4
REMARK    2  A    between atoms: C_7  and  N_8
REMARK    3  A    between atoms: N_8  and  C_9
REMARK    4  A    between atoms: C_9  and  C_10
REMARK    5  A    between atoms: C_10  and  C_11
REMARK    6  A    between atoms: C_13  and  C_14
REMARK                            x       y       z     vdW  Elec       q    Type
REMARK                         _______ _______ _______ _____ _____    ______ ____
ROOT
ATOM      1  C   UNL     1      48.423   5.987  16.253  0.00  0.00    +0.000 C 
ENDROOT
BRANCH   1   2
ATOM      2  N   UNL     1      49.289   5.828  17.425  0.00  0.00    +0.000 N 
ATOM      3  H   UNL     1      48.774   5.948  18.296  0.00  0.00    +0.000 HD
BRANCH   2   7
ATOM      4  C   UNL     1      51.523   2.377  17.601  0.00  0.00    +0.000 A 
ATOM      5  C   UNL     1      50.185   2.332  17.243  0.00  0.00    +0.000 A 
ATOM      6  N   UNL     1      49.405   3.447  17.176  0.00  0.00    +0.000 NA
ATOM      7  C   UNL     1      50.000   4.617  17.488  0.00  0.00    +0.000 A 
ATOM      8  C   UNL     1      51.359   4.639  17.840  0.00  0.00    +0.000 A 
ATOM      9  N   UNL     1      52.153   3.539  17.916  0.00  0.00    +0.000 NA
BRANCH   4  11
ATOM     10  N   UNL     1      51.692   0.028  18.168  0.00  0.00    +0.000 N 
ATOM     11  C   UNL     1      52.325   1.122  17.642  0.00  0.00    +0.000 C 
ATOM     12  O   UNL     1      53.476   1.068  17.229  0.00  0.00    +0.000 OA
ATOM     13  H   UNL     1      52.184  -0.853  18.223  0.00  0.00    +0.000 HD
ATOM     14  H   UNL     1      50.736   0.102  18.497  0.00  0.00    +0.000 HD
ENDBRANCH   4  11
ENDBRANCH   2   7
ENDBRANCH   1   2
BRANCH   1  15
ATOM     15  C   UNL     1      49.215   6.700  15.147  0.00  0.00    +0.000 C 
BRANCH  15  16
ATOM     16  C   UNL     1      48.484   6.772  13.828  0.00  0.00    +0.000 A 
ATOM     17  C   UNL     1      47.366   5.943  13.624  0.00  0.00    +0.000 A 
ATOM     18  C   UNL     1      46.678   5.961  12.405  0.00  0.00    +0.000 A 
ATOM     19  N   UNL     1      47.074   6.764  11.389  0.00  0.00    +0.000 NA
ATOM     20  C   UNL     1      48.143   7.572  11.601  0.00  0.00    +0.000 A 
ATOM     21  C   UNL     1      48.866   7.620  12.785  0.00  0.00    +0.000 A 
ATOM     22 CL   UNL     1      50.195   8.706  12.909  0.00  0.00    +0.000 Cl
BRANCH  18  23
ATOM     23  C   UNL     1      45.501   5.118  12.141  0.00  0.00    +0.000 A 
ATOM     24  C   UNL     1      44.916   4.999  10.872  0.00  0.00    +0.000 A 
ATOM     25  C   UNL     1      43.794   4.194  10.674  0.00  0.00    +0.000 A 
ATOM     26  C   UNL     1      43.275   3.515  11.762  0.00  0.00    +0.000 A 
ATOM     27  N   UNL     1      43.800   3.584  13.002  0.00  0.00    +0.000 NA
ATOM     28  C   UNL     1      44.897   4.372  13.156  0.00  0.00    +0.000 A 
ENDBRANCH  18  23
ENDBRANCH  15  16
ENDBRANCH   1  15
TORSDOF 6
ENDMDL
MODEL 9
REMARK VINA RESULT:    -6.359      4.452     10.044
REMARK INTER + INTRA:          -9.241
REMARK INTER:                  -8.704
REMARK INTRA:                  -0.537
REMARK UNBOUND:                -0.651
REMARK  Name = 
REMARK  6 active torsions:
REMARK  status: ('A' for Active; 'I' for Inactive)
REMARK    1  A    between atoms: C_2  and  C_4
REMARK    2  A    between atoms: C_7  and  N_8
REMARK    3  A    between atoms: N_8  and  C_9
REMARK    4  A    between atoms: C_9  and  C_10
REMARK    5  A    between atoms: C_10  and  C_11
REMARK    6  A    between atoms: C_13  and  C_14
REMARK                            x       y       z     vdW  Elec       q    Type
REMARK                         _______ _______ _______ _____ _____    ______ ____
ROOT
ATOM      1  C   UNL     1      47.516   4.124  15.409  0.00  0.00    +0.000 C 
ENDROOT
BRANCH   1   2
ATOM      2  N   UNL     1      46.593   5.064  14.766  0.00  0.00    +0.000 N 
ATOM      3  H   UNL     1      47.016   5.981  14.636  0.00  0.00    +0.000 HD
BRANCH   2   7
ATOM      4  C   UNL     1      44.967   3.979  11.145  0.00  0.00    +0.000 A 
ATOM      5  C   UNL     1      45.296   3.016  12.087  0.00  0.00    +0.000 A 
ATOM      6  N   UNL     1      45.841   3.328  13.296  0.00  0.00    +0.000 NA
ATOM      7  C   UNL     1      46.058   4.637  13.539  0.00  0.00    +0.000 A 
ATOM      8  C   UNL     1      45.710   5.595  12.573  0.00  0.00    +0.000 A 
ATOM      9  N   UNL     1      45.169   5.306  11.361  0.00  0.00    +0.000 NA
BRANCH   4  11
ATOM     10  N   UNL     1      43.923   4.596   9.049  0.00  0.00    +0.000 N 
ATOM     11  C   UNL     1      44.362   3.574   9.847  0.00  0.00    +0.000 C 
ATOM     12  O   UNL     1      44.262   2.401   9.508  0.00  0.00    +0.000 OA
ATOM     13  H   UNL     1      43.502   4.385   8.155  0.00  0.00    +0.000 HD
ATOM     14  H   UNL     1      44.024   5.558   9.353  0.00  0.00    +0.000 HD
ENDBRANCH   4  11
ENDBRANCH   2   7
ENDBRANCH   1   2
BRANCH   1  15
ATOM     15  C   UNL     1      47.048   3.880  16.852  0.00  0.00    +0.000 C 
BRANCH  15  16
ATOM     16  C   UNL     1      47.885   4.589  17.890  0.00  0.00    +0.000 A 
ATOM     17  C   UNL     1      47.356   5.724  18.530  0.00  0.00    +0.000 A 
ATOM     18  C   UNL     1      48.110   6.423  19.479  0.00  0.00    +0.000 A 
ATOM     19  N   UNL     1      49.368   6.037  19.796  0.00  0.00    +0.000 NA
ATOM     20  C   UNL     1      49.864   4.932  19.186  0.00  0.00    +0.000 A 
ATOM     21  C   UNL     1      49.171   4.179  18.247  0.00  0.00    +0.000 A 
ATOM     22 CL   UNL     1      49.929   2.792  17.565  0.00  0.00    +0.000 Cl
BRANCH  18  23
ATOM     23  C   UNL     1      47.603   7.614  20.180  0.00  0.00    +0.000 A 
ATOM     24  C   UNL     1      47.399   7.653  21.568  0.00  0.00    +0.000 A 
ATOM     25  C   UNL     1      46.907   8.804  22.185  0.00  0.00    +0.000 A 
ATOM     26  C   UNL     1      46.628   9.903  21.394  0.00  0.00    +0.000 A 
ATOM     27  N   UNL     1      46.812   9.926  20.058  0.00  0.00    +0.000 NA
ATOM     28  C   UNL     1      47.299   8.791  19.492  0.00  0.00    +0.000 A 
ENDBRANCH  18  23
ENDBRANCH  15  16
ENDBRANCH   1  15
TORSDOF 6
ENDMDL
