MODEL 1
REMARK VINA RESULT:    -8.051      0.000      0.000
REMARK INTER + INTRA:         -11.794
REMARK INTER:                 -10.875
REMARK INTRA:                  -0.919
REMARK UNBOUND:                -0.919
REMARK  Name = 
REMARK  6 active torsions:
REMARK  status: ('A' for Active; 'I' for Inactive)
REMARK    1  A    between atoms: C_2  and  C_4
REMARK    2  A    between atoms: C_7  and  O_8
REMARK    3  A    between atoms: O_8  and  C_9
REMARK    4  A    between atoms: C_9  and  C_10
REMARK    5  A    between atoms: C_10  and  C_11
REMARK    6  A    between atoms: C_15  and  C_16
REMARK                            x       y       z     vdW  Elec       q    Type
REMARK                         _______ _______ _______ _____ _____    ______ ____
ROOT
ATOM      1  C   UNL     1      43.424   3.592  11.276  0.00  0.00    +0.000 C 
ENDROOT
BRANCH   1   2
ATOM      2  O   UNL     1      43.700   4.361  10.097  0.00  0.00    +0.000 OA
BRANCH   2   6
ATOM      3  C   UNL     1      46.447   2.447   7.690  0.00  0.00    +0.000 A 
ATOM      4  C   UNL     1      45.696   1.705   8.605  0.00  0.00    +0.000 A 
ATOM      5  C   UNL     1      44.769   2.363   9.420  0.00  0.00    +0.000 A 
ATOM      6  C   UNL     1      44.634   3.737   9.287  0.00  0.00    +0.000 A 
ATOM      7  N   UNL     1      45.356   4.476   8.421  0.00  0.00    +0.000 NA
ATOM      8  C   UNL     1      46.255   3.820   7.650  0.00  0.00    +0.000 A 
BRANCH   3  10
ATOM      9  N   UNL     1      48.510   2.628   6.422  0.00  0.00    +0.000 N 
ATOM     10  C   UNL     1      47.443   1.852   6.777  0.00  0.00    +0.000 C 
ATOM     11  O   UNL     1      47.343   0.697   6.386  0.00  0.00    +0.000 OA
ATOM     12  H   UNL     1      49.243   2.164   5.899  0.00  0.00    +0.000 HD
ATOM     13  H   UNL     1      48.761   3.467   6.926  0.00  0.00    +0.000 HD
ENDBRANCH   3  10
ENDBRANCH   2   6
ENDBRANCH   1   2
BRANCH   1  14
ATOM     14  C   UNL     1      43.291   4.523  12.480  0.00  0.00    +0.000 C 
BRANCH  14  15
ATOM     15  C   UNL     1      44.598   5.223  12.761  0.00  0.00    +0.000 A 
ATOM     16  C   UNL     1      45.721   4.500  13.173  0.00  0.00    +0.000 A 
ATOM     17  C   UNL     1      46.936   5.150  13.369  0.00  0.00    +0.000 A 
ATOM     18  C   UNL     1      47.045   6.524  13.133  0.00  0.00    +0.000 A 
ATOM     19  C   UNL     1      45.948   7.280  12.685  0.00  0.00    +0.000 A 
ATOM     20  C   UNL     1      44.725   6.604  12.523  0.00  0.00    +0.000 A 
BRANCH  19  21
ATOM     21  C   UNL     1      46.082   8.715  12.352  0.00  0.00    +0.000 A 
ATOM     22  C   UNL     1      47.327   9.343  12.200  0.00  0.00    +0.000 A 
ATOM     23  C   UNL     1      47.409  10.706  11.915  0.00  0.00    +0.000 A 
ATOM     24  C   UNL     1      46.234  11.421  11.775  0.00  0.00    +0.000 A 
ATOM     25  N   UNL     1      45.011  10.873  11.909  0.00  0.00    +0.000 NA
ATOM     26  C   UNL     1      44.968   9.548  12.198  0.00  0.00    +0.000 A 
ENDBRANCH  19  21
ENDBRANCH  14  15
ENDBRANCH   1  14
TORSDOF 6
ENDMDL
MODEL 2
REMARK VINA RESULT:    -8.041      2.619      4.166
REMARK INTER + INTRA:         -11.780
REMARK INTER:                 -10.865
REMARK INTRA:                  -0.915
REMARK UNBOUND:                -0.919
REMARK  Name = 
REMARK  6 active torsions:
REMARK  status: ('A' for Active; 'I' for Inactive)
REMARK    1  A    between atoms: C_2  and  C_4
REMARK    2  A    between atoms: C_7  and  O_8
REMARK    3  A    between atoms: O_8  and  C_9
REMARK    4  A    between atoms: C_9  and  C_10
REMARK    5  A    between atoms: C_10  and  C_11
REMARK    6  A    between atoms: C_15  and  C_16
REMARK                            x       y       z     vdW  Elec       q    Type
REMARK                         _______ _______ _______ _____ _____    ______ ____
ROOT
ATOM      1  C   UNL     1      43.708   4.671  10.512  0.00  0.00    +0.000 C 
ENDROOT
BRANCH   1   2
ATOM      2  O   UNL     1      43.640   3.297  10.107  0.00  0.00    +0.000 OA
BRANCH   2   6
ATOM      3  C   UNL     1      46.656   2.413   7.437  0.00  0.00    +0.000 A 
ATOM      4  C   UNL     1      46.167   3.719   7.518  0.00  0.00    +0.000 A 
ATOM      5  C   UNL     1      45.141   4.008   8.423  0.00  0.00    +0.000 A 
ATOM      6  C   UNL     1      44.647   2.979   9.209  0.00  0.00    +0.000 A 
ATOM      7  N   UNL     1      45.094   1.708   9.141  0.00  0.00    +0.000 NA
ATOM      8  C   UNL     1      46.079   1.449   8.249  0.00  0.00    +0.000 A 
BRANCH   3  10
ATOM      9  N   UNL     1      48.797   2.857   6.380  0.00  0.00    +0.000 N 
ATOM     10  C   UNL     1      47.741   2.001   6.525  0.00  0.00    +0.000 C 
ATOM     11  O   UNL     1      47.721   0.919   5.954  0.00  0.00    +0.000 OA
ATOM     12  H   UNL     1      49.586   2.504   5.851  0.00  0.00    +0.000 HD
ATOM     13  H   UNL     1      48.973   3.614   7.025  0.00  0.00    +0.000 HD
ENDBRANCH   3  10
ENDBRANCH   2   6
ENDBRANCH   1   2
BRANCH   1  14
ATOM     14  C   UNL     1      43.851   4.754  12.031  0.00  0.00    +0.000 C 
BRANCH  14  15
ATOM     15  C   UNL     1      45.241   5.202  12.412  0.00  0.00    +0.000 A 
ATOM     16  C   UNL     1      45.955   6.086  11.599  0.00  0.00    +0.000 A 
ATOM     17  C   UNL     1      47.211   6.539  11.993  0.00  0.00    +0.000 A 
ATOM     18  C   UNL     1      47.754   6.130  13.215  0.00  0.00    +0.000 A 
ATOM     19  C   UNL     1      47.053   5.269  14.078  0.00  0.00    +0.000 A 
ATOM     20  C   UNL     1      45.799   4.804  13.641  0.00  0.00    +0.000 A 
BRANCH  19  21
ATOM     21  C   UNL     1      47.587   4.904  15.408  0.00  0.00    +0.000 A 
ATOM     22  C   UNL     1      47.251   3.704  16.053  0.00  0.00    +0.000 A 
ATOM     23  C   UNL     1      47.754   3.411  17.321  0.00  0.00    +0.000 A 
ATOM     24  C   UNL     1      48.599   4.327  17.922  0.00  0.00    +0.000 A 
ATOM     25  N   UNL     1      48.957   5.493  17.351  0.00  0.00    +0.000 NA
ATOM     26  C   UNL     1      48.440   5.751  16.123  0.00  0.00    +0.000 A 
ENDBRANCH  19  21
ENDBRANCH  14  15
ENDBRANCH   1  14
TORSDOF 6
ENDMDL
MODEL 3
REMARK VINA RESULT:    -7.274      3.578      7.684
REMARK INTER + INTRA:         -10.745
REMARK INTER:                  -9.728
REMARK INTRA:                  -1.016
REMARK UNBOUND:                -0.919
REMARK  Name = 
REMARK  6 active torsions:
REMARK  status: ('A' for Active; 'I' for Inactive)
REMARK    1  A    between atoms: C_2  and  C_4
REMARK    2  A    between atoms: C_7  and  O_8
REMARK    3  A    between atoms: O_8  and  C_9
REMARK    4  A    between atoms: C_9  and  C_10
REMARK    5  A    between atoms: C_10  and  C_11
REMARK    6  A    between atoms: C_15  and  C_16
REMARK                            x       y       z     vdW  Elec       q    Type
REMARK                         _______ _______ _______ _____ _____    ______ ____
ROOT
ATOM      1  C   UNL     1      45.478   6.815  12.511  0.00  0.00    +0.000 C 
ENDROOT
BRANCH   1   2
ATOM      2  O   UNL     1      46.858   6.430  12.551  0.00  0.00    +0.000 OA
BRANCH   2   6
ATOM      3  C   UNL     1      47.793   4.477  16.060  0.00  0.00    +0.000 A 
ATOM      4  C   UNL     1      46.926   3.875  15.145  0.00  0.00    +0.000 A 
ATOM      5  C   UNL     1      46.612   4.547  13.960  0.00  0.00    +0.000 A 
ATOM      6  C   UNL     1      47.177   5.794  13.740  0.00  0.00    +0.000 A 
ATOM      7  N   UNL     1      48.006   6.401  14.613  0.00  0.00    +0.000 NA
ATOM      8  C   UNL     1      48.287   5.737  15.759  0.00  0.00    +0.000 A 
BRANCH   3  10
ATOM      9  N   UNL     1      47.316   2.989  17.919  0.00  0.00    +0.000 N 
ATOM     10  C   UNL     1      48.199   3.852  17.335  0.00  0.00    +0.000 C 
ATOM     11  O   UNL     1      49.299   4.063  17.829  0.00  0.00    +0.000 OA
ATOM     12  H   UNL     1      47.661   2.477  18.723  0.00  0.00    +0.000 HD
ATOM     13  H   UNL     1      46.534   2.592  17.418  0.00  0.00    +0.000 HD
ENDBRANCH   3  10
ENDBRANCH   2   6
ENDBRANCH   1   2
BRANCH   1  14
ATOM     14  C   UNL     1      44.938   6.653  11.090  0.00  0.00    +0.000 C 
BRANCH  14  15
ATOM     15  C   UNL     1      44.741   5.194  10.758  0.00  0.00    +0.000 A 
ATOM     16  C   UNL     1      43.788   4.429  11.436  0.00  0.00    +0.000 A 
ATOM     17  C   UNL     1      43.574   3.102  11.076  0.00  0.00    +0.000 A 
ATOM     18  C   UNL     1      44.295   2.533  10.022  0.00  0.00    +0.000 A 
ATOM     19  C   UNL     1      45.237   3.279   9.292  0.00  0.00    +0.000 A 
ATOM     20  C   UNL     1      45.455   4.610   9.696  0.00  0.00    +0.000 A 
BRANCH  19  21
ATOM     21  C   UNL     1      45.938   2.707   8.122  0.00  0.00    +0.000 A 
ATOM     22  C   UNL     1      46.206   3.452   6.964  0.00  0.00    +0.000 A 
ATOM     23  C   UNL     1      46.844   2.865   5.870  0.00  0.00    +0.000 A 
ATOM     24  C   UNL     1      47.215   1.536   5.960  0.00  0.00    +0.000 A 
ATOM     25  N   UNL     1      46.986   0.772   7.045  0.00  0.00    +0.000 NA
ATOM     26  C   UNL     1      46.352   1.372   8.086  0.00  0.00    +0.000 A 
ENDBRANCH  19  21
ENDBRANCH  14  15
ENDBRANCH   1  14
TORSDOF 6
ENDMDL
MODEL 4
REMARK VINA RESULT:    -7.178      3.434      7.774
REMARK INTER + INTRA:         -10.615
REMARK INTER:                  -9.776
REMARK INTRA:                  -0.838
REMARK UNBOUND:                -0.919
REMARK  Name = 
REMARK  6 active torsions:
REMARK  status: ('A' for Active; 'I' for Inactive)
REMARK    1  A    between atoms: C_2  and  C_4
REMARK    2  A    between atoms: C_7  and  O_8
REMARK    3  A    between atoms: O_8  and  C_9
REMARK    4  A    between atoms: C_9  and  C_10
REMARK    5  A    between atoms: C_10  and  C_11
REMARK    6  A    between atoms: C_15  and  C_16
REMARK                            x       y       z     vdW  Elec       q    Type
REMARK                         _______ _______ _______ _____ _____    ______ ____
ROOT
ATOM      1  C   UNL     1      44.408   3.567  13.025  0.00  0.00    +0.000 C 
ENDROOT
BRANCH   1   2
ATOM      2  O   UNL     1      45.781   3.156  13.069  0.00  0.00    +0.000 OA
BRANCH   2   6
ATOM      3  C   UNL     1      48.057   5.813  15.252  0.00  0.00    +0.000 A 
ATOM      4  C   UNL     1      47.732   6.109  13.926  0.00  0.00    +0.000 A 
ATOM      5  C   UNL     1      46.964   5.200  13.192  0.00  0.00    +0.000 A 
ATOM      6  C   UNL     1      46.553   4.032  13.815  0.00  0.00    +0.000 A 
ATOM      7  N   UNL     1      46.863   3.718  15.089  0.00  0.00    +0.000 NA
ATOM      8  C   UNL     1      47.618   4.607  15.777  0.00  0.00    +0.000 A 
BRANCH   3  10
ATOM      9  N   UNL     1      48.242   7.205  17.233  0.00  0.00    +0.000 N 
ATOM     10  C   UNL     1      48.853   6.705  16.118  0.00  0.00    +0.000 C 
ATOM     11  O   UNL     1      50.027   6.953  15.874  0.00  0.00    +0.000 OA
ATOM     12  H   UNL     1      48.839   7.711  17.877  0.00  0.00    +0.000 HD
ATOM     13  H   UNL     1      47.386   6.817  17.601  0.00  0.00    +0.000 HD
ENDBRANCH   3  10
ENDBRANCH   2   6
ENDBRANCH   1   2
BRANCH   1  14
ATOM     14  C   UNL     1      43.791   3.164  11.686  0.00  0.00    +0.000 C 
BRANCH  14  15
ATOM     15  C   UNL     1      44.546   3.794  10.540  0.00  0.00    +0.000 A 
ATOM     16  C   UNL     1      44.860   5.155  10.555  0.00  0.00    +0.000 A 
ATOM     17  C   UNL     1      45.609   5.710   9.521  0.00  0.00    +0.000 A 
ATOM     18  C   UNL     1      46.070   4.904   8.475  0.00  0.00    +0.000 A 
ATOM     19  C   UNL     1      45.805   3.524   8.442  0.00  0.00    +0.000 A 
ATOM     20  C   UNL     1      45.020   2.995   9.485  0.00  0.00    +0.000 A 
BRANCH  19  21
ATOM     21  C   UNL     1      46.363   2.654   7.385  0.00  0.00    +0.000 A 
ATOM     22  C   UNL     1      46.580   3.103   6.073  0.00  0.00    +0.000 A 
ATOM     23  C   UNL     1      47.081   2.241   5.097  0.00  0.00    +0.000 A 
ATOM     24  C   UNL     1      47.369   0.937   5.456  0.00  0.00    +0.000 A 
ATOM     25  N   UNL     1      47.184   0.450   6.698  0.00  0.00    +0.000 NA
ATOM     26  C   UNL     1      46.683   1.313   7.619  0.00  0.00    +0.000 A 
ENDBRANCH  19  21
ENDBRANCH  14  15
ENDBRANCH   1  14
TORSDOF 6
ENDMDL
MODEL 5
REMARK VINA RESULT:    -6.903      4.184      7.654
REMARK INTER + INTRA:         -10.242
REMARK INTER:                  -9.312
REMARK INTRA:                  -0.931
REMARK UNBOUND:                -0.919
REMARK  Name = 
REMARK  6 active torsions:
REMARK  status: ('A' for Active; 'I' for Inactive)
REMARK    1  A    between atoms: C_2  and  C_4
REMARK    2  A    between atoms: C_7  and  O_8
REMARK    3  A    between atoms: O_8  and  C_9
REMARK    4  A    between atoms: C_9  and  C_10
REMARK    5  A    between atoms: C_10  and  C_11
REMARK    6  A    between atoms: C_15  and  C_16
REMARK                            x       y       z     vdW  Elec       q    Type
REMARK                         _______ _______ _______ _____ _____    ______ ____
ROOT
ATOM      1  C   UNL     1      49.504   7.317  13.264  0.00  0.00    +0.000 C 
ENDROOT
BRANCH   1   2
ATOM      2  O   UNL     1      49.215   7.738  14.604  0.00  0.00    +0.000 OA
BRANCH   2   6
ATOM      3  C   UNL     1      48.037   4.612  17.022  0.00  0.00    +0.000 A 
ATOM      4  C   UNL     1      48.854   5.619  17.544  0.00  0.00    +0.000 A 
ATOM      5  C   UNL     1      49.251   6.672  16.715  0.00  0.00    +0.000 A 
ATOM      6  C   UNL     1      48.817   6.675  15.398  0.00  0.00    +0.000 A 
ATOM      7  N   UNL     1      48.039   5.709  14.868  0.00  0.00    +0.000 NA
ATOM      8  C   UNL     1      47.676   4.693  15.686  0.00  0.00    +0.000 A 
BRANCH   3  10
ATOM      9  N   UNL     1      48.238   3.149  18.950  0.00  0.00    +0.000 N 
ATOM     10  C   UNL     1      47.552   3.462  17.811  0.00  0.00    +0.000 C 
ATOM     11  O   UNL     1      46.550   2.840  17.484  0.00  0.00    +0.000 OA
ATOM     12  H   UNL     1      47.819   2.441  19.541  0.00  0.00    +0.000 HD
ATOM     13  H   UNL     1      48.888   3.789  19.384  0.00  0.00    +0.000 HD
ENDBRANCH   3  10
ENDBRANCH   2   6
ENDBRANCH   1   2
BRANCH   1  14
ATOM     14  C   UNL     1      48.852   8.277  12.270  0.00  0.00    +0.000 C 
BRANCH  14  15
ATOM     15  C   UNL     1      47.390   7.947  12.091  0.00  0.00    +0.000 A 
ATOM     16  C   UNL     1      46.402   8.878  12.424  0.00  0.00    +0.000 A 
ATOM     17  C   UNL     1      45.060   8.584  12.196  0.00  0.00    +0.000 A 
ATOM     18  C   UNL     1      44.696   7.367  11.613  0.00  0.00    +0.000 A 
ATOM     19  C   UNL     1      45.662   6.419  11.231  0.00  0.00    +0.000 A 
ATOM     20  C   UNL     1      47.008   6.729  11.500  0.00  0.00    +0.000 A 
BRANCH  19  21
ATOM     21  C   UNL     1      45.286   5.169  10.536  0.00  0.00    +0.000 A 
ATOM     22  C   UNL     1      45.533   4.960   9.170  0.00  0.00    +0.000 A 
ATOM     23  C   UNL     1      45.135   3.778   8.546  0.00  0.00    +0.000 A 
ATOM     24  C   UNL     1      44.502   2.812   9.307  0.00  0.00    +0.000 A 
ATOM     25  N   UNL     1      44.240   2.955  10.621  0.00  0.00    +0.000 NA
ATOM     26  C   UNL     1      44.629   4.123  11.193  0.00  0.00    +0.000 A 
ENDBRANCH  19  21
ENDBRANCH  14  15
ENDBRANCH   1  14
TORSDOF 6
ENDMDL
MODEL 6
REMARK VINA RESULT:    -6.662      4.857      8.332
REMARK INTER + INTRA:          -9.917
REMARK INTER:                  -9.348
REMARK INTRA:                  -0.569
REMARK UNBOUND:                -0.919
REMARK  Name = 
REMARK  6 active torsions:
REMARK  status: ('A' for Active; 'I' for Inactive)
REMARK    1  A    between atoms: C_2  and  C_4
REMARK    2  A    between atoms: C_7  and  O_8
REMARK    3  A    between atoms: O_8  and  C_9
REMARK    4  A    between atoms: C_9  and  C_10
REMARK    5  A    between atoms: C_10  and  C_11
REMARK    6  A    between atoms: C_15  and  C_16
REMARK                            x       y       z     vdW  Elec       q    Type
REMARK                         _______ _______ _______ _____ _____    ______ ____
ROOT
ATOM      1  C   UNL     1      47.102   4.271  14.017  0.00  0.00    +0.000 C 
ENDROOT
BRANCH   1   2
ATOM      2  O   UNL     1      47.082   3.254  15.026  0.00  0.00    +0.000 OA
BRANCH   2   6
ATOM      3  C   UNL     1      49.171   4.343  18.411  0.00  0.00    +0.000 A 
ATOM      4  C   UNL     1      48.304   3.249  18.458  0.00  0.00    +0.000 A 
ATOM      5  C   UNL     1      47.597   2.890  17.306  0.00  0.00    +0.000 A 
ATOM      6  C   UNL     1      47.785   3.641  16.156  0.00  0.00    +0.000 A 
ATOM      7  N   UNL     1      48.607   4.708  16.089  0.00  0.00    +0.000 NA
ATOM      8  C   UNL     1      49.273   5.045  17.219  0.00  0.00    +0.000 A 
BRANCH   3  10
ATOM      9  N   UNL     1      51.252   4.335  19.662  0.00  0.00    +0.000 N 
ATOM     10  C   UNL     1      49.972   4.802  19.563  0.00  0.00    +0.000 C 
ATOM     11  O   UNL     1      49.525   5.601  20.375  0.00  0.00    +0.000 OA
ATOM     12  H   UNL     1      51.824   4.756  20.385  0.00  0.00    +0.000 HD
ATOM     13  H   UNL     1      51.732   3.900  18.887  0.00  0.00    +0.000 HD
ENDBRANCH   3  10
ENDBRANCH   2   6
ENDBRANCH   1   2
BRANCH   1  14
ATOM     14  C   UNL     1      45.819   5.097  14.091  0.00  0.00    +0.000 C 
BRANCH  14  15
ATOM     15  C   UNL     1      44.936   4.819  12.899  0.00  0.00    +0.000 A 
ATOM     16  C   UNL     1      43.583   5.169  12.915  0.00  0.00    +0.000 A 
ATOM     17  C   UNL     1      42.795   4.964  11.786  0.00  0.00    +0.000 A 
ATOM     18  C   UNL     1      43.357   4.427  10.624  0.00  0.00    +0.000 A 
ATOM     19  C   UNL     1      44.722   4.094  10.556  0.00  0.00    +0.000 A 
ATOM     20  C   UNL     1      45.488   4.285  11.720  0.00  0.00    +0.000 A 
BRANCH  19  21
ATOM     21  C   UNL     1      45.337   3.608   9.302  0.00  0.00    +0.000 A 
ATOM     22  C   UNL     1      45.525   2.244   9.032  0.00  0.00    +0.000 A 
ATOM     23  C   UNL     1      46.137   1.828   7.849  0.00  0.00    +0.000 A 
ATOM     24  C   UNL     1      46.545   2.792   6.945  0.00  0.00    +0.000 A 
ATOM     25  N   UNL     1      46.391   4.115   7.149  0.00  0.00    +0.000 NA
ATOM     26  C   UNL     1      45.802   4.484   8.316  0.00  0.00    +0.000 A 
ENDBRANCH  19  21
ENDBRANCH  14  15
ENDBRANCH   1  14
TORSDOF 6
ENDMDL
MODEL 7
REMARK VINA RESULT:    -6.584      6.341      8.813
REMARK INTER + INTRA:          -9.812
REMARK INTER:                  -9.207
REMARK INTRA:                  -0.606
REMARK UNBOUND:                -0.919
REMARK  Name = 
REMARK  6 active torsions:
REMARK  status: ('A' for Active; 'I' for Inactive)
REMARK    1  A    between atoms: C_2  and  C_4
REMARK    2  A    between atoms: C_7  and  O_8
REMARK    3  A    between atoms: O_8  and  C_9
REMARK    4  A    between atoms: C_9  and  C_10
REMARK    5  A    between atoms: C_10  and  C_11
REMARK    6  A    between atoms: C_15  and  C_16
REMARK                            x       y       z     vdW  Elec       q    Type
REMARK                         _______ _______ _______ _____ _____    ______ ____
ROOT
ATOM      1  C   UNL     1      47.401   3.938  15.810  0.00  0.00    +0.000 C 
ENDROOT
BRANCH   1   2
ATOM      2  O   UNL     1      47.449   3.315  14.521  0.00  0.00    +0.000 OA
BRANCH   2   6
ATOM      3  C   UNL     1      44.690   4.980  11.948  0.00  0.00    +0.000 A 
ATOM      4  C   UNL     1      45.431   5.807  12.795  0.00  0.00    +0.000 A 
ATOM      5  C   UNL     1      46.361   5.233  13.667  0.00  0.00    +0.000 A 
ATOM      6  C   UNL     1      46.511   3.855  13.656  0.00  0.00    +0.000 A 
ATOM      7  N   UNL     1      45.799   3.034  12.857  0.00  0.00    +0.000 NA
ATOM      8  C   UNL     1      44.896   3.611  12.029  0.00  0.00    +0.000 A 
BRANCH   3  10
ATOM      9  N   UNL     1      43.213   6.746  11.177  0.00  0.00    +0.000 N 
ATOM     10  C   UNL     1      43.691   5.481  10.983  0.00  0.00    +0.000 C 
ATOM     11  O   UNL     1      43.336   4.810  10.024  0.00  0.00    +0.000 OA
ATOM     12  H   UNL     1      42.627   7.117  10.438  0.00  0.00    +0.000 HD
ATOM     13  H   UNL     1      43.671   7.412  11.783  0.00  0.00    +0.000 HD
ENDBRANCH   3  10
ENDBRANCH   2   6
ENDBRANCH   1   2
BRANCH   1  14
ATOM     14  C   UNL     1      48.022   3.012  16.855  0.00  0.00    +0.000 C 
BRANCH  14  15
ATOM     15  C   UNL     1      49.387   3.508  17.265  0.00  0.00    +0.000 A 
ATOM     16  C   UNL     1      49.588   4.850  17.599  0.00  0.00    +0.000 A 
ATOM     17  C   UNL     1      50.838   5.281  18.035  0.00  0.00    +0.000 A 
ATOM     18  C   UNL     1      51.891   4.370  18.162  0.00  0.00    +0.000 A 
ATOM     19  C   UNL     1      51.719   3.005  17.870  0.00  0.00    +0.000 A 
ATOM     20  C   UNL     1      50.454   2.602  17.404  0.00  0.00    +0.000 A 
BRANCH  19  21
ATOM     21  C   UNL     1      52.806   2.025  18.087  0.00  0.00    +0.000 A 
ATOM     22  C   UNL     1      52.780   0.735  17.536  0.00  0.00    +0.000 A 
ATOM     23  C   UNL     1      53.812  -0.169  17.789  0.00  0.00    +0.000 A 
ATOM     24  C   UNL     1      54.865   0.240  18.588  0.00  0.00    +0.000 A 
ATOM     25  N   UNL     1      54.944   1.464  19.143  0.00  0.00    +0.000 NA
ATOM     26  C   UNL     1      53.917   2.314  18.885  0.00  0.00    +0.000 A 
ENDBRANCH  19  21
ENDBRANCH  14  15
ENDBRANCH   1  14
TORSDOF 6
ENDMDL
MODEL 8
REMARK VINA RESULT:    -6.387      3.301      7.643
REMARK INTER + INTRA:          -9.546
REMARK INTER:                  -8.864
REMARK INTRA:                  -0.682
REMARK UNBOUND:                -0.919
REMARK  Name = 
REMARK  6 active torsions:
REMARK  status: ('A' for Active; 'I' for Inactive)
REMARK    1  A    between atoms: C_2  and  C_4
REMARK    2  A    between atoms: C_7  and  O_8
REMARK    3  A    between atoms: O_8  and  C_9
REMARK    4  A    between atoms: C_9  and  C_10
REMARK    5  A    between atoms: C_10  and  C_11
REMARK    6  A    between atoms: C_15  and  C_16
REMARK                            x       y       z     vdW  Elec       q    Type
REMARK                         _______ _______ _______ _____ _____    ______ ____
ROOT
ATOM      1  C   UNL     1      45.621   6.434  12.619  0.00  0.00    +0.000 C 
ENDROOT
BRANCH   1   2
ATOM      2  O   UNL     1      46.847   5.690  12.646  0.00  0.00    +0.000 OA
BRANCH   2   6
ATOM      3  C   UNL     1      50.091   8.199  13.067  0.00  0.00    +0.000 A 
ATOM      4  C   UNL     1      49.385   8.181  11.862  0.00  0.00    +0.000 A 
ATOM      5  C   UNL     1      48.289   7.323  11.727  0.00  0.00    +0.000 A 
ATOM      6  C   UNL     1      47.945   6.519  12.803  0.00  0.00    +0.000 A 
ATOM      7  N   UNL     1      48.618   6.510  13.972  0.00  0.00    +0.000 NA
ATOM      8  C   UNL     1      49.683   7.340  14.076  0.00  0.00    +0.000 A 
BRANCH   3  10
ATOM      9  N   UNL     1      51.010  10.400  13.525  0.00  0.00    +0.000 N 
ATOM     10  C   UNL     1      51.255   9.072  13.320  0.00  0.00    +0.000 C 
ATOM     11  O   UNL     1      52.390   8.620  13.388  0.00  0.00    +0.000 OA
ATOM     12  H   UNL     1      51.803  10.958  13.819  0.00  0.00    +0.000 HD
ATOM     13  H   UNL     1      50.089  10.754  13.740  0.00  0.00    +0.000 HD
ENDBRANCH   3  10
ENDBRANCH   2   6
ENDBRANCH   1   2
BRANCH   1  14
ATOM     14  C   UNL     1      45.023   6.391  11.214  0.00  0.00    +0.000 C 
BRANCH  14  15
ATOM     15  C   UNL     1      44.809   4.966  10.767  0.00  0.00    +0.000 A 
ATOM     16  C   UNL     1      43.834   4.167  11.370  0.00  0.00    +0.000 A 
ATOM     17  C   UNL     1      43.605   2.874  10.907  0.00  0.00    +0.000 A 
ATOM     18  C   UNL     1      44.334   2.377   9.823  0.00  0.00    +0.000 A 
ATOM     19  C   UNL     1      45.299   3.161   9.166  0.00  0.00    +0.000 A 
ATOM     20  C   UNL     1      45.530   4.453   9.674  0.00  0.00    +0.000 A 
BRANCH  19  21
ATOM     21  C   UNL     1      46.009   2.669   7.966  0.00  0.00    +0.000 A 
ATOM     22  C   UNL     1      46.566   1.383   7.891  0.00  0.00    +0.000 A 
ATOM     23  C   UNL     1      47.254   0.968   6.751  0.00  0.00    +0.000 A 
ATOM     24  C   UNL     1      47.364   1.851   5.692  0.00  0.00    +0.000 A 
ATOM     25  N   UNL     1      46.850   3.096   5.705  0.00  0.00    +0.000 NA
ATOM     26  C   UNL     1      46.198   3.470   6.835  0.00  0.00    +0.000 A 
ENDBRANCH  19  21
ENDBRANCH  14  15
ENDBRANCH   1  14
TORSDOF 6
ENDMDL
MODEL 9
REMARK VINA RESULT:    -6.299      5.529      8.184
REMARK INTER + INTRA:          -9.427
REMARK INTER:                  -8.692
REMARK INTRA:                  -0.735
REMARK UNBOUND:                -0.919
REMARK  Name = 
REMARK  6 active torsions:
REMARK  status: ('A' for Active; 'I' for Inactive)
REMARK    1  A    between atoms: C_2  and  C_4
REMARK    2  A    between atoms: C_7  and  O_8
REMARK    3  A    between atoms: O_8  and  C_9
REMARK    4  A    between atoms: C_9  and  C_10
REMARK    5  A    between atoms: C_10  and  C_11
REMARK    6  A    between atoms: C_15  and  C_16
REMARK                            x       y       z     vdW  Elec       q    Type
REMARK                         _______ _______ _______ _____ _____    ______ ____
ROOT
ATOM      1  C   UNL     1      49.145   7.086  16.018  0.00  0.00    +0.000 C 
ENDROOT
BRANCH   1   2
ATOM      2  O   UNL     1      48.489   5.967  16.629  0.00  0.00    +0.000 OA
BRANCH   2   6
ATOM      3  C   UNL     1      51.190   3.011  17.615  0.00  0.00    +0.000 A 
ATOM      4  C   UNL     1      51.571   4.352  17.705  0.00  0.00    +0.000 A 
ATOM      5  C   UNL     1      50.650   5.347  17.364  0.00  0.00    +0.000 A 
ATOM      6  C   UNL     1      49.386   4.960  16.947  0.00  0.00    +0.000 A 
ATOM      7  N   UNL     1      48.998   3.672  16.841  0.00  0.00    +0.000 NA
ATOM      8  C   UNL     1      49.910   2.726  17.165  0.00  0.00    +0.000 A 
BRANCH   3  10
ATOM      9  N   UNL     1      51.543   0.628  17.917  0.00  0.00    +0.000 N 
ATOM     10  C   UNL     1      52.079   1.884  17.960  0.00  0.00    +0.000 C 
ATOM     11  O   UNL     1      53.259   2.060  18.230  0.00  0.00    +0.000 OA
ATOM     12  H   UNL     1      52.197  -0.138  18.032  0.00  0.00    +0.000 HD
ATOM     13  H   UNL     1      50.672   0.426  17.448  0.00  0.00    +0.000 HD
ENDBRANCH   3  10
ENDBRANCH   2   6
ENDBRANCH   1   2
BRANCH   1  14
ATOM     14  C   UNL     1      49.189   6.894  14.503  0.00  0.00    +0.000 C 
BRANCH  14  15
ATOM     15  C   UNL     1      47.830   7.138  13.894  0.00  0.00    +0.000 A 
ATOM     16  C   UNL     1      47.373   8.438  13.665  0.00  0.00    +0.000 A 
ATOM     17  C   UNL     1      46.143   8.648  13.046  0.00  0.00    +0.000 A 
ATOM     18  C   UNL     1      45.370   7.559  12.632  0.00  0.00    +0.000 A 
ATOM     19  C   UNL     1      45.810   6.236  12.813  0.00  0.00    +0.000 A 
ATOM     20  C   UNL     1      47.043   6.053  13.467  0.00  0.00    +0.000 A 
BRANCH  19  21
ATOM     21  C   UNL     1      45.036   5.086  12.298  0.00  0.00    +0.000 A 
ATOM     22  C   UNL     1      44.944   4.788  10.930  0.00  0.00    +0.000 A 
ATOM     23  C   UNL     1      44.179   3.711  10.484  0.00  0.00    +0.000 A 
ATOM     24  C   UNL     1      43.520   2.938  11.423  0.00  0.00    +0.000 A 
ATOM     25  N   UNL     1      43.572   3.174  12.748  0.00  0.00    +0.000 NA
ATOM     26  C   UNL     1      44.316   4.238  13.145  0.00  0.00    +0.000 A 
ENDBRANCH  19  21
ENDBRANCH  14  15
ENDBRANCH   1  14
TORSDOF 6
ENDMDL
