MODEL 1
REMARK VINA RESULT:    -7.564      0.000      0.000
REMARK INTER + INTRA:         -10.134
REMARK INTER:                  -9.554
REMARK INTRA:                  -0.580
REMARK UNBOUND:                -0.580
REMARK  Name = 
REMARK  5 active torsions:
REMARK  status: ('A' for Active; 'I' for Inactive)
REMARK    1  A    between atoms: C_2  and  C_3
REMARK    2  A    between atoms: C_6  and  N_7
REMARK    3  A    between atoms: N_7  and  C_8
REMARK    4  A    between atoms: C_8  and  C_9
REMARK    5  A    between atoms: C_17  and  N_18
REMARK                            x       y       z     vdW  Elec       q    Type
REMARK                         _______ _______ _______ _____ _____    ______ ____
ROOT
ATOM      1  C   UNL     1      45.025   4.333  12.453  0.00  0.00    +0.000 A 
ATOM      2  C   UNL     1      45.808   3.282  12.889  0.00  0.00    +0.000 A 
ATOM      3  C   UNL     1      46.972   3.629  13.529  0.00  0.00    +0.000 A 
ATOM      4  N   UNL     1      47.360   4.894  13.735  0.00  0.00    +0.000 NA
ATOM      5  C   UNL     1      46.561   5.875  13.289  0.00  0.00    +0.000 A 
ATOM      6  N   UNL     1      46.985   7.177  13.412  0.00  0.00    +0.000 N 
ATOM      7  C   UNL     1      46.111   8.269  13.022  0.00  0.00    +0.000 C 
ATOM      8  C   UNL     1      46.850   9.191  12.053  0.00  0.00    +0.000 C 
ATOM      9  C   UNL     1      48.208   9.645  12.599  0.00  0.00    +0.000 C 
ATOM     10  C   UNL     1      49.043   8.425  13.003  0.00  0.00    +0.000 C 
ATOM     11  C   UNL     1      48.298   7.494  13.962  0.00  0.00    +0.000 C 
ATOM     12  N   UNL     1      45.394   5.617  12.669  0.00  0.00    +0.000 NA
ENDROOT
BRANCH   9  13
ATOM     13  N   UNL     1      48.067  10.588  13.715  0.00  0.00    +0.000 NA
ATOM     14  H   UNL     1      47.656  11.464  13.393  0.00  0.00    +0.000 HD
ATOM     15  H   UNL     1      48.989  10.830  14.077  0.00  0.00    +0.000 HD
ENDBRANCH   9  13
BRANCH   1  16
ATOM     16  C   UNL     1      43.775   4.081  11.616  0.00  0.00    +0.000 C 
BRANCH  16  17
ATOM     17  N   UNL     1      43.917   4.481  10.215  0.00  0.00    +0.000 N 
ATOM     18  H   UNL     1      43.067   4.835   9.786  0.00  0.00    +0.000 HD
BRANCH  17  22
ATOM     19  C   UNL     1      46.549   2.493   7.547  0.00  0.00    +0.000 A 
ATOM     20  C   UNL     1      45.771   1.747   8.435  0.00  0.00    +0.000 A 
ATOM     21  C   UNL     1      44.885   2.386   9.322  0.00  0.00    +0.000 A 
ATOM     22  C   UNL     1      44.728   3.777   9.322  0.00  0.00    +0.000 A 
ATOM     23  C   UNL     1      45.531   4.510   8.430  0.00  0.00    +0.000 A 
ATOM     24  C   UNL     1      46.428   3.884   7.553  0.00  0.00    +0.000 A 
BRANCH  19  26
ATOM     25  N   UNL     1      48.210   1.311   5.934  0.00  0.00    +0.000 NA
ATOM     26  C   UNL     1      47.467   1.842   6.657  0.00  0.00    +0.000 C 
ENDBRANCH  19  26
ENDBRANCH  17  22
ENDBRANCH  16  17
ENDBRANCH   1  16
TORSDOF 5
ENDMDL
MODEL 2
REMARK VINA RESULT:    -7.557      2.235      3.708
REMARK INTER + INTRA:         -10.125
REMARK INTER:                  -9.699
REMARK INTRA:                  -0.426
REMARK UNBOUND:                -0.580
REMARK  Name = 
REMARK  5 active torsions:
REMARK  status: ('A' for Active; 'I' for Inactive)
REMARK    1  A    between atoms: C_2  and  C_3
REMARK    2  A    between atoms: C_6  and  N_7
REMARK    3  A    between atoms: N_7  and  C_8
REMARK    4  A    between atoms: C_8  and  C_9
REMARK    5  A    between atoms: C_17  and  N_18
REMARK                            x       y       z     vdW  Elec       q    Type
REMARK                         _______ _______ _______ _____ _____    ______ ____
ROOT
ATOM      1  C   UNL     1      45.529   4.514  12.632  0.00  0.00    +0.000 A 
ATOM      2  C   UNL     1      45.614   5.805  12.150  0.00  0.00    +0.000 A 
ATOM      3  C   UNL     1      46.467   6.642  12.827  0.00  0.00    +0.000 A 
ATOM      4  N   UNL     1      47.185   6.268  13.894  0.00  0.00    +0.000 NA
ATOM      5  C   UNL     1      47.060   5.002  14.321  0.00  0.00    +0.000 A 
ATOM      6  N   UNL     1      47.720   4.626  15.467  0.00  0.00    +0.000 N 
ATOM      7  C   UNL     1      47.682   3.244  15.910  0.00  0.00    +0.000 C 
ATOM      8  C   UNL     1      47.231   3.190  17.369  0.00  0.00    +0.000 C 
ATOM      9  C   UNL     1      48.060   4.111  18.271  0.00  0.00    +0.000 C 
ATOM     10  C   UNL     1      48.058   5.535  17.707  0.00  0.00    +0.000 C 
ATOM     11  C   UNL     1      48.496   5.587  16.242  0.00  0.00    +0.000 C 
ATOM     12  N   UNL     1      46.260   4.116  13.699  0.00  0.00    +0.000 NA
ENDROOT
BRANCH   9  13
ATOM     13  N   UNL     1      49.428   3.613  18.459  0.00  0.00    +0.000 NA
ATOM     14  H   UNL     1      49.712   3.706  19.434  0.00  0.00    +0.000 HD
ATOM     15  H   UNL     1      50.078   4.188  17.924  0.00  0.00    +0.000 HD
ENDBRANCH   9  13
BRANCH   1  16
ATOM     16  C   UNL     1      44.522   3.527  12.048  0.00  0.00    +0.000 C 
BRANCH  16  17
ATOM     17  N   UNL     1      44.159   3.813  10.660  0.00  0.00    +0.000 N 
ATOM     18  H   UNL     1      43.159   3.842  10.479  0.00  0.00    +0.000 HD
BRANCH  17  22
ATOM     19  C   UNL     1      46.552   2.453   7.431  0.00  0.00    +0.000 A 
ATOM     20  C   UNL     1      45.976   1.527   8.303  0.00  0.00    +0.000 A 
ATOM     21  C   UNL     1      45.172   1.956   9.375  0.00  0.00    +0.000 A 
ATOM     22  C   UNL     1      44.894   3.312   9.583  0.00  0.00    +0.000 A 
ATOM     23  C   UNL     1      45.495   4.229   8.702  0.00  0.00    +0.000 A 
ATOM     24  C   UNL     1      46.311   3.812   7.640  0.00  0.00    +0.000 A 
BRANCH  19  26
ATOM     25  N   UNL     1      48.068   1.657   5.474  0.00  0.00    +0.000 NA
ATOM     26  C   UNL     1      47.389   2.015   6.351  0.00  0.00    +0.000 C 
ENDBRANCH  19  26
ENDBRANCH  17  22
ENDBRANCH  16  17
ENDBRANCH   1  16
TORSDOF 5
ENDMDL
MODEL 3
REMARK VINA RESULT:    -6.597      1.583      2.631
REMARK INTER + INTRA:          -8.912
REMARK INTER:                  -8.522
REMARK INTRA:                  -0.390
REMARK UNBOUND:                -0.580
REMARK  Name = 
REMARK  5 active torsions:
REMARK  status: ('A' for Active; 'I' for Inactive)
REMARK    1  A    between atoms: C_2  and  C_3
REMARK    2  A    between atoms: C_6  and  N_7
REMARK    3  A    between atoms: N_7  and  C_8
REMARK    4  A    between atoms: C_8  and  C_9
REMARK    5  A    between atoms: C_17  and  N_18
REMARK                            x       y       z     vdW  Elec       q    Type
REMARK                         _______ _______ _______ _____ _____    ______ ____
ROOT
ATOM      1  C   UNL     1      45.023   6.271  11.775  0.00  0.00    +0.000 A 
ATOM      2  C   UNL     1      44.331   7.382  11.339  0.00  0.00    +0.000 A 
ATOM      3  C   UNL     1      44.861   8.597  11.698  0.00  0.00    +0.000 A 
ATOM      4  N   UNL     1      45.975   8.737  12.428  0.00  0.00    +0.000 NA
ATOM      5  C   UNL     1      46.606   7.622  12.827  0.00  0.00    +0.000 A 
ATOM      6  N   UNL     1      47.700   7.744  13.651  0.00  0.00    +0.000 N 
ATOM      7  C   UNL     1      48.461   6.568  14.031  0.00  0.00    +0.000 C 
ATOM      8  C   UNL     1      48.596   6.519  15.553  0.00  0.00    +0.000 C 
ATOM      9  C   UNL     1      49.141   7.829  16.133  0.00  0.00    +0.000 C 
ATOM     10  C   UNL     1      48.287   9.008  15.655  0.00  0.00    +0.000 C 
ATOM     11  C   UNL     1      48.140   9.048  14.133  0.00  0.00    +0.000 C 
ATOM     12  N   UNL     1      46.161   6.395  12.499  0.00  0.00    +0.000 NA
ENDROOT
BRANCH   9  13
ATOM     13  N   UNL     1      50.558   8.029  15.807  0.00  0.00    +0.000 NA
ATOM     14  H   UNL     1      51.125   7.276  16.195  0.00  0.00    +0.000 HD
ATOM     15  H   UNL     1      50.893   8.885  16.248  0.00  0.00    +0.000 HD
ENDBRANCH   9  13
BRANCH   1  16
ATOM     16  C   UNL     1      44.469   4.867  11.553  0.00  0.00    +0.000 C 
BRANCH  16  17
ATOM     17  N   UNL     1      44.045   4.616  10.174  0.00  0.00    +0.000 N 
ATOM     18  H   UNL     1      43.049   4.453  10.059  0.00  0.00    +0.000 HD
BRANCH  17  22
ATOM     19  C   UNL     1      46.593   2.524   7.504  0.00  0.00    +0.000 A 
ATOM     20  C   UNL     1      45.797   1.810   8.404  0.00  0.00    +0.000 A 
ATOM     21  C   UNL     1      44.939   2.484   9.292  0.00  0.00    +0.000 A 
ATOM     22  C   UNL     1      44.827   3.879   9.282  0.00  0.00    +0.000 A 
ATOM     23  C   UNL     1      45.646   4.579   8.378  0.00  0.00    +0.000 A 
ATOM     24  C   UNL     1      46.516   3.918   7.499  0.00  0.00    +0.000 A 
BRANCH  19  26
ATOM     25  N   UNL     1      48.204   1.279   5.888  0.00  0.00    +0.000 NA
ATOM     26  C   UNL     1      47.483   1.836   6.613  0.00  0.00    +0.000 C 
ENDBRANCH  19  26
ENDBRANCH  17  22
ENDBRANCH  16  17
ENDBRANCH   1  16
TORSDOF 5
ENDMDL
MODEL 4
REMARK VINA RESULT:    -6.194      4.197      7.952
REMARK INTER + INTRA:          -8.404
REMARK INTER:                  -8.039
REMARK INTRA:                  -0.364
REMARK UNBOUND:                -0.580
REMARK  Name = 
REMARK  5 active torsions:
REMARK  status: ('A' for Active; 'I' for Inactive)
REMARK    1  A    between atoms: C_2  and  C_3
REMARK    2  A    between atoms: C_6  and  N_7
REMARK    3  A    between atoms: N_7  and  C_8
REMARK    4  A    between atoms: C_8  and  C_9
REMARK    5  A    between atoms: C_17  and  N_18
REMARK                            x       y       z     vdW  Elec       q    Type
REMARK                         _______ _______ _______ _____ _____    ______ ____
ROOT
ATOM      1  C   UNL     1      47.366   4.686  15.150  0.00  0.00    +0.000 A 
ATOM      2  C   UNL     1      48.141   5.824  15.249  0.00  0.00    +0.000 A 
ATOM      3  C   UNL     1      47.995   6.738  14.233  0.00  0.00    +0.000 A 
ATOM      4  N   UNL     1      47.167   6.569  13.194  0.00  0.00    +0.000 NA
ATOM      5  C   UNL     1      46.440   5.443  13.148  0.00  0.00    +0.000 A 
ATOM      6  N   UNL     1      45.652   5.213  12.046  0.00  0.00    +0.000 N 
ATOM      7  C   UNL     1      44.784   4.050  12.000  0.00  0.00    +0.000 C 
ATOM      8  C   UNL     1      45.044   3.271  10.711  0.00  0.00    +0.000 C 
ATOM      9  C   UNL     1      44.963   4.159   9.465  0.00  0.00    +0.000 C 
ATOM     10  C   UNL     1      45.894   5.366   9.621  0.00  0.00    +0.000 C 
ATOM     11  C   UNL     1      45.642   6.138  10.918  0.00  0.00    +0.000 C 
ATOM     12  N   UNL     1      46.511   4.509  14.115  0.00  0.00    +0.000 NA
ENDROOT
BRANCH   9  13
ATOM     13  N   UNL     1      43.587   4.579   9.176  0.00  0.00    +0.000 NA
ATOM     14  H   UNL     1      43.430   5.535   9.496  0.00  0.00    +0.000 HD
ATOM     15  H   UNL     1      42.934   3.999   9.703  0.00  0.00    +0.000 HD
ENDBRANCH   9  13
BRANCH   1  16
ATOM     16  C   UNL     1      47.530   3.540  16.144  0.00  0.00    +0.000 C 
BRANCH  16  17
ATOM     17  N   UNL     1      48.293   3.905  17.338  0.00  0.00    +0.000 N 
ATOM     18  H   UNL     1      48.164   4.864  17.649  0.00  0.00    +0.000 HD
BRANCH  17  22
ATOM     19  C   UNL     1      52.216   2.362  17.820  0.00  0.00    +0.000 A 
ATOM     20  C   UNL     1      51.928   3.663  18.239  0.00  0.00    +0.000 A 
ATOM     21  C   UNL     1      50.632   4.191  18.097  0.00  0.00    +0.000 A 
ATOM     22  C   UNL     1      49.585   3.427  17.567  0.00  0.00    +0.000 A 
ATOM     23  C   UNL     1      49.900   2.124  17.139  0.00  0.00    +0.000 A 
ATOM     24  C   UNL     1      51.192   1.594  17.262  0.00  0.00    +0.000 A 
BRANCH  19  26
ATOM     25  N   UNL     1      54.621   1.401  18.048  0.00  0.00    +0.000 NA
ATOM     26  C   UNL     1      53.543   1.831  17.947  0.00  0.00    +0.000 C 
ENDBRANCH  19  26
ENDBRANCH  17  22
ENDBRANCH  16  17
ENDBRANCH   1  16
TORSDOF 5
ENDMDL
MODEL 5
REMARK VINA RESULT:    -6.019      3.304      7.563
REMARK INTER + INTRA:          -8.182
REMARK INTER:                  -7.746
REMARK INTRA:                  -0.435
REMARK UNBOUND:                -0.580
REMARK  Name = 
REMARK  5 active torsions:
REMARK  status: ('A' for Active; 'I' for Inactive)
REMARK    1  A    between atoms: C_2  and  C_3
REMARK    2  A    between atoms: C_6  and  N_7
REMARK    3  A    between atoms: N_7  and  C_8
REMARK    4  A    between atoms: C_8  and  C_9
REMARK    5  A    between atoms: C_17  and  N_18
REMARK                            x       y       z     vdW  Elec       q    Type
REMARK                         _______ _______ _______ _____ _____    ______ ____
ROOT
ATOM      1  C   UNL     1      48.270   7.195  14.060  0.00  0.00    +0.000 A 
ATOM      2  C   UNL     1      49.017   7.843  13.097  0.00  0.00    +0.000 A 
ATOM      3  C   UNL     1      48.546   7.748  11.810  0.00  0.00    +0.000 A 
ATOM      4  N   UNL     1      47.438   7.076  11.471  0.00  0.00    +0.000 NA
ATOM      5  C   UNL     1      46.753   6.464  12.448  0.00  0.00    +0.000 A 
ATOM      6  N   UNL     1      45.664   5.696  12.107  0.00  0.00    +0.000 N 
ATOM      7  C   UNL     1      44.845   5.091  13.142  0.00  0.00    +0.000 C 
ATOM      8  C   UNL     1      44.705   3.594  12.869  0.00  0.00    +0.000 C 
ATOM      9  C   UNL     1      44.223   3.302  11.444  0.00  0.00    +0.000 C 
ATOM     10  C   UNL     1      45.135   4.002  10.431  0.00  0.00    +0.000 C 
ATOM     11  C   UNL     1      45.287   5.498  10.712  0.00  0.00    +0.000 C 
ATOM     12  N   UNL     1      47.138   6.526  13.736  0.00  0.00    +0.000 NA
ENDROOT
BRANCH   9  13
ATOM     13  N   UNL     1      42.819   3.680  11.248  0.00  0.00    +0.000 NA
ATOM     14  H   UNL     1      42.450   3.260  10.396  0.00  0.00    +0.000 HD
ATOM     15  H   UNL     1      42.751   4.689  11.113  0.00  0.00    +0.000 HD
ENDBRANCH   9  13
BRANCH   1  16
ATOM     16  C   UNL     1      48.756   7.116  15.505  0.00  0.00    +0.000 C 
BRANCH  16  17
ATOM     17  N   UNL     1      48.173   6.006  16.260  0.00  0.00    +0.000 N 
ATOM     18  H   UNL     1      47.459   6.277  16.930  0.00  0.00    +0.000 HD
BRANCH  17  22
ATOM     19  C   UNL     1      50.428   2.585  17.361  0.00  0.00    +0.000 A 
ATOM     20  C   UNL     1      50.993   3.856  17.488  0.00  0.00    +0.000 A 
ATOM     21  C   UNL     1      50.259   5.004  17.136  0.00  0.00    +0.000 A 
ATOM     22  C   UNL     1      48.937   4.917  16.684  0.00  0.00    +0.000 A 
ATOM     23  C   UNL     1      48.392   3.627  16.552  0.00  0.00    +0.000 A 
ATOM     24  C   UNL     1      49.120   2.476  16.885  0.00  0.00    +0.000 A 
BRANCH  19  26
ATOM     25  N   UNL     1      51.800   0.464  17.975  0.00  0.00    +0.000 NA
ATOM     26  C   UNL     1      51.184   1.414  17.700  0.00  0.00    +0.000 C 
ENDBRANCH  19  26
ENDBRANCH  17  22
ENDBRANCH  16  17
ENDBRANCH   1  16
TORSDOF 5
ENDMDL
MODEL 6
REMARK VINA RESULT:    -6.000      3.186      5.253
REMARK INTER + INTRA:          -8.159
REMARK INTER:                  -7.722
REMARK INTRA:                  -0.437
REMARK UNBOUND:                -0.580
REMARK  Name = 
REMARK  5 active torsions:
REMARK  status: ('A' for Active; 'I' for Inactive)
REMARK    1  A    between atoms: C_2  and  C_3
REMARK    2  A    between atoms: C_6  and  N_7
REMARK    3  A    between atoms: N_7  and  C_8
REMARK    4  A    between atoms: C_8  and  C_9
REMARK    5  A    between atoms: C_17  and  N_18
REMARK                            x       y       z     vdW  Elec       q    Type
REMARK                         _______ _______ _______ _____ _____    ______ ____
ROOT
ATOM      1  C   UNL     1      48.342   7.449  13.806  0.00  0.00    +0.000 A 
ATOM      2  C   UNL     1      49.543   8.094  13.591  0.00  0.00    +0.000 A 
ATOM      3  C   UNL     1      50.555   7.782  14.466  0.00  0.00    +0.000 A 
ATOM      4  N   UNL     1      50.422   6.914  15.478  0.00  0.00    +0.000 NA
ATOM      5  C   UNL     1      49.232   6.318  15.640  0.00  0.00    +0.000 A 
ATOM      6  N   UNL     1      49.051   5.493  16.725  0.00  0.00    +0.000 N 
ATOM      7  C   UNL     1      47.807   4.761  16.886  0.00  0.00    +0.000 C 
ATOM      8  C   UNL     1      47.237   5.027  18.279  0.00  0.00    +0.000 C 
ATOM      9  C   UNL     1      48.261   4.766  19.389  0.00  0.00    +0.000 C 
ATOM     10  C   UNL     1      49.542   5.562  19.115  0.00  0.00    +0.000 C 
ATOM     11  C   UNL     1      50.105   5.307  17.716  0.00  0.00    +0.000 C 
ATOM     12  N   UNL     1      48.197   6.556  14.813  0.00  0.00    +0.000 NA
ENDROOT
BRANCH   9  13
ATOM     13  N   UNL     1      48.546   3.335  19.552  0.00  0.00    +0.000 NA
ATOM     14  H   UNL     1      48.305   2.824  18.704  0.00  0.00    +0.000 HD
ATOM     15  H   UNL     1      47.954   2.950  20.287  0.00  0.00    +0.000 HD
ENDBRANCH   9  13
BRANCH   1  16
ATOM     16  C   UNL     1      47.106   7.805  12.985  0.00  0.00    +0.000 C 
BRANCH  16  17
ATOM     17  N   UNL     1      45.943   6.968  13.284  0.00  0.00    +0.000 N 
ATOM     18  H   UNL     1      45.779   6.807  14.273  0.00  0.00    +0.000 HD
BRANCH  17  22
ATOM     19  C   UNL     1      45.028   3.725  10.706  0.00  0.00    +0.000 A 
ATOM     20  C   UNL     1      45.156   3.503  12.080  0.00  0.00    +0.000 A 
ATOM     21  C   UNL     1      45.451   4.566  12.953  0.00  0.00    +0.000 A 
ATOM     22  C   UNL     1      45.590   5.878  12.486  0.00  0.00    +0.000 A 
ATOM     23  C   UNL     1      45.470   6.078  11.099  0.00  0.00    +0.000 A 
ATOM     24  C   UNL     1      45.192   5.022  10.218  0.00  0.00    +0.000 A 
BRANCH  19  26
ATOM     25  N   UNL     1      44.523   1.751   9.092  0.00  0.00    +0.000 NA
ATOM     26  C   UNL     1      44.749   2.636   9.814  0.00  0.00    +0.000 C 
ENDBRANCH  19  26
ENDBRANCH  17  22
ENDBRANCH  16  17
ENDBRANCH   1  16
TORSDOF 5
ENDMDL
MODEL 7
REMARK VINA RESULT:    -5.896      3.066      8.121
REMARK INTER + INTRA:          -8.027
REMARK INTER:                  -7.594
REMARK INTRA:                  -0.433
REMARK UNBOUND:                -0.580
REMARK  Name = 
REMARK  5 active torsions:
REMARK  status: ('A' for Active; 'I' for Inactive)
REMARK    1  A    between atoms: C_2  and  C_3
REMARK    2  A    between atoms: C_6  and  N_7
REMARK    3  A    between atoms: N_7  and  C_8
REMARK    4  A    between atoms: C_8  and  C_9
REMARK    5  A    between atoms: C_17  and  N_18
REMARK                            x       y       z     vdW  Elec       q    Type
REMARK                         _______ _______ _______ _____ _____    ______ ____
ROOT
ATOM      1  C   UNL     1      46.873   8.079  13.317  0.00  0.00    +0.000 A 
ATOM      2  C   UNL     1      46.464   9.201  12.624  0.00  0.00    +0.000 A 
ATOM      3  C   UNL     1      45.367   9.037  11.814  0.00  0.00    +0.000 A 
ATOM      4  N   UNL     1      44.711   7.877  11.675  0.00  0.00    +0.000 NA
ATOM      5  C   UNL     1      45.154   6.820  12.371  0.00  0.00    +0.000 A 
ATOM      6  N   UNL     1      44.549   5.601  12.174  0.00  0.00    +0.000 N 
ATOM      7  C   UNL     1      44.941   4.454  12.972  0.00  0.00    +0.000 C 
ATOM      8  C   UNL     1      45.288   3.286  12.049  0.00  0.00    +0.000 C 
ATOM      9  C   UNL     1      44.175   2.990  11.038  0.00  0.00    +0.000 C 
ATOM     10  C   UNL     1      43.818   4.265  10.266  0.00  0.00    +0.000 C 
ATOM     11  C   UNL     1      43.485   5.438  11.190  0.00  0.00    +0.000 C 
ATOM     12  N   UNL     1      46.211   6.905  13.202  0.00  0.00    +0.000 NA
ENDROOT
BRANCH   9  13
ATOM     13  N   UNL     1      42.991   2.404  11.677  0.00  0.00    +0.000 NA
ATOM     14  H   UNL     1      43.176   2.203  12.659  0.00  0.00    +0.000 HD
ATOM     15  H   UNL     1      42.779   1.505  11.244  0.00  0.00    +0.000 HD
ENDBRANCH   9  13
BRANCH   1  16
ATOM     16  C   UNL     1      48.153   8.098  14.148  0.00  0.00    +0.000 C 
BRANCH  16  17
ATOM     17  N   UNL     1      48.650   6.763  14.489  0.00  0.00    +0.000 N 
ATOM     18  H   UNL     1      48.449   6.046  13.798  0.00  0.00    +0.000 HD
BRANCH  17  22
ATOM     19  C   UNL     1      48.542   5.504  18.539  0.00  0.00    +0.000 A 
ATOM     20  C   UNL     1      47.991   4.690  17.546  0.00  0.00    +0.000 A 
ATOM     21  C   UNL     1      48.024   5.085  16.196  0.00  0.00    +0.000 A 
ATOM     22  C   UNL     1      48.635   6.280  15.799  0.00  0.00    +0.000 A 
ATOM     23  C   UNL     1      49.172   7.090  16.815  0.00  0.00    +0.000 A 
ATOM     24  C   UNL     1      49.130   6.713  18.165  0.00  0.00    +0.000 A 
BRANCH  19  26
ATOM     25  N   UNL     1      48.445   4.787  21.036  0.00  0.00    +0.000 NA
ATOM     26  C   UNL     1      48.489   5.110  19.917  0.00  0.00    +0.000 C 
ENDBRANCH  19  26
ENDBRANCH  17  22
ENDBRANCH  16  17
ENDBRANCH   1  16
TORSDOF 5
ENDMDL
MODEL 8
REMARK VINA RESULT:    -5.638      3.459      6.756
REMARK INTER + INTRA:          -7.701
REMARK INTER:                  -7.197
REMARK INTRA:                  -0.503
REMARK UNBOUND:                -0.580
REMARK  Name = 
REMARK  5 active torsions:
REMARK  status: ('A' for Active; 'I' for Inactive)
REMARK    1  A    between atoms: C_2  and  C_3
REMARK    2  A    between atoms: C_6  and  N_7
REMARK    3  A    between atoms: N_7  and  C_8
REMARK    4  A    between atoms: C_8  and  C_9
REMARK    5  A    between atoms: C_17  and  N_18
REMARK                            x       y       z     vdW  Elec       q    Type
REMARK                         _______ _______ _______ _____ _____    ______ ____
ROOT
ATOM      1  C   UNL     1      48.712   5.838  15.665  0.00  0.00    +0.000 A 
ATOM      2  C   UNL     1      48.404   4.948  16.674  0.00  0.00    +0.000 A 
ATOM      3  C   UNL     1      47.340   4.113  16.432  0.00  0.00    +0.000 A 
ATOM      4  N   UNL     1      46.621   4.133  15.302  0.00  0.00    +0.000 NA
ATOM      5  C   UNL     1      46.964   5.021  14.356  0.00  0.00    +0.000 A 
ATOM      6  N   UNL     1      46.183   5.116  13.229  0.00  0.00    +0.000 N 
ATOM      7  C   UNL     1      46.572   6.001  12.145  0.00  0.00    +0.000 C 
ATOM      8  C   UNL     1      45.403   6.921  11.795  0.00  0.00    +0.000 C 
ATOM      9  C   UNL     1      44.108   6.146  11.533  0.00  0.00    +0.000 C 
ATOM     10  C   UNL     1      43.799   5.227  12.719  0.00  0.00    +0.000 C 
ATOM     11  C   UNL     1      44.974   4.316  13.078  0.00  0.00    +0.000 C 
ATOM     12  N   UNL     1      48.006   5.859  14.510  0.00  0.00    +0.000 NA
ENDROOT
BRANCH   9  13
ATOM     13  N   UNL     1      44.161   5.393  10.274  0.00  0.00    +0.000 NA
ATOM     14  H   UNL     1      45.077   5.489   9.838  0.00  0.00    +0.000 HD
ATOM     15  H   UNL     1      43.495   5.788   9.610  0.00  0.00    +0.000 HD
ENDBRANCH   9  13
BRANCH   1  16
ATOM     16  C   UNL     1      49.786   6.903  15.864  0.00  0.00    +0.000 C 
BRANCH  16  17
ATOM     17  N   UNL     1      50.469   7.285  14.626  0.00  0.00    +0.000 N 
ATOM     18  H   UNL     1      51.483   7.296  14.687  0.00  0.00    +0.000 HD
BRANCH  17  22
ATOM     19  C   UNL     1      48.807  10.105  11.927  0.00  0.00    +0.000 A 
ATOM     20  C   UNL     1      48.881  10.410  13.288  0.00  0.00    +0.000 A 
ATOM     21  C   UNL     1      49.437   9.493  14.199  0.00  0.00    +0.000 A 
ATOM     22  C   UNL     1      49.962   8.267  13.773  0.00  0.00    +0.000 A 
ATOM     23  C   UNL     1      49.866   7.974  12.401  0.00  0.00    +0.000 A 
ATOM     24  C   UNL     1      49.300   8.875  11.487  0.00  0.00    +0.000 A 
BRANCH  19  26
ATOM     25  N   UNL     1      47.747  11.784  10.249  0.00  0.00    +0.000 NA
ATOM     26  C   UNL     1      48.222  11.032  11.002  0.00  0.00    +0.000 C 
ENDBRANCH  19  26
ENDBRANCH  17  22
ENDBRANCH  16  17
ENDBRANCH   1  16
TORSDOF 5
ENDMDL
MODEL 9
REMARK VINA RESULT:    -5.273      3.483      9.124
REMARK INTER + INTRA:          -7.240
REMARK INTER:                  -6.798
REMARK INTRA:                  -0.442
REMARK UNBOUND:                -0.580
REMARK  Name = 
REMARK  5 active torsions:
REMARK  status: ('A' for Active; 'I' for Inactive)
REMARK    1  A    between atoms: C_2  and  C_3
REMARK    2  A    between atoms: C_6  and  N_7
REMARK    3  A    between atoms: N_7  and  C_8
REMARK    4  A    between atoms: C_8  and  C_9
REMARK    5  A    between atoms: C_17  and  N_18
REMARK                            x       y       z     vdW  Elec       q    Type
REMARK                         _______ _______ _______ _____ _____    ______ ____
ROOT
ATOM      1  C   UNL     1      48.346   7.028  14.176  0.00  0.00    +0.000 A 
ATOM      2  C   UNL     1      48.738   8.092  13.388  0.00  0.00    +0.000 A 
ATOM      3  C   UNL     1      47.993   8.304  12.254  0.00  0.00    +0.000 A 
ATOM      4  N   UNL     1      46.946   7.547  11.900  0.00  0.00    +0.000 NA
ATOM      5  C   UNL     1      46.611   6.526  12.701  0.00  0.00    +0.000 A 
ATOM      6  N   UNL     1      45.596   5.685  12.308  0.00  0.00    +0.000 N 
ATOM      7  C   UNL     1      45.146   4.623  13.190  0.00  0.00    +0.000 C 
ATOM      8  C   UNL     1      45.164   3.294  12.435  0.00  0.00    +0.000 C 
ATOM      9  C   UNL     1      44.404   3.366  11.107  0.00  0.00    +0.000 C 
ATOM     10  C   UNL     1      44.935   4.529  10.262  0.00  0.00    +0.000 C 
ATOM     11  C   UNL     1      44.930   5.857  11.022  0.00  0.00    +0.000 C 
ATOM     12  N   UNL     1      47.279   6.264  13.840  0.00  0.00    +0.000 NA
ENDROOT
BRANCH   9  13
ATOM     13  N   UNL     1      42.953   3.470  11.306  0.00  0.00    +0.000 NA
ATOM     14  H   UNL     1      42.744   4.051  12.117  0.00  0.00    +0.000 HD
ATOM     15  H   UNL     1      42.570   2.548  11.518  0.00  0.00    +0.000 HD
ENDBRANCH   9  13
BRANCH   1  16
ATOM     16  C   UNL     1      49.169   6.610  15.391  0.00  0.00    +0.000 C 
BRANCH  16  17
ATOM     17  N   UNL     1      49.635   7.737  16.199  0.00  0.00    +0.000 N 
ATOM     18  H   UNL     1      50.605   7.675  16.495  0.00  0.00    +0.000 HD
BRANCH  17  22
ATOM     19  C   UNL     1      47.262   9.532  19.224  0.00  0.00    +0.000 A 
ATOM     20  C   UNL     1      47.715  10.304  18.151  0.00  0.00    +0.000 A 
ATOM     21  C   UNL     1      48.496   9.726  17.133  0.00  0.00    +0.000 A 
ATOM     22  C   UNL     1      48.815   8.363  17.140  0.00  0.00    +0.000 A 
ATOM     23  C   UNL     1      48.360   7.607  18.236  0.00  0.00    +0.000 A 
ATOM     24  C   UNL     1      47.594   8.177  19.264  0.00  0.00    +0.000 A 
BRANCH  19  26
ATOM     25  N   UNL     1      45.850  10.607  21.124  0.00  0.00    +0.000 NA
ATOM     26  C   UNL     1      46.483  10.127  20.272  0.00  0.00    +0.000 C 
ENDBRANCH  19  26
ENDBRANCH  17  22
ENDBRANCH  16  17
ENDBRANCH   1  16
TORSDOF 5
ENDMDL
