MODEL 1
REMARK VINA RESULT:    -7.484      0.000      0.000
REMARK INTER + INTRA:         -11.238
REMARK INTER:                 -10.546
REMARK INTRA:                  -0.692
REMARK UNBOUND:                -0.692
REMARK  Name = 
REMARK  9 active torsions:
REMARK  status: ('A' for Active; 'I' for Inactive)
REMARK    1  A    between atoms: C_1  and  C_2
REMARK    2  A    between atoms: C_2  and  C_3
REMARK    3  A    between atoms: C_3  and  C_4
REMARK    4  A    between atoms: C_7  and  C_8
REMARK    5  A    between atoms: C_11  and  O_12
REMARK    6  A    between atoms: O_12  and  C_13
REMARK    7  A    between atoms: C_13  and  C_14
REMARK    8  A    between atoms: C_14  and  C_15
REMARK    9  A    between atoms: C_19  and  C_20
REMARK                            x       y       z     vdW  Elec       q    Type
REMARK                         _______ _______ _______ _____ _____    ______ ____
ROOT
ATOM      1  C   UNL     1      47.523   6.127  13.110  0.00  0.00    +0.000 A 
ATOM      2  C   UNL     1      47.063   5.328  14.158  0.00  0.00    +0.000 A 
ATOM      3  N   UNL     1      45.898   4.636  14.118  0.00  0.00    +0.000 NA
ATOM      4  C   UNL     1      45.187   4.768  12.958  0.00  0.00    +0.000 A 
ATOM      5  C   UNL     1      45.658   5.536  11.884  0.00  0.00    +0.000 A 
ATOM      6  N   UNL     1      46.821   6.243  11.953  0.00  0.00    +0.000 NA
ENDROOT
BRANCH   4   7
ATOM      7  C   UNL     1      43.891   4.007  12.889  0.00  0.00    +0.000 C 
ATOM      8  N   UNL     1      43.943   2.687  12.480  0.00  0.00    +0.000 N 
ATOM      9  O   UNL     1      42.815   4.485  13.181  0.00  0.00    +0.000 OA
ATOM     10  H   UNL     1      44.808   2.208  12.277  0.00  0.00    +0.000 HD
ATOM     11  H   UNL     1      43.071   2.170  12.468  0.00  0.00    +0.000 HD
ENDBRANCH   4   7
BRANCH   1  12
ATOM     12  C   UNL     1      48.840   6.849  13.225  0.00  0.00    +0.000 C 
BRANCH  12  14
ATOM     13  C   UNL     1      50.255   7.741  11.343  0.00  0.00    +0.000 C 
ATOM     14  C   UNL     1      48.989   7.938  12.162  0.00  0.00    +0.000 C 
ENDBRANCH  12  14
ENDBRANCH   1  12
BRANCH   5  15
ATOM     15  O   UNL     1      44.922   5.607  10.726  0.00  0.00    +0.000 OA
BRANCH  15  16
ATOM     16  C   UNL     1      45.621   5.296   9.511  0.00  0.00    +0.000 C 
BRANCH  16  17
ATOM     17  C   UNL     1      44.778   4.228   8.795  0.00  0.00    +0.000 C 
BRANCH  17  18
ATOM     18  C   UNL     1      45.542   3.094   8.153  0.00  0.00    +0.000 A 
ATOM     19  C   UNL     1      45.604   1.817   8.730  0.00  0.00    +0.000 A 
ATOM     20  C   UNL     1      46.362   0.804   8.135  0.00  0.00    +0.000 A 
ATOM     21  C   UNL     1      47.040   1.044   6.943  0.00  0.00    +0.000 A 
ATOM     22  C   UNL     1      46.958   2.297   6.328  0.00  0.00    +0.000 A 
ATOM     23  C   UNL     1      47.673   2.552   5.034  0.00  0.00    +0.000 C 
ATOM     24  C   UNL     1      46.208   3.313   6.937  0.00  0.00    +0.000 A 
ENDBRANCH  17  18
ENDBRANCH  16  17
ENDBRANCH  15  16
ENDBRANCH   5  15
TORSDOF 7
ENDMDL
MODEL 2
REMARK VINA RESULT:    -7.132      1.763      2.408
REMARK INTER + INTRA:         -10.742
REMARK INTER:                 -10.159
REMARK INTRA:                  -0.582
REMARK UNBOUND:                -0.692
REMARK  Name = 
REMARK  9 active torsions:
REMARK  status: ('A' for Active; 'I' for Inactive)
REMARK    1  A    between atoms: C_1  and  C_2
REMARK    2  A    between atoms: C_2  and  C_3
REMARK    3  A    between atoms: C_3  and  C_4
REMARK    4  A    between atoms: C_7  and  C_8
REMARK    5  A    between atoms: C_11  and  O_12
REMARK    6  A    between atoms: O_12  and  C_13
REMARK    7  A    between atoms: C_13  and  C_14
REMARK    8  A    between atoms: C_14  and  C_15
REMARK    9  A    between atoms: C_19  and  C_20
REMARK                            x       y       z     vdW  Elec       q    Type
REMARK                         _______ _______ _______ _____ _____    ______ ____
ROOT
ATOM      1  C   UNL     1      47.196   7.607  12.442  0.00  0.00    +0.000 A 
ATOM      2  C   UNL     1      48.196   6.926  13.137  0.00  0.00    +0.000 A 
ATOM      3  N   UNL     1      48.087   5.635  13.536  0.00  0.00    +0.000 NA
ATOM      4  C   UNL     1      46.910   5.024  13.202  0.00  0.00    +0.000 A 
ATOM      5  C   UNL     1      45.915   5.686  12.469  0.00  0.00    +0.000 A 
ATOM      6  N   UNL     1      46.034   6.991  12.098  0.00  0.00    +0.000 NA
ENDROOT
BRANCH   4   7
ATOM      7  C   UNL     1      46.767   3.590  13.632  0.00  0.00    +0.000 C 
ATOM      8  N   UNL     1      45.904   2.786  12.911  0.00  0.00    +0.000 N 
ATOM      9  O   UNL     1      47.373   3.105  14.565  0.00  0.00    +0.000 OA
ATOM     10  H   UNL     1      45.413   3.106  12.089  0.00  0.00    +0.000 HD
ATOM     11  H   UNL     1      45.838   1.812  13.185  0.00  0.00    +0.000 HD
ENDBRANCH   4   7
BRANCH   1  12
ATOM     12  C   UNL     1      47.403   9.037  12.015  0.00  0.00    +0.000 C 
BRANCH  12  14
ATOM     13  C   UNL     1      49.457  10.491  12.061  0.00  0.00    +0.000 C 
ATOM     14  C   UNL     1      48.802   9.266  11.444  0.00  0.00    +0.000 C 
ENDBRANCH  12  14
ENDBRANCH   1  12
BRANCH   5  15
ATOM     15  O   UNL     1      44.765   5.016  12.128  0.00  0.00    +0.000 OA
BRANCH  15  16
ATOM     16  C   UNL     1      44.319   5.174  10.772  0.00  0.00    +0.000 C 
BRANCH  16  17
ATOM     17  C   UNL     1      44.188   3.754  10.197  0.00  0.00    +0.000 C 
BRANCH  17  18
ATOM     18  C   UNL     1      45.175   3.378   9.117  0.00  0.00    +0.000 A 
ATOM     19  C   UNL     1      45.791   4.339   8.303  0.00  0.00    +0.000 A 
ATOM     20  C   UNL     1      46.662   3.952   7.280  0.00  0.00    +0.000 A 
ATOM     21  C   UNL     1      46.951   2.605   7.077  0.00  0.00    +0.000 A 
ATOM     22  C   UNL     1      46.381   1.632   7.904  0.00  0.00    +0.000 A 
ATOM     23  C   UNL     1      46.705   0.182   7.700  0.00  0.00    +0.000 C 
ATOM     24  C   UNL     1      45.497   2.026   8.919  0.00  0.00    +0.000 A 
ENDBRANCH  17  18
ENDBRANCH  16  17
ENDBRANCH  15  16
ENDBRANCH   5  15
TORSDOF 7
ENDMDL
MODEL 3
REMARK VINA RESULT:    -7.101      1.878      3.506
REMARK INTER + INTRA:         -10.699
REMARK INTER:                  -9.887
REMARK INTRA:                  -0.812
REMARK UNBOUND:                -0.692
REMARK  Name = 
REMARK  9 active torsions:
REMARK  status: ('A' for Active; 'I' for Inactive)
REMARK    1  A    between atoms: C_1  and  C_2
REMARK    2  A    between atoms: C_2  and  C_3
REMARK    3  A    between atoms: C_3  and  C_4
REMARK    4  A    between atoms: C_7  and  C_8
REMARK    5  A    between atoms: C_11  and  O_12
REMARK    6  A    between atoms: O_12  and  C_13
REMARK    7  A    between atoms: C_13  and  C_14
REMARK    8  A    between atoms: C_14  and  C_15
REMARK    9  A    between atoms: C_19  and  C_20
REMARK                            x       y       z     vdW  Elec       q    Type
REMARK                         _______ _______ _______ _____ _____    ______ ____
ROOT
ATOM      1  C   UNL     1      47.031   4.415  14.665  0.00  0.00    +0.000 A 
ATOM      2  C   UNL     1      47.527   5.712  14.526  0.00  0.00    +0.000 A 
ATOM      3  N   UNL     1      47.015   6.622  13.661  0.00  0.00    +0.000 NA
ATOM      4  C   UNL     1      45.955   6.181  12.919  0.00  0.00    +0.000 A 
ATOM      5  C   UNL     1      45.424   4.893  13.078  0.00  0.00    +0.000 A 
ATOM      6  N   UNL     1      45.967   3.986  13.937  0.00  0.00    +0.000 NA
ENDROOT
BRANCH   4   7
ATOM      7  C   UNL     1      45.369   7.175  11.953  0.00  0.00    +0.000 C 
ATOM      8  N   UNL     1      45.085   6.736  10.673  0.00  0.00    +0.000 N 
ATOM      9  O   UNL     1      45.127   8.329  12.241  0.00  0.00    +0.000 OA
ATOM     10  H   UNL     1      45.206   5.777  10.382  0.00  0.00    +0.000 HD
ATOM     11  H   UNL     1      44.659   7.401  10.038  0.00  0.00    +0.000 HD
ENDBRANCH   4   7
BRANCH   1  12
ATOM     12  C   UNL     1      47.643   3.469  15.665  0.00  0.00    +0.000 C 
BRANCH  12  14
ATOM     13  C   UNL     1      48.288   3.876  18.065  0.00  0.00    +0.000 C 
ATOM     14  C   UNL     1      47.136   3.731  17.084  0.00  0.00    +0.000 C 
ENDBRANCH  12  14
ENDBRANCH   1  12
BRANCH   5  15
ATOM     15  O   UNL     1      44.335   4.512  12.333  0.00  0.00    +0.000 OA
BRANCH  15  16
ATOM     16  C   UNL     1      44.427   3.233  11.687  0.00  0.00    +0.000 C 
BRANCH  16  17
ATOM     17  C   UNL     1      43.978   3.455  10.233  0.00  0.00    +0.000 C 
BRANCH  17  18
ATOM     18  C   UNL     1      45.009   3.172   9.165  0.00  0.00    +0.000 A 
ATOM     19  C   UNL     1      45.583   4.193   8.395  0.00  0.00    +0.000 A 
ATOM     20  C   UNL     1      46.497   3.889   7.381  0.00  0.00    +0.000 A 
ATOM     21  C   UNL     1      46.872   2.569   7.146  0.00  0.00    +0.000 A 
ATOM     22  C   UNL     1      46.344   1.539   7.930  0.00  0.00    +0.000 A 
ATOM     23  C   UNL     1      46.759   0.118   7.692  0.00  0.00    +0.000 C 
ATOM     24  C   UNL     1      45.417   1.848   8.936  0.00  0.00    +0.000 A 
ENDBRANCH  17  18
ENDBRANCH  16  17
ENDBRANCH  15  16
ENDBRANCH   5  15
TORSDOF 7
ENDMDL
MODEL 4
REMARK VINA RESULT:    -6.873      1.615      6.425
REMARK INTER + INTRA:         -10.378
REMARK INTER:                  -9.623
REMARK INTRA:                  -0.755
REMARK UNBOUND:                -0.692
REMARK  Name = 
REMARK  9 active torsions:
REMARK  status: ('A' for Active; 'I' for Inactive)
REMARK    1  A    between atoms: C_1  and  C_2
REMARK    2  A    between atoms: C_2  and  C_3
REMARK    3  A    between atoms: C_3  and  C_4
REMARK    4  A    between atoms: C_7  and  C_8
REMARK    5  A    between atoms: C_11  and  O_12
REMARK    6  A    between atoms: O_12  and  C_13
REMARK    7  A    between atoms: C_13  and  C_14
REMARK    8  A    between atoms: C_14  and  C_15
REMARK    9  A    between atoms: C_19  and  C_20
REMARK                            x       y       z     vdW  Elec       q    Type
REMARK                         _______ _______ _______ _____ _____    ______ ____
ROOT
ATOM      1  C   UNL     1      45.861   3.585   8.075  0.00  0.00    +0.000 A 
ATOM      2  C   UNL     1      45.473   2.299   8.455  0.00  0.00    +0.000 A 
ATOM      3  N   UNL     1      44.783   2.028   9.590  0.00  0.00    +0.000 NA
ATOM      4  C   UNL     1      44.479   3.119  10.356  0.00  0.00    +0.000 A 
ATOM      5  C   UNL     1      44.829   4.419   9.964  0.00  0.00    +0.000 A 
ATOM      6  N   UNL     1      45.542   4.668   8.831  0.00  0.00    +0.000 NA
ENDROOT
BRANCH   4   7
ATOM      7  C   UNL     1      43.711   2.844  11.620  0.00  0.00    +0.000 C 
ATOM      8  N   UNL     1      44.103   3.507  12.767  0.00  0.00    +0.000 N 
ATOM      9  O   UNL     1      42.768   2.082  11.680  0.00  0.00    +0.000 OA
ATOM     10  H   UNL     1      44.840   4.197  12.778  0.00  0.00    +0.000 HD
ATOM     11  H   UNL     1      43.560   3.342  13.608  0.00  0.00    +0.000 HD
ENDBRANCH   4   7
BRANCH   1  12
ATOM     12  C   UNL     1      46.608   3.805   6.786  0.00  0.00    +0.000 C 
BRANCH  12  14
ATOM     13  C   UNL     1      47.325   2.139   5.040  0.00  0.00    +0.000 C 
ATOM     14  C   UNL     1      47.541   2.638   6.460  0.00  0.00    +0.000 C 
ENDBRANCH  12  14
ENDBRANCH   1  12
BRANCH   5  15
ATOM     15  O   UNL     1      44.467   5.485  10.752  0.00  0.00    +0.000 OA
BRANCH  15  16
ATOM     16  C   UNL     1      45.494   6.455  11.013  0.00  0.00    +0.000 C 
BRANCH  16  17
ATOM     17  C   UNL     1      46.343   5.880  12.159  0.00  0.00    +0.000 C 
BRANCH  17  18
ATOM     18  C   UNL     1      47.609   6.633  12.493  0.00  0.00    +0.000 A 
ATOM     19  C   UNL     1      48.275   7.428  11.549  0.00  0.00    +0.000 A 
ATOM     20  C   UNL     1      49.472   8.071  11.879  0.00  0.00    +0.000 A 
ATOM     21  C   UNL     1      50.002   7.954  13.161  0.00  0.00    +0.000 A 
ATOM     22  C   UNL     1      49.333   7.201  14.131  0.00  0.00    +0.000 A 
ATOM     23  C   UNL     1      49.890   7.087  15.519  0.00  0.00    +0.000 C 
ATOM     24  C   UNL     1      48.139   6.546  13.790  0.00  0.00    +0.000 A 
ENDBRANCH  17  18
ENDBRANCH  16  17
ENDBRANCH  15  16
ENDBRANCH   5  15
TORSDOF 7
ENDMDL
MODEL 5
REMARK VINA RESULT:    -6.832      2.424      6.747
REMARK INTER + INTRA:         -10.320
REMARK INTER:                  -9.571
REMARK INTRA:                  -0.750
REMARK UNBOUND:                -0.692
REMARK  Name = 
REMARK  9 active torsions:
REMARK  status: ('A' for Active; 'I' for Inactive)
REMARK    1  A    between atoms: C_1  and  C_2
REMARK    2  A    between atoms: C_2  and  C_3
REMARK    3  A    between atoms: C_3  and  C_4
REMARK    4  A    between atoms: C_7  and  C_8
REMARK    5  A    between atoms: C_11  and  O_12
REMARK    6  A    between atoms: O_12  and  C_13
REMARK    7  A    between atoms: C_13  and  C_14
REMARK    8  A    between atoms: C_14  and  C_15
REMARK    9  A    between atoms: C_19  and  C_20
REMARK                            x       y       z     vdW  Elec       q    Type
REMARK                         _______ _______ _______ _____ _____    ______ ____
ROOT
ATOM      1  C   UNL     1      45.751   3.628   8.104  0.00  0.00    +0.000 A 
ATOM      2  C   UNL     1      45.077   2.487   8.542  0.00  0.00    +0.000 A 
ATOM      3  N   UNL     1      44.357   2.434   9.690  0.00  0.00    +0.000 NA
ATOM      4  C   UNL     1      44.328   3.598  10.407  0.00  0.00    +0.000 A 
ATOM      5  C   UNL     1      44.968   4.762   9.957  0.00  0.00    +0.000 A 
ATOM      6  N   UNL     1      45.705   4.787   8.812  0.00  0.00    +0.000 NA
ENDROOT
BRANCH   4   7
ATOM      7  C   UNL     1      43.533   3.565  11.683  0.00  0.00    +0.000 C 
ATOM      8  N   UNL     1      42.545   4.518  11.850  0.00  0.00    +0.000 N 
ATOM      9  O   UNL     1      43.707   2.746  12.562  0.00  0.00    +0.000 OA
ATOM     10  H   UNL     1      42.307   5.193  11.138  0.00  0.00    +0.000 HD
ATOM     11  H   UNL     1      41.991   4.470  12.698  0.00  0.00    +0.000 HD
ENDBRANCH   4   7
BRANCH   1  12
ATOM     12  C   UNL     1      46.513   3.611   6.805  0.00  0.00    +0.000 C 
BRANCH  12  14
ATOM     13  C   UNL     1      47.498   1.775   5.392  0.00  0.00    +0.000 C 
ATOM     14  C   UNL     1      47.520   2.462   6.748  0.00  0.00    +0.000 C 
ENDBRANCH  12  14
ENDBRANCH   1  12
BRANCH   5  15
ATOM     15  O   UNL     1      44.878   5.915  10.698  0.00  0.00    +0.000 OA
BRANCH  15  16
ATOM     16  C   UNL     1      45.979   6.190  11.577  0.00  0.00    +0.000 C 
BRANCH  16  17
ATOM     17  C   UNL     1      45.490   7.277  12.548  0.00  0.00    +0.000 C 
BRANCH  17  18
ATOM     18  C   UNL     1      45.916   8.692  12.235  0.00  0.00    +0.000 A 
ATOM     19  C   UNL     1      44.988   9.730  12.068  0.00  0.00    +0.000 A 
ATOM     20  C   UNL     1      45.415  11.018  11.730  0.00  0.00    +0.000 A 
ATOM     21  C   UNL     1      46.772  11.292  11.585  0.00  0.00    +0.000 A 
ATOM     22  C   UNL     1      47.718  10.283  11.789  0.00  0.00    +0.000 A 
ATOM     23  C   UNL     1      49.181  10.579  11.652  0.00  0.00    +0.000 C 
ATOM     24  C   UNL     1      47.282   8.989  12.114  0.00  0.00    +0.000 A 
ENDBRANCH  17  18
ENDBRANCH  16  17
ENDBRANCH  15  16
ENDBRANCH   5  15
TORSDOF 7
ENDMDL
MODEL 6
REMARK VINA RESULT:    -6.584      1.652      2.595
REMARK INTER + INTRA:          -9.970
REMARK INTER:                  -9.137
REMARK INTRA:                  -0.833
REMARK UNBOUND:                -0.692
REMARK  Name = 
REMARK  9 active torsions:
REMARK  status: ('A' for Active; 'I' for Inactive)
REMARK    1  A    between atoms: C_1  and  C_2
REMARK    2  A    between atoms: C_2  and  C_3
REMARK    3  A    between atoms: C_3  and  C_4
REMARK    4  A    between atoms: C_7  and  C_8
REMARK    5  A    between atoms: C_11  and  O_12
REMARK    6  A    between atoms: O_12  and  C_13
REMARK    7  A    between atoms: C_13  and  C_14
REMARK    8  A    between atoms: C_14  and  C_15
REMARK    9  A    between atoms: C_19  and  C_20
REMARK                            x       y       z     vdW  Elec       q    Type
REMARK                         _______ _______ _______ _____ _____    ______ ____
ROOT
ATOM      1  C   UNL     1      48.387   7.707  12.599  0.00  0.00    +0.000 A 
ATOM      2  C   UNL     1      48.945   7.305  13.813  0.00  0.00    +0.000 A 
ATOM      3  N   UNL     1      48.534   6.212  14.503  0.00  0.00    +0.000 NA
ATOM      4  C   UNL     1      47.518   5.509  13.918  0.00  0.00    +0.000 A 
ATOM      5  C   UNL     1      46.976   5.881  12.679  0.00  0.00    +0.000 A 
ATOM      6  N   UNL     1      47.388   6.996  12.014  0.00  0.00    +0.000 NA
ENDROOT
BRANCH   4   7
ATOM      7  C   UNL     1      47.047   4.290  14.664  0.00  0.00    +0.000 C 
ATOM      8  N   UNL     1      46.994   3.094  13.972  0.00  0.00    +0.000 N 
ATOM      9  O   UNL     1      46.722   4.302  15.833  0.00  0.00    +0.000 OA
ATOM     10  H   UNL     1      47.303   2.999  13.015  0.00  0.00    +0.000 HD
ATOM     11  H   UNL     1      46.707   2.270  14.489  0.00  0.00    +0.000 HD
ENDBRANCH   4   7
BRANCH   1  12
ATOM     12  C   UNL     1      48.914   8.923  11.884  0.00  0.00    +0.000 C 
BRANCH  12  14
ATOM     13  C   UNL     1      50.960   7.794  10.946  0.00  0.00    +0.000 C 
ATOM     14  C   UNL     1      50.441   8.929  11.816  0.00  0.00    +0.000 C 
ENDBRANCH  12  14
ENDBRANCH   1  12
BRANCH   5  15
ATOM     15  O   UNL     1      45.980   5.119  12.118  0.00  0.00    +0.000 OA
BRANCH  15  16
ATOM     16  C   UNL     1      44.652   5.659  12.194  0.00  0.00    +0.000 C 
BRANCH  16  17
ATOM     17  C   UNL     1      44.069   5.559  10.774  0.00  0.00    +0.000 C 
BRANCH  17  18
ATOM     18  C   UNL     1      44.512   4.372   9.953  0.00  0.00    +0.000 A 
ATOM     19  C   UNL     1      44.098   3.065  10.249  0.00  0.00    +0.000 A 
ATOM     20  C   UNL     1      44.568   1.984   9.497  0.00  0.00    +0.000 A 
ATOM     21  C   UNL     1      45.429   2.196   8.424  0.00  0.00    +0.000 A 
ATOM     22  C   UNL     1      45.821   3.494   8.085  0.00  0.00    +0.000 A 
ATOM     23  C   UNL     1      46.734   3.728   6.918  0.00  0.00    +0.000 C 
ATOM     24  C   UNL     1      45.358   4.574   8.851  0.00  0.00    +0.000 A 
ENDBRANCH  17  18
ENDBRANCH  16  17
ENDBRANCH  15  16
ENDBRANCH   5  15
TORSDOF 7
ENDMDL
MODEL 7
REMARK VINA RESULT:    -6.547      1.812      6.365
REMARK INTER + INTRA:          -9.918
REMARK INTER:                  -9.379
REMARK INTRA:                  -0.539
REMARK UNBOUND:                -0.692
REMARK  Name = 
REMARK  9 active torsions:
REMARK  status: ('A' for Active; 'I' for Inactive)
REMARK    1  A    between atoms: C_1  and  C_2
REMARK    2  A    between atoms: C_2  and  C_3
REMARK    3  A    between atoms: C_3  and  C_4
REMARK    4  A    between atoms: C_7  and  C_8
REMARK    5  A    between atoms: C_11  and  O_12
REMARK    6  A    between atoms: O_12  and  C_13
REMARK    7  A    between atoms: C_13  and  C_14
REMARK    8  A    between atoms: C_14  and  C_15
REMARK    9  A    between atoms: C_19  and  C_20
REMARK                            x       y       z     vdW  Elec       q    Type
REMARK                         _______ _______ _______ _____ _____    ______ ____
ROOT
ATOM      1  C   UNL     1      45.165   2.815   9.269  0.00  0.00    +0.000 A 
ATOM      2  C   UNL     1      44.384   3.783   8.638  0.00  0.00    +0.000 A 
ATOM      3  N   UNL     1      43.666   4.721   9.306  0.00  0.00    +0.000 NA
ATOM      4  C   UNL     1      43.762   4.659  10.668  0.00  0.00    +0.000 A 
ATOM      5  C   UNL     1      44.575   3.715  11.312  0.00  0.00    +0.000 A 
ATOM      6  N   UNL     1      45.270   2.767  10.623  0.00  0.00    +0.000 NA
ENDROOT
BRANCH   4   7
ATOM      7  C   UNL     1      42.976   5.690  11.431  0.00  0.00    +0.000 C 
ATOM      8  N   UNL     1      43.282   7.021  11.214  0.00  0.00    +0.000 N 
ATOM      9  O   UNL     1      42.089   5.417  12.213  0.00  0.00    +0.000 OA
ATOM     10  H   UNL     1      43.967   7.323  10.536  0.00  0.00    +0.000 HD
ATOM     11  H   UNL     1      42.727   7.712  11.706  0.00  0.00    +0.000 HD
ENDBRANCH   4   7
BRANCH   1  12
ATOM     12  C   UNL     1      45.949   1.820   8.454  0.00  0.00    +0.000 C 
BRANCH  12  14
ATOM     13  C   UNL     1      47.834   1.587   6.801  0.00  0.00    +0.000 C 
ATOM     14  C   UNL     1      46.736   2.496   7.331  0.00  0.00    +0.000 C 
ENDBRANCH  12  14
ENDBRANCH   1  12
BRANCH   5  15
ATOM     15  O   UNL     1      44.663   3.718  12.683  0.00  0.00    +0.000 OA
BRANCH  15  16
ATOM     16  C   UNL     1      45.921   4.139  13.234  0.00  0.00    +0.000 C 
BRANCH  16  17
ATOM     17  C   UNL     1      45.843   5.670  13.358  0.00  0.00    +0.000 C 
BRANCH  17  18
ATOM     18  C   UNL     1      47.122   6.428  13.092  0.00  0.00    +0.000 A 
ATOM     19  C   UNL     1      47.406   6.992  11.840  0.00  0.00    +0.000 A 
ATOM     20  C   UNL     1      48.623   7.644  11.615  0.00  0.00    +0.000 A 
ATOM     21  C   UNL     1      49.554   7.767  12.642  0.00  0.00    +0.000 A 
ATOM     22  C   UNL     1      49.274   7.249  13.910  0.00  0.00    +0.000 A 
ATOM     23  C   UNL     1      50.266   7.397  15.024  0.00  0.00    +0.000 C 
ATOM     24  C   UNL     1      48.057   6.584  14.127  0.00  0.00    +0.000 A 
ENDBRANCH  17  18
ENDBRANCH  16  17
ENDBRANCH  15  16
ENDBRANCH   5  15
TORSDOF 7
ENDMDL
MODEL 8
REMARK VINA RESULT:    -6.462      1.816      6.264
REMARK INTER + INTRA:          -9.799
REMARK INTER:                  -8.984
REMARK INTRA:                  -0.814
REMARK UNBOUND:                -0.692
REMARK  Name = 
REMARK  9 active torsions:
REMARK  status: ('A' for Active; 'I' for Inactive)
REMARK    1  A    between atoms: C_1  and  C_2
REMARK    2  A    between atoms: C_2  and  C_3
REMARK    3  A    between atoms: C_3  and  C_4
REMARK    4  A    between atoms: C_7  and  C_8
REMARK    5  A    between atoms: C_11  and  O_12
REMARK    6  A    between atoms: O_12  and  C_13
REMARK    7  A    between atoms: C_13  and  C_14
REMARK    8  A    between atoms: C_14  and  C_15
REMARK    9  A    between atoms: C_19  and  C_20
REMARK                            x       y       z     vdW  Elec       q    Type
REMARK                         _______ _______ _______ _____ _____    ______ ____
ROOT
ATOM      1  C   UNL     1      45.451   4.403   9.065  0.00  0.00    +0.000 A 
ATOM      2  C   UNL     1      44.470   3.450   9.341  0.00  0.00    +0.000 A 
ATOM      3  N   UNL     1      43.790   3.391  10.513  0.00  0.00    +0.000 NA
ATOM      4  C   UNL     1      44.130   4.350  11.427  0.00  0.00    +0.000 A 
ATOM      5  C   UNL     1      45.086   5.336  11.144  0.00  0.00    +0.000 A 
ATOM      6  N   UNL     1      45.774   5.364   9.969  0.00  0.00    +0.000 NA
ENDROOT
BRANCH   4   7
ATOM      7  C   UNL     1      43.387   4.306  12.734  0.00  0.00    +0.000 C 
ATOM      8  N   UNL     1      42.677   5.432  13.107  0.00  0.00    +0.000 N 
ATOM      9  O   UNL     1      43.373   3.339  13.467  0.00  0.00    +0.000 OA
ATOM     10  H   UNL     1      42.597   6.250  12.521  0.00  0.00    +0.000 HD
ATOM     11  H   UNL     1      42.151   5.384  13.973  0.00  0.00    +0.000 HD
ENDBRANCH   4   7
BRANCH   1  12
ATOM     12  C   UNL     1      46.147   4.413   7.729  0.00  0.00    +0.000 C 
BRANCH  12  14
ATOM     13  C   UNL     1      47.218   2.661   6.273  0.00  0.00    +0.000 C 
ATOM     14  C   UNL     1      45.940   3.104   6.966  0.00  0.00    +0.000 C 
ENDBRANCH  12  14
ENDBRANCH   1  12
BRANCH   5  15
ATOM     15  O   UNL     1      45.365   6.299  12.084  0.00  0.00    +0.000 OA
BRANCH  15  16
ATOM     16  C   UNL     1      45.235   7.662  11.651  0.00  0.00    +0.000 C 
BRANCH  16  17
ATOM     17  C   UNL     1      46.143   8.492  12.574  0.00  0.00    +0.000 C 
BRANCH  17  18
ATOM     18  C   UNL     1      47.583   8.633  12.143  0.00  0.00    +0.000 A 
ATOM     19  C   UNL     1      48.433   7.526  12.008  0.00  0.00    +0.000 A 
ATOM     20  C   UNL     1      49.775   7.699  11.655  0.00  0.00    +0.000 A 
ATOM     21  C   UNL     1      50.276   8.973  11.403  0.00  0.00    +0.000 A 
ATOM     22  C   UNL     1      49.437  10.088  11.491  0.00  0.00    +0.000 A 
ATOM     23  C   UNL     1      49.968  11.460  11.202  0.00  0.00    +0.000 C 
ATOM     24  C   UNL     1      48.095   9.909  11.859  0.00  0.00    +0.000 A 
ENDBRANCH  17  18
ENDBRANCH  16  17
ENDBRANCH  15  16
ENDBRANCH   5  15
TORSDOF 7
ENDMDL
MODEL 9
REMARK VINA RESULT:    -6.372      3.966      7.058
REMARK INTER + INTRA:          -9.672
REMARK INTER:                  -8.909
REMARK INTRA:                  -0.762
REMARK UNBOUND:                -0.692
REMARK  Name = 
REMARK  9 active torsions:
REMARK  status: ('A' for Active; 'I' for Inactive)
REMARK    1  A    between atoms: C_1  and  C_2
REMARK    2  A    between atoms: C_2  and  C_3
REMARK    3  A    between atoms: C_3  and  C_4
REMARK    4  A    between atoms: C_7  and  C_8
REMARK    5  A    between atoms: C_11  and  O_12
REMARK    6  A    between atoms: O_12  and  C_13
REMARK    7  A    between atoms: C_13  and  C_14
REMARK    8  A    between atoms: C_14  and  C_15
REMARK    9  A    between atoms: C_19  and  C_20
REMARK                            x       y       z     vdW  Elec       q    Type
REMARK                         _______ _______ _______ _____ _____    ______ ____
ROOT
ATOM      1  C   UNL     1      47.821   6.648  12.906  0.00  0.00    +0.000 A 
ATOM      2  C   UNL     1      46.790   6.788  11.976  0.00  0.00    +0.000 A 
ATOM      3  N   UNL     1      45.683   6.006  11.960  0.00  0.00    +0.000 NA
ATOM      4  C   UNL     1      45.635   5.052  12.939  0.00  0.00    +0.000 A 
ATOM      5  C   UNL     1      46.646   4.929  13.902  0.00  0.00    +0.000 A 
ATOM      6  N   UNL     1      47.762   5.710  13.887  0.00  0.00    +0.000 NA
ENDROOT
BRANCH   4   7
ATOM      7  C   UNL     1      44.414   4.174  12.943  0.00  0.00    +0.000 C 
ATOM      8  N   UNL     1      44.587   2.832  12.657  0.00  0.00    +0.000 N 
ATOM      9  O   UNL     1      43.297   4.577  13.191  0.00  0.00    +0.000 OA
ATOM     10  H   UNL     1      45.493   2.417  12.498  0.00  0.00    +0.000 HD
ATOM     11  H   UNL     1      43.765   2.239  12.694  0.00  0.00    +0.000 HD
ENDBRANCH   4   7
BRANCH   1  12
ATOM     12  C   UNL     1      49.010   7.572  12.869  0.00  0.00    +0.000 C 
BRANCH  12  14
ATOM     13  C   UNL     1      50.991   7.954  11.361  0.00  0.00    +0.000 C 
ATOM     14  C   UNL     1      49.476   7.847  11.439  0.00  0.00    +0.000 C 
ENDBRANCH  12  14
ENDBRANCH   1  12
BRANCH   5  15
ATOM     15  O   UNL     1      46.532   3.977  14.886  0.00  0.00    +0.000 OA
BRANCH  15  16
ATOM     16  C   UNL     1      47.242   4.241  16.107  0.00  0.00    +0.000 C 
BRANCH  16  17
ATOM     17  C   UNL     1      47.976   2.938  16.465  0.00  0.00    +0.000 C 
BRANCH  17  18
ATOM     18  C   UNL     1      49.376   3.090  17.013  0.00  0.00    +0.000 A 
ATOM     19  C   UNL     1      49.863   4.319  17.482  0.00  0.00    +0.000 A 
ATOM     20  C   UNL     1      51.180   4.434  17.936  0.00  0.00    +0.000 A 
ATOM     21  C   UNL     1      52.015   3.321  17.958  0.00  0.00    +0.000 A 
ATOM     22  C   UNL     1      51.538   2.076  17.534  0.00  0.00    +0.000 A 
ATOM     23  C   UNL     1      52.429   0.871  17.573  0.00  0.00    +0.000 C 
ATOM     24  C   UNL     1      50.219   1.970  17.066  0.00  0.00    +0.000 A 
ENDBRANCH  17  18
ENDBRANCH  16  17
ENDBRANCH  15  16
ENDBRANCH   5  15
TORSDOF 7
ENDMDL
