MODEL 1
REMARK VINA RESULT:    -7.783      0.000      0.000
REMARK INTER + INTRA:         -10.847
REMARK INTER:                 -10.058
REMARK INTRA:                  -0.789
REMARK UNBOUND:                -0.789
REMARK  Name = 
REMARK  5 active torsions:
REMARK  status: ('A' for Active; 'I' for Inactive)
REMARK    1  A    between atoms: C_2  and  C_4
REMARK    2  A    between atoms: C_8  and  C_9
REMARK    3  A    between atoms: C_9  and  C_10
REMARK    4  A    between atoms: C_10  and  C_11
REMARK    5  A    between atoms: C_15  and  C_16
REMARK                            x       y       z     vdW  Elec       q    Type
REMARK                         _______ _______ _______ _____ _____    ______ ____
ROOT
ATOM      1  C   UNL     1      44.601   3.111  11.898  0.00  0.00    +0.000 C 
ENDROOT
BRANCH   1   2
ATOM      2  C   UNL     1      45.567   4.121  12.471  0.00  0.00    +0.000 A 
ATOM      3  C   UNL     1      46.571   3.725  13.343  0.00  0.00    +0.000 A 
ATOM      4  N   UNL     1      47.461   4.572  13.906  0.00  0.00    +0.000 NA
ATOM      5  C   UNL     1      47.342   5.887  13.591  0.00  0.00    +0.000 A 
ATOM      6  C   UNL     1      46.374   6.423  12.743  0.00  0.00    +0.000 A 
ATOM      7  C   UNL     1      45.476   5.494  12.197  0.00  0.00    +0.000 A 
BRANCH   6   8
ATOM      8  C   UNL     1      46.291   7.863  12.409  0.00  0.00    +0.000 A 
ATOM      9  C   UNL     1      47.427   8.681  12.389  0.00  0.00    +0.000 A 
ATOM     10  C   UNL     1      47.298  10.018  12.033  0.00  0.00    +0.000 A 
ATOM     11  N   UNL     1      46.133  10.596  11.690  0.00  0.00    +0.000 NA
ATOM     12  C   UNL     1      45.043   9.807  11.712  0.00  0.00    +0.000 A 
ATOM     13  C   UNL     1      45.070   8.465  12.063  0.00  0.00    +0.000 A 
ENDBRANCH   6   8
ENDBRANCH   1   2
BRANCH   1  14
ATOM     14  C   UNL     1      44.002   3.523  10.545  0.00  0.00    +0.000 C 
BRANCH  14  19
ATOM     15  C   UNL     1      46.370   2.157   7.908  0.00  0.00    +0.000 A 
ATOM     16  C   UNL     1      46.734   3.355   7.308  0.00  0.00    +0.000 A 
ATOM     17  N   UNL     1      46.258   4.566   7.692  0.00  0.00    +0.000 NA
ATOM     18  C   UNL     1      45.392   4.581   8.729  0.00  0.00    +0.000 A 
ATOM     19  C   UNL     1      44.979   3.440   9.410  0.00  0.00    +0.000 A 
ATOM     20  C   UNL     1      45.491   2.206   8.990  0.00  0.00    +0.000 A 
BRANCH  15  22
ATOM     21  N   UNL     1      47.785   0.982   6.321  0.00  0.00    +0.000 N 
ATOM     22  C   UNL     1      46.929   0.893   7.385  0.00  0.00    +0.000 C 
ATOM     23  O   UNL     1      46.673  -0.184   7.903  0.00  0.00    +0.000 OA
ATOM     24  H   UNL     1      48.250   0.123   6.053  0.00  0.00    +0.000 HD
ATOM     25  H   UNL     1      48.230   1.850   6.056  0.00  0.00    +0.000 HD
ENDBRANCH  15  22
ENDBRANCH  14  19
ENDBRANCH   1  14
TORSDOF 5
ENDMDL
MODEL 2
REMARK VINA RESULT:    -7.745      2.408      6.892
REMARK INTER + INTRA:         -10.798
REMARK INTER:                 -10.084
REMARK INTRA:                  -0.713
REMARK UNBOUND:                -0.789
REMARK  Name = 
REMARK  5 active torsions:
REMARK  status: ('A' for Active; 'I' for Inactive)
REMARK    1  A    between atoms: C_2  and  C_4
REMARK    2  A    between atoms: C_8  and  C_9
REMARK    3  A    between atoms: C_9  and  C_10
REMARK    4  A    between atoms: C_10  and  C_11
REMARK    5  A    between atoms: C_15  and  C_16
REMARK                            x       y       z     vdW  Elec       q    Type
REMARK                         _______ _______ _______ _____ _____    ______ ____
ROOT
ATOM      1  C   UNL     1      44.262   6.412  11.517  0.00  0.00    +0.000 C 
ENDROOT
BRANCH   1   2
ATOM      2  C   UNL     1      44.192   4.993  11.004  0.00  0.00    +0.000 A 
ATOM      3  C   UNL     1      43.357   4.063  11.608  0.00  0.00    +0.000 A 
ATOM      4  N   UNL     1      43.253   2.774  11.214  0.00  0.00    +0.000 NA
ATOM      5  C   UNL     1      44.027   2.386  10.169  0.00  0.00    +0.000 A 
ATOM      6  C   UNL     1      44.917   3.210   9.483  0.00  0.00    +0.000 A 
ATOM      7  C   UNL     1      44.985   4.532   9.943  0.00  0.00    +0.000 A 
BRANCH   6   8
ATOM      8  C   UNL     1      45.730   2.751   8.333  0.00  0.00    +0.000 A 
ATOM      9  C   UNL     1      46.079   3.615   7.288  0.00  0.00    +0.000 A 
ATOM     10  C   UNL     1      46.875   3.143   6.251  0.00  0.00    +0.000 A 
ATOM     11  N   UNL     1      47.353   1.887   6.182  0.00  0.00    +0.000 NA
ATOM     12  C   UNL     1      47.014   1.060   7.188  0.00  0.00    +0.000 A 
ATOM     13  C   UNL     1      46.217   1.436   8.259  0.00  0.00    +0.000 A 
ENDBRANCH   6   8
ENDBRANCH   1   2
BRANCH   1  14
ATOM     14  C   UNL     1      45.643   7.065  11.352  0.00  0.00    +0.000 C 
BRANCH  14  19
ATOM     15  C   UNL     1      47.339   5.453  14.344  0.00  0.00    +0.000 A 
ATOM     16  C   UNL     1      48.283   6.435  14.608  0.00  0.00    +0.000 A 
ATOM     17  N   UNL     1      48.413   7.572  13.879  0.00  0.00    +0.000 NA
ATOM     18  C   UNL     1      47.552   7.739  12.852  0.00  0.00    +0.000 A 
ATOM     19  C   UNL     1      46.557   6.826  12.516  0.00  0.00    +0.000 A 
ATOM     20  C   UNL     1      46.449   5.664  13.291  0.00  0.00    +0.000 A 
BRANCH  15  22
ATOM     21  N   UNL     1      47.031   4.410  16.516  0.00  0.00    +0.000 N 
ATOM     22  C   UNL     1      47.309   4.240  15.187  0.00  0.00    +0.000 C 
ATOM     23  O   UNL     1      47.486   3.126  14.715  0.00  0.00    +0.000 OA
ATOM     24  H   UNL     1      46.897   3.562  17.053  0.00  0.00    +0.000 HD
ATOM     25  H   UNL     1      46.611   5.256  16.877  0.00  0.00    +0.000 HD
ENDBRANCH  15  22
ENDBRANCH  14  19
ENDBRANCH   1  14
TORSDOF 5
ENDMDL
MODEL 3
REMARK VINA RESULT:    -7.599      1.670      2.292
REMARK INTER + INTRA:         -10.609
REMARK INTER:                  -9.856
REMARK INTRA:                  -0.753
REMARK UNBOUND:                -0.789
REMARK  Name = 
REMARK  5 active torsions:
REMARK  status: ('A' for Active; 'I' for Inactive)
REMARK    1  A    between atoms: C_2  and  C_4
REMARK    2  A    between atoms: C_8  and  C_9
REMARK    3  A    between atoms: C_9  and  C_10
REMARK    4  A    between atoms: C_10  and  C_11
REMARK    5  A    between atoms: C_15  and  C_16
REMARK                            x       y       z     vdW  Elec       q    Type
REMARK                         _______ _______ _______ _____ _____    ______ ____
ROOT
ATOM      1  C   UNL     1      43.896   4.307  10.299  0.00  0.00    +0.000 C 
ENDROOT
BRANCH   1   2
ATOM      2  C   UNL     1      44.882   4.759  11.351  0.00  0.00    +0.000 A 
ATOM      3  C   UNL     1      45.062   4.025  12.514  0.00  0.00    +0.000 A 
ATOM      4  N   UNL     1      45.913   4.374  13.503  0.00  0.00    +0.000 NA
ATOM      5  C   UNL     1      46.619   5.521  13.332  0.00  0.00    +0.000 A 
ATOM      6  C   UNL     1      46.525   6.359  12.222  0.00  0.00    +0.000 A 
ATOM      7  C   UNL     1      45.620   5.946  11.235  0.00  0.00    +0.000 A 
BRANCH   6   8
ATOM      8  C   UNL     1      47.328   7.593  12.065  0.00  0.00    +0.000 A 
ATOM      9  C   UNL     1      46.779   8.862  12.289  0.00  0.00    +0.000 A 
ATOM     10  C   UNL     1      47.587   9.986  12.163  0.00  0.00    +0.000 A 
ATOM     11  N   UNL     1      48.892   9.941  11.841  0.00  0.00    +0.000 NA
ATOM     12  C   UNL     1      49.416   8.720  11.625  0.00  0.00    +0.000 A 
ATOM     13  C   UNL     1      48.687   7.543  11.717  0.00  0.00    +0.000 A 
ENDBRANCH   6   8
ENDBRANCH   1   2
BRANCH   1  14
ATOM     14  C   UNL     1      44.419   4.437   8.860  0.00  0.00    +0.000 C 
BRANCH  14  19
ATOM     15  C   UNL     1      46.867   2.219   6.986  0.00  0.00    +0.000 A 
ATOM     16  C   UNL     1      46.598   1.017   7.625  0.00  0.00    +0.000 A 
ATOM     17  N   UNL     1      45.690   0.881   8.624  0.00  0.00    +0.000 NA
ATOM     18  C   UNL     1      45.013   1.991   8.988  0.00  0.00    +0.000 A 
ATOM     19  C   UNL     1      45.193   3.238   8.398  0.00  0.00    +0.000 A 
ATOM     20  C   UNL     1      46.137   3.344   7.369  0.00  0.00    +0.000 A 
BRANCH  15  22
ATOM     21  N   UNL     1      49.105   2.818   6.256  0.00  0.00    +0.000 N 
ATOM     22  C   UNL     1      47.901   2.256   5.930  0.00  0.00    +0.000 C 
ATOM     23  O   UNL     1      47.707   1.770   4.825  0.00  0.00    +0.000 OA
ATOM     24  H   UNL     1      49.838   2.728   5.562  0.00  0.00    +0.000 HD
ATOM     25  H   UNL     1      49.392   2.968   7.213  0.00  0.00    +0.000 HD
ENDBRANCH  15  22
ENDBRANCH  14  19
ENDBRANCH   1  14
TORSDOF 5
ENDMDL
MODEL 4
REMARK VINA RESULT:    -7.084      2.823      7.308
REMARK INTER + INTRA:          -9.943
REMARK INTER:                  -9.205
REMARK INTRA:                  -0.738
REMARK UNBOUND:                -0.789
REMARK  Name = 
REMARK  5 active torsions:
REMARK  status: ('A' for Active; 'I' for Inactive)
REMARK    1  A    between atoms: C_2  and  C_4
REMARK    2  A    between atoms: C_8  and  C_9
REMARK    3  A    between atoms: C_9  and  C_10
REMARK    4  A    between atoms: C_10  and  C_11
REMARK    5  A    between atoms: C_15  and  C_16
REMARK                            x       y       z     vdW  Elec       q    Type
REMARK                         _______ _______ _______ _____ _____    ______ ____
ROOT
ATOM      1  C   UNL     1      44.210   6.442  11.178  0.00  0.00    +0.000 C 
ENDROOT
BRANCH   1   2
ATOM      2  C   UNL     1      44.203   4.992  10.757  0.00  0.00    +0.000 A 
ATOM      3  C   UNL     1      43.437   4.059  11.441  0.00  0.00    +0.000 A 
ATOM      4  N   UNL     1      43.393   2.745  11.131  0.00  0.00    +0.000 NA
ATOM      5  C   UNL     1      44.158   2.332  10.089  0.00  0.00    +0.000 A 
ATOM      6  C   UNL     1      44.984   3.157   9.327  0.00  0.00    +0.000 A 
ATOM      7  C   UNL     1      44.992   4.508   9.703  0.00  0.00    +0.000 A 
BRANCH   6   8
ATOM      8  C   UNL     1      45.790   2.670   8.185  0.00  0.00    +0.000 A 
ATOM      9  C   UNL     1      46.166   3.517   7.134  0.00  0.00    +0.000 A 
ATOM     10  C   UNL     1      46.954   3.018   6.104  0.00  0.00    +0.000 A 
ATOM     11  N   UNL     1      47.400   1.750   6.046  0.00  0.00    +0.000 NA
ATOM     12  C   UNL     1      47.036   0.939   7.057  0.00  0.00    +0.000 A 
ATOM     13  C   UNL     1      46.244   1.343   8.121  0.00  0.00    +0.000 A 
ENDBRANCH   6   8
ENDBRANCH   1   2
BRANCH   1  14
ATOM     14  C   UNL     1      44.635   6.663  12.638  0.00  0.00    +0.000 C 
BRANCH  14  19
ATOM     15  C   UNL     1      48.141   8.088  12.958  0.00  0.00    +0.000 A 
ATOM     16  C   UNL     1      48.831   6.905  13.185  0.00  0.00    +0.000 A 
ATOM     17  N   UNL     1      48.238   5.686  13.252  0.00  0.00    +0.000 NA
ATOM     18  C   UNL     1      46.901   5.648  13.069  0.00  0.00    +0.000 A 
ATOM     19  C   UNL     1      46.120   6.772  12.816  0.00  0.00    +0.000 A 
ATOM     20  C   UNL     1      46.764   8.014  12.751  0.00  0.00    +0.000 A 
BRANCH  15  22
ATOM     21  N   UNL     1      48.309  10.436  13.556  0.00  0.00    +0.000 N 
ATOM     22  C   UNL     1      48.888   9.362  12.936  0.00  0.00    +0.000 C 
ATOM     23  O   UNL     1      49.995   9.449  12.423  0.00  0.00    +0.000 OA
ATOM     24  H   UNL     1      48.884  11.266  13.634  0.00  0.00    +0.000 HD
ATOM     25  H   UNL     1      47.551  10.336  14.216  0.00  0.00    +0.000 HD
ENDBRANCH  15  22
ENDBRANCH  14  19
ENDBRANCH   1  14
TORSDOF 5
ENDMDL
MODEL 5
REMARK VINA RESULT:    -6.870      3.089      7.394
REMARK INTER + INTRA:          -9.667
REMARK INTER:                  -8.925
REMARK INTRA:                  -0.742
REMARK UNBOUND:                -0.789
REMARK  Name = 
REMARK  5 active torsions:
REMARK  status: ('A' for Active; 'I' for Inactive)
REMARK    1  A    between atoms: C_2  and  C_4
REMARK    2  A    between atoms: C_8  and  C_9
REMARK    3  A    between atoms: C_9  and  C_10
REMARK    4  A    between atoms: C_10  and  C_11
REMARK    5  A    between atoms: C_15  and  C_16
REMARK                            x       y       z     vdW  Elec       q    Type
REMARK                         _______ _______ _______ _____ _____    ______ ____
ROOT
ATOM      1  C   UNL     1      45.709   6.665  13.071  0.00  0.00    +0.000 C 
ENDROOT
BRANCH   1   2
ATOM      2  C   UNL     1      44.928   5.711  12.199  0.00  0.00    +0.000 A 
ATOM      3  C   UNL     1      43.597   5.430  12.474  0.00  0.00    +0.000 A 
ATOM      4  N   UNL     1      42.840   4.578  11.749  0.00  0.00    +0.000 NA
ATOM      5  C   UNL     1      43.440   3.965  10.697  0.00  0.00    +0.000 A 
ATOM      6  C   UNL     1      44.769   4.144  10.318  0.00  0.00    +0.000 A 
ATOM      7  C   UNL     1      45.503   5.035  11.114  0.00  0.00    +0.000 A 
BRANCH   6   8
ATOM      8  C   UNL     1      45.380   3.470   9.150  0.00  0.00    +0.000 A 
ATOM      9  C   UNL     1      45.921   4.196   8.081  0.00  0.00    +0.000 A 
ATOM     10  C   UNL     1      46.517   3.514   7.026  0.00  0.00    +0.000 A 
ATOM     11  N   UNL     1      46.621   2.174   6.961  0.00  0.00    +0.000 NA
ATOM     12  C   UNL     1      46.100   1.481   7.990  0.00  0.00    +0.000 A 
ATOM     13  C   UNL     1      45.478   2.071   9.080  0.00  0.00    +0.000 A 
ENDBRANCH   6   8
ENDBRANCH   1   2
BRANCH   1  14
ATOM     14  C   UNL     1      47.231   6.468  12.999  0.00  0.00    +0.000 C 
BRANCH  14  19
ATOM     15  C   UNL     1      47.936   4.880  16.376  0.00  0.00    +0.000 A 
ATOM     16  C   UNL     1      49.065   5.609  16.723  0.00  0.00    +0.000 A 
ATOM     17  N   UNL     1      49.615   6.567  15.935  0.00  0.00    +0.000 NA
ATOM     18  C   UNL     1      49.002   6.815  14.758  0.00  0.00    +0.000 A 
ATOM     19  C   UNL     1      47.855   6.155  14.326  0.00  0.00    +0.000 A 
ATOM     20  C   UNL     1      47.312   5.174  15.165  0.00  0.00    +0.000 A 
BRANCH  15  22
ATOM     21  N   UNL     1      48.140   3.654  18.463  0.00  0.00    +0.000 N 
ATOM     22  C   UNL     1      47.442   3.838  17.301  0.00  0.00    +0.000 C 
ATOM     23  O   UNL     1      46.431   3.194  17.060  0.00  0.00    +0.000 OA
ATOM     24  H   UNL     1      47.722   3.022  19.136  0.00  0.00    +0.000 HD
ATOM     25  H   UNL     1      48.792   4.339  18.817  0.00  0.00    +0.000 HD
ENDBRANCH  15  22
ENDBRANCH  14  19
ENDBRANCH   1  14
TORSDOF 5
ENDMDL
MODEL 6
REMARK VINA RESULT:    -6.632      3.464      7.617
REMARK INTER + INTRA:          -9.360
REMARK INTER:                  -8.589
REMARK INTRA:                  -0.770
REMARK UNBOUND:                -0.789
REMARK  Name = 
REMARK  5 active torsions:
REMARK  status: ('A' for Active; 'I' for Inactive)
REMARK    1  A    between atoms: C_2  and  C_4
REMARK    2  A    between atoms: C_8  and  C_9
REMARK    3  A    between atoms: C_9  and  C_10
REMARK    4  A    between atoms: C_10  and  C_11
REMARK    5  A    between atoms: C_15  and  C_16
REMARK                            x       y       z     vdW  Elec       q    Type
REMARK                         _______ _______ _______ _____ _____    ______ ____
ROOT
ATOM      1  C   UNL     1      45.378   7.423  12.911  0.00  0.00    +0.000 C 
ENDROOT
BRANCH   1   2
ATOM      2  C   UNL     1      44.719   6.208  12.304  0.00  0.00    +0.000 A 
ATOM      3  C   UNL     1      43.547   5.695  12.842  0.00  0.00    +0.000 A 
ATOM      4  N   UNL     1      42.909   4.605  12.363  0.00  0.00    +0.000 NA
ATOM      5  C   UNL     1      43.471   3.984  11.295  0.00  0.00    +0.000 A 
ATOM      6  C   UNL     1      44.650   4.381  10.667  0.00  0.00    +0.000 A 
ATOM      7  C   UNL     1      45.268   5.514  11.216  0.00  0.00    +0.000 A 
BRANCH   6   8
ATOM      8  C   UNL     1      45.221   3.686   9.491  0.00  0.00    +0.000 A 
ATOM      9  C   UNL     1      45.783   4.392   8.420  0.00  0.00    +0.000 A 
ATOM     10  C   UNL     1      46.338   3.689   7.357  0.00  0.00    +0.000 A 
ATOM     11  N   UNL     1      46.382   2.346   7.285  0.00  0.00    +0.000 NA
ATOM     12  C   UNL     1      45.840   1.672   8.316  0.00  0.00    +0.000 A 
ATOM     13  C   UNL     1      45.255   2.284   9.414  0.00  0.00    +0.000 A 
ENDBRANCH   6   8
ENDBRANCH   1   2
BRANCH   1  14
ATOM     14  C   UNL     1      45.944   8.406  11.875  0.00  0.00    +0.000 C 
BRANCH  14  19
ATOM     15  C   UNL     1      42.935  10.599  11.127  0.00  0.00    +0.000 A 
ATOM     16  C   UNL     1      43.527  11.841  11.304  0.00  0.00    +0.000 A 
ATOM     17  N   UNL     1      44.826  12.014  11.657  0.00  0.00    +0.000 NA
ATOM     18  C   UNL     1      45.566  10.897  11.828  0.00  0.00    +0.000 A 
ATOM     19  C   UNL     1      45.073   9.607  11.655  0.00  0.00    +0.000 A 
ATOM     20  C   UNL     1      43.729   9.464  11.287  0.00  0.00    +0.000 A 
BRANCH  15  22
ATOM     21  N   UNL     1      40.804   9.434  11.198  0.00  0.00    +0.000 N 
ATOM     22  C   UNL     1      41.502  10.531  10.770  0.00  0.00    +0.000 C 
ATOM     23  O   UNL     1      40.951  11.432  10.154  0.00  0.00    +0.000 OA
ATOM     24  H   UNL     1      39.802   9.461  11.048  0.00  0.00    +0.000 HD
ATOM     25  H   UNL     1      41.146   8.827  11.929  0.00  0.00    +0.000 HD
ENDBRANCH  15  22
ENDBRANCH  14  19
ENDBRANCH   1  14
TORSDOF 5
ENDMDL
MODEL 7
REMARK VINA RESULT:    -6.505      2.825      5.293
REMARK INTER + INTRA:          -9.195
REMARK INTER:                  -8.392
REMARK INTRA:                  -0.803
REMARK UNBOUND:                -0.789
REMARK  Name = 
REMARK  5 active torsions:
REMARK  status: ('A' for Active; 'I' for Inactive)
REMARK    1  A    between atoms: C_2  and  C_4
REMARK    2  A    between atoms: C_8  and  C_9
REMARK    3  A    between atoms: C_9  and  C_10
REMARK    4  A    between atoms: C_10  and  C_11
REMARK    5  A    between atoms: C_15  and  C_16
REMARK                            x       y       z     vdW  Elec       q    Type
REMARK                         _______ _______ _______ _____ _____    ______ ____
ROOT
ATOM      1  C   UNL     1      46.860   6.907  11.838  0.00  0.00    +0.000 C 
ENDROOT
BRANCH   1   2
ATOM      2  C   UNL     1      47.733   6.992  13.068  0.00  0.00    +0.000 A 
ATOM      3  C   UNL     1      48.674   8.003  13.199  0.00  0.00    +0.000 A 
ATOM      4  N   UNL     1      49.498   8.135  14.262  0.00  0.00    +0.000 NA
ATOM      5  C   UNL     1      49.388   7.204  15.244  0.00  0.00    +0.000 A 
ATOM      6  C   UNL     1      48.500   6.130  15.233  0.00  0.00    +0.000 A 
ATOM      7  C   UNL     1      47.677   6.046  14.101  0.00  0.00    +0.000 A 
BRANCH   6   8
ATOM      8  C   UNL     1      48.398   5.147  16.336  0.00  0.00    +0.000 A 
ATOM      9  C   UNL     1      49.262   5.184  17.437  0.00  0.00    +0.000 A 
ATOM     10  C   UNL     1      49.100   4.260  18.462  0.00  0.00    +0.000 A 
ATOM     11  N   UNL     1      48.143   3.314  18.477  0.00  0.00    +0.000 NA
ATOM     12  C   UNL     1      47.315   3.282  17.417  0.00  0.00    +0.000 A 
ATOM     13  C   UNL     1      47.405   4.154  16.342  0.00  0.00    +0.000 A 
ENDBRANCH   6   8
ENDBRANCH   1   2
BRANCH   1  14
ATOM     14  C   UNL     1      45.358   6.821  12.147  0.00  0.00    +0.000 C 
BRANCH  14  19
ATOM     15  C   UNL     1      44.374   3.553  10.481  0.00  0.00    +0.000 A 
ATOM     16  C   UNL     1      43.724   2.956  11.552  0.00  0.00    +0.000 A 
ATOM     17  N   UNL     1      43.594   3.533  12.773  0.00  0.00    +0.000 NA
ATOM     18  C   UNL     1      44.124   4.766  12.924  0.00  0.00    +0.000 A 
ATOM     19  C   UNL     1      44.777   5.459  11.909  0.00  0.00    +0.000 A 
ATOM     20  C   UNL     1      44.891   4.836  10.661  0.00  0.00    +0.000 A 
BRANCH  15  22
ATOM     21  N   UNL     1      44.307   3.536   8.053  0.00  0.00    +0.000 N 
ATOM     22  C   UNL     1      44.481   2.817   9.204  0.00  0.00    +0.000 C 
ATOM     23  O   UNL     1      44.753   1.625   9.172  0.00  0.00    +0.000 OA
ATOM     24  H   UNL     1      44.501   3.043   7.189  0.00  0.00    +0.000 HD
ATOM     25  H   UNL     1      44.363   4.544   8.031  0.00  0.00    +0.000 HD
ENDBRANCH  15  22
ENDBRANCH  14  19
ENDBRANCH   1  14
TORSDOF 5
ENDMDL
MODEL 8
REMARK VINA RESULT:    -6.437      2.492      4.532
REMARK INTER + INTRA:          -9.108
REMARK INTER:                  -8.287
REMARK INTRA:                  -0.821
REMARK UNBOUND:                -0.789
REMARK  Name = 
REMARK  5 active torsions:
REMARK  status: ('A' for Active; 'I' for Inactive)
REMARK    1  A    between atoms: C_2  and  C_4
REMARK    2  A    between atoms: C_8  and  C_9
REMARK    3  A    between atoms: C_9  and  C_10
REMARK    4  A    between atoms: C_10  and  C_11
REMARK    5  A    between atoms: C_15  and  C_16
REMARK                            x       y       z     vdW  Elec       q    Type
REMARK                         _______ _______ _______ _____ _____    ______ ____
ROOT
ATOM      1  C   UNL     1      45.937   6.910  11.079  0.00  0.00    +0.000 C 
ENDROOT
BRANCH   1   2
ATOM      2  C   UNL     1      47.021   6.999  12.127  0.00  0.00    +0.000 A 
ATOM      3  C   UNL     1      48.108   7.844  11.953  0.00  0.00    +0.000 A 
ATOM      4  N   UNL     1      49.121   7.964  12.838  0.00  0.00    +0.000 NA
ATOM      5  C   UNL     1      49.055   7.197  13.956  0.00  0.00    +0.000 A 
ATOM      6  C   UNL     1      48.032   6.298  14.250  0.00  0.00    +0.000 A 
ATOM      7  C   UNL     1      47.015   6.213  13.289  0.00  0.00    +0.000 A 
BRANCH   6   8
ATOM      8  C   UNL     1      47.988   5.492  15.492  0.00  0.00    +0.000 A 
ATOM      9  C   UNL     1      47.208   4.333  15.591  0.00  0.00    +0.000 A 
ATOM     10  C   UNL     1      47.232   3.594  16.767  0.00  0.00    +0.000 A 
ATOM     11  N   UNL     1      47.975   3.914  17.842  0.00  0.00    +0.000 NA
ATOM     12  C   UNL     1      48.723   5.028  17.743  0.00  0.00    +0.000 A 
ATOM     13  C   UNL     1      48.757   5.836  16.616  0.00  0.00    +0.000 A 
ENDBRANCH   6   8
ENDBRANCH   1   2
BRANCH   1  14
ATOM     14  C   UNL     1      44.782   5.971  11.457  0.00  0.00    +0.000 C 
BRANCH  14  19
ATOM     15  C   UNL     1      45.406   3.456   8.680  0.00  0.00    +0.000 A 
ATOM     16  C   UNL     1      44.586   2.432   9.132  0.00  0.00    +0.000 A 
ATOM     17  N   UNL     1      43.857   2.498  10.275  0.00  0.00    +0.000 NA
ATOM     18  C   UNL     1      43.942   3.642  10.988  0.00  0.00    +0.000 A 
ATOM     19  C   UNL     1      44.719   4.734  10.612  0.00  0.00    +0.000 A 
ATOM     20  C   UNL     1      45.456   4.634   9.425  0.00  0.00    +0.000 A 
BRANCH  15  22
ATOM     21  N   UNL     1      46.508   1.976   7.100  0.00  0.00    +0.000 N 
ATOM     22  C   UNL     1      46.178   3.262   7.435  0.00  0.00    +0.000 C 
ATOM     23  O   UNL     1      46.476   4.201   6.712  0.00  0.00    +0.000 OA
ATOM     24  H   UNL     1      46.931   1.851   6.188  0.00  0.00    +0.000 HD
ATOM     25  H   UNL     1      46.049   1.175   7.510  0.00  0.00    +0.000 HD
ENDBRANCH  15  22
ENDBRANCH  14  19
ENDBRANCH   1  14
TORSDOF 5
ENDMDL
MODEL 9
REMARK VINA RESULT:    -6.402      3.421      7.565
REMARK INTER + INTRA:          -9.062
REMARK INTER:                  -8.267
REMARK INTRA:                  -0.794
REMARK UNBOUND:                -0.789
REMARK  Name = 
REMARK  5 active torsions:
REMARK  status: ('A' for Active; 'I' for Inactive)
REMARK    1  A    between atoms: C_2  and  C_4
REMARK    2  A    between atoms: C_8  and  C_9
REMARK    3  A    between atoms: C_9  and  C_10
REMARK    4  A    between atoms: C_10  and  C_11
REMARK    5  A    between atoms: C_15  and  C_16
REMARK                            x       y       z     vdW  Elec       q    Type
REMARK                         _______ _______ _______ _____ _____    ______ ____
ROOT
ATOM      1  C   UNL     1      49.036   7.233  13.909  0.00  0.00    +0.000 C 
ENDROOT
BRANCH   1   2
ATOM      2  C   UNL     1      47.637   7.299  13.342  0.00  0.00    +0.000 A 
ATOM      3  C   UNL     1      46.942   8.500  13.311  0.00  0.00    +0.000 A 
ATOM      4  N   UNL     1      45.685   8.633  12.833  0.00  0.00    +0.000 NA
ATOM      5  C   UNL     1      45.082   7.509  12.369  0.00  0.00    +0.000 A 
ATOM      6  C   UNL     1      45.657   6.239  12.355  0.00  0.00    +0.000 A 
ATOM      7  C   UNL     1      46.959   6.166  12.870  0.00  0.00    +0.000 A 
BRANCH   6   8
ATOM      8  C   UNL     1      44.971   5.041  11.821  0.00  0.00    +0.000 A 
ATOM      9  C   UNL     1      44.281   4.154  12.657  0.00  0.00    +0.000 A 
ATOM     10  C   UNL     1      43.622   3.064  12.100  0.00  0.00    +0.000 A 
ATOM     11  N   UNL     1      43.593   2.797  10.781  0.00  0.00    +0.000 NA
ATOM     12  C   UNL     1      44.257   3.652   9.981  0.00  0.00    +0.000 A 
ATOM     13  C   UNL     1      44.951   4.760  10.445  0.00  0.00    +0.000 A 
ENDBRANCH   6   8
ENDBRANCH   1   2
BRANCH   1  14
ATOM     14  C   UNL     1      49.162   7.824  15.321  0.00  0.00    +0.000 C 
BRANCH  14  19
ATOM     15  C   UNL     1      48.204   4.631  17.141  0.00  0.00    +0.000 A 
ATOM     16  C   UNL     1      48.220   5.115  18.442  0.00  0.00    +0.000 A 
ATOM     17  N   UNL     1      48.528   6.395  18.767  0.00  0.00    +0.000 NA
ATOM     18  C   UNL     1      48.820   7.230  17.746  0.00  0.00    +0.000 A 
ATOM     19  C   UNL     1      48.813   6.850  16.407  0.00  0.00    +0.000 A 
ATOM     20  C   UNL     1      48.488   5.522  16.107  0.00  0.00    +0.000 A 
BRANCH  15  22
ATOM     21  N   UNL     1      46.890   2.659  17.674  0.00  0.00    +0.000 N 
ATOM     22  C   UNL     1      47.882   3.208  16.908  0.00  0.00    +0.000 C 
ATOM     23  O   UNL     1      48.447   2.555  16.042  0.00  0.00    +0.000 OA
ATOM     24  H   UNL     1      46.602   1.721  17.421  0.00  0.00    +0.000 HD
ATOM     25  H   UNL     1      46.226   3.223  18.185  0.00  0.00    +0.000 HD
ENDBRANCH  15  22
ENDBRANCH  14  19
ENDBRANCH   1  14
TORSDOF 5
ENDMDL
