MODEL 1
REMARK VINA RESULT:    -7.520      0.000      0.000
REMARK INTER + INTRA:         -12.855
REMARK INTER:                 -11.916
REMARK INTRA:                  -0.940
REMARK UNBOUND:                -0.940
REMARK  Name = 
REMARK  11 active torsions:
REMARK  status: ('A' for Active; 'I' for Inactive)
REMARK    1  A    between atoms: C_1  and  O_2
REMARK    2  A    between atoms: O_2  and  C_3
REMARK    3  A    between atoms: C_3  and  C_4
REMARK    4  A    between atoms: C_4  and  N_5
REMARK    5  A    between atoms: C_4  and  C_13
REMARK    6  A    between atoms: N_5  and  C_6
REMARK    7  A    between atoms: C_6  and  C_7
REMARK    8  A    between atoms: C_16  and  C_17
REMARK    9  A    between atoms: C_17  and  C_18
REMARK   10  A    between atoms: C_18  and  N_19
REMARK   11  A    between atoms: N_19  and  C_20
REMARK                            x       y       z     vdW  Elec       q    Type
REMARK                         _______ _______ _______ _____ _____    ______ ____
ROOT
ATOM      1  C   UNL     1      45.840   5.615  11.687  0.00  0.00    +0.000 A 
ATOM      2  C   UNL     1      46.027   6.975  11.480  0.00  0.00    +0.000 A 
ATOM      3  C   UNL     1      46.802   7.692  12.383  0.00  0.00    +0.000 A 
ATOM      4  C   UNL     1      47.420   7.044  13.459  0.00  0.00    +0.000 A 
ATOM      5  C   UNL     1      47.177   5.683  13.586  0.00  0.00    +0.000 A 
ATOM      6  N   UNL     1      46.394   4.971  12.747  0.00  0.00    +0.000 NA
ENDROOT
BRANCH   1   7
ATOM      7  C   UNL     1      44.944   4.814  10.737  0.00  0.00    +0.000 C 
BRANCH   7   8
ATOM      8  N   UNL     1      45.277   5.018   9.302  0.00  0.00    +0.000 NA
ATOM      9  H   UNL     1      46.291   5.002   9.200  0.00  0.00    +0.000 HD
BRANCH   8  10
ATOM     10  C   UNL     1      44.678   4.000   8.439  0.00  0.00    +0.000 C 
BRANCH  10  11
ATOM     11  C   UNL     1      45.665   3.047   7.807  0.00  0.00    +0.000 A 
ATOM     12  C   UNL     1      46.505   3.514   6.782  0.00  0.00    +0.000 A 
ATOM     13  C   UNL     1      47.497   2.694   6.240  0.00  0.00    +0.000 A 
ATOM     14  C   UNL     1      47.666   1.398   6.722  0.00  0.00    +0.000 A 
ATOM     15  C   UNL     1      46.839   0.924   7.739  0.00  0.00    +0.000 A 
ATOM     16  C   UNL     1      45.848   1.741   8.284  0.00  0.00    +0.000 A 
ENDBRANCH  10  11
ENDBRANCH   8  10
ENDBRANCH   7   8
BRANCH   7  17
ATOM     17  C   UNL     1      43.472   5.198  11.051  0.00  0.00    +0.000 C 
BRANCH  17  19
ATOM     18  C   UNL     1      43.352   2.963  11.749  0.00  0.00    +0.000 C 
ATOM     19  O   UNL     1      42.846   4.278  11.952  0.00  0.00    +0.000 OA
ENDBRANCH  17  19
ENDBRANCH   7  17
ENDBRANCH   1   7
BRANCH   4  20
ATOM     20  C   UNL     1      48.329   7.732  14.451  0.00  0.00    +0.000 C 
BRANCH  20  21
ATOM     21  C   UNL     1      49.043   6.757  15.386  0.00  0.00    +0.000 C 
BRANCH  21  22
ATOM     22  N   UNL     1      48.348   6.566  16.657  0.00  0.00    +0.000 N 
ATOM     23  H   UNL     1      47.437   7.024  16.675  0.00  0.00    +0.000 HD
BRANCH  22  24
ATOM     24  C   UNL     1      48.229   5.211  17.040  0.00  0.00    +0.000 A 
ATOM     25  C   UNL     1      49.374   4.474  17.338  0.00  0.00    +0.000 A 
ATOM     26  C   UNL     1      49.277   3.128  17.691  0.00  0.00    +0.000 A 
ATOM     27  C   UNL     1      48.022   2.535  17.707  0.00  0.00    +0.000 A 
ATOM     28  N   UNL     1      46.892   3.184  17.377  0.00  0.00    +0.000 NA
ATOM     29  C   UNL     1      47.028   4.486  17.033  0.00  0.00    +0.000 A 
ENDBRANCH  22  24
ENDBRANCH  21  22
ENDBRANCH  20  21
ENDBRANCH   4  20
TORSDOF 10
ENDMDL
MODEL 2
REMARK VINA RESULT:    -7.351      1.612      2.194
REMARK INTER + INTRA:         -12.589
REMARK INTER:                 -11.743
REMARK INTRA:                  -0.846
REMARK UNBOUND:                -0.940
REMARK  Name = 
REMARK  11 active torsions:
REMARK  status: ('A' for Active; 'I' for Inactive)
REMARK    1  A    between atoms: C_1  and  O_2
REMARK    2  A    between atoms: O_2  and  C_3
REMARK    3  A    between atoms: C_3  and  C_4
REMARK    4  A    between atoms: C_4  and  N_5
REMARK    5  A    between atoms: C_4  and  C_13
REMARK    6  A    between atoms: N_5  and  C_6
REMARK    7  A    between atoms: C_6  and  C_7
REMARK    8  A    between atoms: C_16  and  C_17
REMARK    9  A    between atoms: C_17  and  C_18
REMARK   10  A    between atoms: C_18  and  N_19
REMARK   11  A    between atoms: N_19  and  C_20
REMARK                            x       y       z     vdW  Elec       q    Type
REMARK                         _______ _______ _______ _____ _____    ______ ____
ROOT
ATOM      1  C   UNL     1      45.724   4.650  12.651  0.00  0.00    +0.000 A 
ATOM      2  C   UNL     1      46.376   5.851  12.404  0.00  0.00    +0.000 A 
ATOM      3  C   UNL     1      47.281   6.330  13.342  0.00  0.00    +0.000 A 
ATOM      4  C   UNL     1      47.564   5.591  14.497  0.00  0.00    +0.000 A 
ATOM      5  C   UNL     1      46.865   4.403  14.660  0.00  0.00    +0.000 A 
ATOM      6  N   UNL     1      45.948   3.936  13.784  0.00  0.00    +0.000 NA
ENDROOT
BRANCH   1   7
ATOM      7  C   UNL     1      44.679   4.130  11.659  0.00  0.00    +0.000 C 
BRANCH   7   8
ATOM      8  N   UNL     1      45.093   2.876  10.974  0.00  0.00    +0.000 NA
ATOM      9  H   UNL     1      44.802   2.083  11.545  0.00  0.00    +0.000 HD
BRANCH   8  10
ATOM     10  C   UNL     1      44.518   2.755   9.635  0.00  0.00    +0.000 C 
BRANCH  10  11
ATOM     11  C   UNL     1      45.530   2.609   8.523  0.00  0.00    +0.000 A 
ATOM     12  C   UNL     1      46.127   1.356   8.302  0.00  0.00    +0.000 A 
ATOM     13  C   UNL     1      46.991   1.155   7.224  0.00  0.00    +0.000 A 
ATOM     14  C   UNL     1      47.264   2.205   6.348  0.00  0.00    +0.000 A 
ATOM     15  C   UNL     1      46.678   3.452   6.557  0.00  0.00    +0.000 A 
ATOM     16  C   UNL     1      45.811   3.655   7.632  0.00  0.00    +0.000 A 
ENDBRANCH  10  11
ENDBRANCH   8  10
ENDBRANCH   7   8
BRANCH   7  17
ATOM     17  C   UNL     1      44.385   5.272  10.650  0.00  0.00    +0.000 C 
BRANCH  17  19
ATOM     18  C   UNL     1      42.365   5.303  11.840  0.00  0.00    +0.000 C 
ATOM     19  O   UNL     1      43.257   6.066  11.034  0.00  0.00    +0.000 OA
ENDBRANCH  17  19
ENDBRANCH   7  17
ENDBRANCH   1   7
BRANCH   4  20
ATOM     20  C   UNL     1      48.579   6.004  15.538  0.00  0.00    +0.000 C 
BRANCH  20  21
ATOM     21  C   UNL     1      48.316   5.386  16.910  0.00  0.00    +0.000 C 
BRANCH  21  22
ATOM     22  N   UNL     1      49.524   5.250  17.720  0.00  0.00    +0.000 N 
ATOM     23  H   UNL     1      49.364   5.486  18.700  0.00  0.00    +0.000 HD
BRANCH  22  24
ATOM     24  C   UNL     1      50.142   3.985  17.611  0.00  0.00    +0.000 A 
ATOM     25  C   UNL     1      51.490   3.843  17.936  0.00  0.00    +0.000 A 
ATOM     26  C   UNL     1      52.123   2.606  17.807  0.00  0.00    +0.000 A 
ATOM     27  C   UNL     1      51.389   1.534  17.319  0.00  0.00    +0.000 A 
ATOM     28  N   UNL     1      50.102   1.626  16.940  0.00  0.00    +0.000 NA
ATOM     29  C   UNL     1      49.526   2.844  17.073  0.00  0.00    +0.000 A 
ENDBRANCH  22  24
ENDBRANCH  21  22
ENDBRANCH  20  21
ENDBRANCH   4  20
TORSDOF 10
ENDMDL
MODEL 3
REMARK VINA RESULT:    -7.202      2.113      8.369
REMARK INTER + INTRA:         -12.352
REMARK INTER:                 -11.509
REMARK INTRA:                  -0.843
REMARK UNBOUND:                -0.940
REMARK  Name = 
REMARK  11 active torsions:
REMARK  status: ('A' for Active; 'I' for Inactive)
REMARK    1  A    between atoms: C_1  and  O_2
REMARK    2  A    between atoms: O_2  and  C_3
REMARK    3  A    between atoms: C_3  and  C_4
REMARK    4  A    between atoms: C_4  and  N_5
REMARK    5  A    between atoms: C_4  and  C_13
REMARK    6  A    between atoms: N_5  and  C_6
REMARK    7  A    between atoms: C_6  and  C_7
REMARK    8  A    between atoms: C_16  and  C_17
REMARK    9  A    between atoms: C_17  and  C_18
REMARK   10  A    between atoms: C_18  and  N_19
REMARK   11  A    between atoms: N_19  and  C_20
REMARK                            x       y       z     vdW  Elec       q    Type
REMARK                         _______ _______ _______ _____ _____    ______ ____
ROOT
ATOM      1  C   UNL     1      46.791   5.346  13.802  0.00  0.00    +0.000 A 
ATOM      2  C   UNL     1      46.924   6.199  12.715  0.00  0.00    +0.000 A 
ATOM      3  C   UNL     1      45.986   6.136  11.692  0.00  0.00    +0.000 A 
ATOM      4  C   UNL     1      44.900   5.257  11.778  0.00  0.00    +0.000 A 
ATOM      5  C   UNL     1      44.849   4.442  12.902  0.00  0.00    +0.000 A 
ATOM      6  N   UNL     1      45.771   4.453  13.889  0.00  0.00    +0.000 NA
ENDROOT
BRANCH   1   7
ATOM      7  C   UNL     1      47.844   5.356  14.915  0.00  0.00    +0.000 C 
BRANCH   7   8
ATOM      8  N   UNL     1      47.275   5.095  16.264  0.00  0.00    +0.000 NA
ATOM      9  H   UNL     1      46.274   5.286  16.237  0.00  0.00    +0.000 HD
BRANCH   8  10
ATOM     10  C   UNL     1      47.503   3.721  16.710  0.00  0.00    +0.000 C 
BRANCH  10  11
ATOM     11  C   UNL     1      48.944   3.386  17.016  0.00  0.00    +0.000 A 
ATOM     12  C   UNL     1      49.728   4.318  17.716  0.00  0.00    +0.000 A 
ATOM     13  C   UNL     1      51.033   4.007  18.105  0.00  0.00    +0.000 A 
ATOM     14  C   UNL     1      51.567   2.755  17.804  0.00  0.00    +0.000 A 
ATOM     15  C   UNL     1      50.798   1.822  17.111  0.00  0.00    +0.000 A 
ATOM     16  C   UNL     1      49.493   2.129  16.723  0.00  0.00    +0.000 A 
ENDBRANCH  10  11
ENDBRANCH   8  10
ENDBRANCH   7   8
BRANCH   7  17
ATOM     17  C   UNL     1      48.578   6.722  14.849  0.00  0.00    +0.000 C 
BRANCH  17  19
ATOM     18  C   UNL     1      50.124   7.681  16.328  0.00  0.00    +0.000 C 
ATOM     19  O   UNL     1      48.762   7.309  16.142  0.00  0.00    +0.000 OA
ENDBRANCH  17  19
ENDBRANCH   7  17
ENDBRANCH   1   7
BRANCH   4  20
ATOM     20  C   UNL     1      43.801   5.167  10.745  0.00  0.00    +0.000 C 
BRANCH  20  21
ATOM     21  C   UNL     1      43.955   3.969   9.809  0.00  0.00    +0.000 C 
BRANCH  21  22
ATOM     22  N   UNL     1      44.652   4.296   8.567  0.00  0.00    +0.000 N 
ATOM     23  H   UNL     1      45.112   5.205   8.606  0.00  0.00    +0.000 HD
BRANCH  22  24
ATOM     24  C   UNL     1      45.559   3.298   8.147  0.00  0.00    +0.000 A 
ATOM     25  C   UNL     1      46.491   3.587   7.150  0.00  0.00    +0.000 A 
ATOM     26  C   UNL     1      47.376   2.606   6.704  0.00  0.00    +0.000 A 
ATOM     27  C   UNL     1      47.287   1.333   7.251  0.00  0.00    +0.000 A 
ATOM     28  N   UNL     1      46.374   0.986   8.175  0.00  0.00    +0.000 NA
ATOM     29  C   UNL     1      45.528   1.964   8.577  0.00  0.00    +0.000 A 
ENDBRANCH  22  24
ENDBRANCH  21  22
ENDBRANCH  20  21
ENDBRANCH   4  20
TORSDOF 10
ENDMDL
MODEL 4
REMARK VINA RESULT:    -7.202      2.429      9.112
REMARK INTER + INTRA:         -12.351
REMARK INTER:                 -11.460
REMARK INTRA:                  -0.891
REMARK UNBOUND:                -0.940
REMARK  Name = 
REMARK  11 active torsions:
REMARK  status: ('A' for Active; 'I' for Inactive)
REMARK    1  A    between atoms: C_1  and  O_2
REMARK    2  A    between atoms: O_2  and  C_3
REMARK    3  A    between atoms: C_3  and  C_4
REMARK    4  A    between atoms: C_4  and  N_5
REMARK    5  A    between atoms: C_4  and  C_13
REMARK    6  A    between atoms: N_5  and  C_6
REMARK    7  A    between atoms: C_6  and  C_7
REMARK    8  A    between atoms: C_16  and  C_17
REMARK    9  A    between atoms: C_17  and  C_18
REMARK   10  A    between atoms: C_18  and  N_19
REMARK   11  A    between atoms: N_19  and  C_20
REMARK                            x       y       z     vdW  Elec       q    Type
REMARK                         _______ _______ _______ _____ _____    ______ ____
ROOT
ATOM      1  C   UNL     1      47.085   4.930  14.685  0.00  0.00    +0.000 A 
ATOM      2  C   UNL     1      47.584   6.002  13.957  0.00  0.00    +0.000 A 
ATOM      3  C   UNL     1      47.131   6.203  12.659  0.00  0.00    +0.000 A 
ATOM      4  C   UNL     1      46.154   5.364  12.111  0.00  0.00    +0.000 A 
ATOM      5  C   UNL     1      45.712   4.319  12.912  0.00  0.00    +0.000 A 
ATOM      6  N   UNL     1      46.168   4.076  14.160  0.00  0.00    +0.000 NA
ENDROOT
BRANCH   1   7
ATOM      7  C   UNL     1      47.611   4.654  16.097  0.00  0.00    +0.000 C 
BRANCH   7   8
ATOM      8  N   UNL     1      48.931   5.284  16.365  0.00  0.00    +0.000 NA
ATOM      9  H   UNL     1      49.310   5.632  15.485  0.00  0.00    +0.000 HD
BRANCH   8  10
ATOM     10  C   UNL     1      48.842   6.378  17.331  0.00  0.00    +0.000 C 
BRANCH  10  11
ATOM     11  C   UNL     1      48.503   5.952  18.741  0.00  0.00    +0.000 A 
ATOM     12  C   UNL     1      49.239   4.912  19.336  0.00  0.00    +0.000 A 
ATOM     13  C   UNL     1      49.023   4.555  20.668  0.00  0.00    +0.000 A 
ATOM     14  C   UNL     1      48.074   5.240  21.426  0.00  0.00    +0.000 A 
ATOM     15  C   UNL     1      47.340   6.273  20.846  0.00  0.00    +0.000 A 
ATOM     16  C   UNL     1      47.554   6.633  19.516  0.00  0.00    +0.000 A 
ENDBRANCH  10  11
ENDBRANCH   8  10
ENDBRANCH   7   8
BRANCH   7  17
ATOM     17  C   UNL     1      47.654   3.113  16.284  0.00  0.00    +0.000 C 
BRANCH  17  19
ATOM     18  C   UNL     1      49.617   2.034  16.976  0.00  0.00    +0.000 C 
ATOM     19  O   UNL     1      48.897   2.543  15.859  0.00  0.00    +0.000 OA
ENDBRANCH  17  19
ENDBRANCH   7  17
ENDBRANCH   1   7
BRANCH   4  20
ATOM     20  C   UNL     1      45.559   5.547  10.734  0.00  0.00    +0.000 C 
BRANCH  20  21
ATOM     21  C   UNL     1      44.276   4.744  10.525  0.00  0.00    +0.000 C 
BRANCH  21  22
ATOM     22  N   UNL     1      44.048   4.379   9.128  0.00  0.00    +0.000 N 
ATOM     23  H   UNL     1      43.986   5.194   8.518  0.00  0.00    +0.000 HD
BRANCH  22  24
ATOM     24  C   UNL     1      44.987   3.453   8.623  0.00  0.00    +0.000 A 
ATOM     25  C   UNL     1      45.861   3.839   7.608  0.00  0.00    +0.000 A 
ATOM     26  C   UNL     1      46.777   2.928   7.079  0.00  0.00    +0.000 A 
ATOM     27  C   UNL     1      46.774   1.628   7.563  0.00  0.00    +0.000 A 
ATOM     28  N   UNL     1      45.918   1.188   8.502  0.00  0.00    +0.000 NA
ATOM     29  C   UNL     1      45.040   2.099   8.985  0.00  0.00    +0.000 A 
ENDBRANCH  22  24
ENDBRANCH  21  22
ENDBRANCH  20  21
ENDBRANCH   4  20
TORSDOF 10
ENDMDL
MODEL 5
REMARK VINA RESULT:    -7.167      1.421      1.888
REMARK INTER + INTRA:         -12.296
REMARK INTER:                 -11.412
REMARK INTRA:                  -0.884
REMARK UNBOUND:                -0.940
REMARK  Name = 
REMARK  11 active torsions:
REMARK  status: ('A' for Active; 'I' for Inactive)
REMARK    1  A    between atoms: C_1  and  O_2
REMARK    2  A    between atoms: O_2  and  C_3
REMARK    3  A    between atoms: C_3  and  C_4
REMARK    4  A    between atoms: C_4  and  N_5
REMARK    5  A    between atoms: C_4  and  C_13
REMARK    6  A    between atoms: N_5  and  C_6
REMARK    7  A    between atoms: C_6  and  C_7
REMARK    8  A    between atoms: C_16  and  C_17
REMARK    9  A    between atoms: C_17  and  C_18
REMARK   10  A    between atoms: C_18  and  N_19
REMARK   11  A    between atoms: N_19  and  C_20
REMARK                            x       y       z     vdW  Elec       q    Type
REMARK                         _______ _______ _______ _____ _____    ______ ____
ROOT
ATOM      1  C   UNL     1      45.939   5.390  11.802  0.00  0.00    +0.000 A 
ATOM      2  C   UNL     1      46.599   6.554  11.430  0.00  0.00    +0.000 A 
ATOM      3  C   UNL     1      47.476   7.146  12.329  0.00  0.00    +0.000 A 
ATOM      4  C   UNL     1      47.725   6.554  13.572  0.00  0.00    +0.000 A 
ATOM      5  C   UNL     1      47.022   5.392  13.859  0.00  0.00    +0.000 A 
ATOM      6  N   UNL     1      46.131   4.819  13.020  0.00  0.00    +0.000 NA
ENDROOT
BRANCH   1   7
ATOM      7  C   UNL     1      44.923   4.750  10.851  0.00  0.00    +0.000 C 
BRANCH   7   8
ATOM      8  N   UNL     1      45.151   5.102   9.424  0.00  0.00    +0.000 NA
ATOM      9  H   UNL     1      46.151   5.243   9.280  0.00  0.00    +0.000 HD
BRANCH   8  10
ATOM     10  C   UNL     1      44.662   4.071   8.509  0.00  0.00    +0.000 C 
BRANCH  10  11
ATOM     11  C   UNL     1      45.729   3.148   7.968  0.00  0.00    +0.000 A 
ATOM     12  C   UNL     1      45.761   1.812   8.402  0.00  0.00    +0.000 A 
ATOM     13  C   UNL     1      46.667   0.903   7.853  0.00  0.00    +0.000 A 
ATOM     14  C   UNL     1      47.548   1.317   6.856  0.00  0.00    +0.000 A 
ATOM     15  C   UNL     1      47.525   2.639   6.417  0.00  0.00    +0.000 A 
ATOM     16  C   UNL     1      46.619   3.550   6.962  0.00  0.00    +0.000 A 
ENDBRANCH  10  11
ENDBRANCH   8  10
ENDBRANCH   7   8
BRANCH   7  17
ATOM     17  C   UNL     1      43.507   5.167  11.333  0.00  0.00    +0.000 C 
BRANCH  17  19
ATOM     18  C   UNL     1      43.289   2.867  11.733  0.00  0.00    +0.000 C 
ATOM     19  O   UNL     1      42.891   4.168  12.153  0.00  0.00    +0.000 OA
ENDBRANCH  17  19
ENDBRANCH   7  17
ENDBRANCH   1   7
BRANCH   4  20
ATOM     20  C   UNL     1      48.710   7.094  14.584  0.00  0.00    +0.000 C 
BRANCH  20  21
ATOM     21  C   UNL     1      48.745   6.282  15.878  0.00  0.00    +0.000 C 
BRANCH  21  22
ATOM     22  N   UNL     1      48.115   6.968  17.004  0.00  0.00    +0.000 N 
ATOM     23  H   UNL     1      47.141   7.207  16.819  0.00  0.00    +0.000 HD
BRANCH  22  24
ATOM     24  C   UNL     1      48.230   6.271  18.228  0.00  0.00    +0.000 A 
ATOM     25  C   UNL     1      47.484   6.684  19.331  0.00  0.00    +0.000 A 
ATOM     26  C   UNL     1      47.606   6.025  20.554  0.00  0.00    +0.000 A 
ATOM     27  C   UNL     1      48.506   4.973  20.654  0.00  0.00    +0.000 A 
ATOM     28  N   UNL     1      49.288   4.567  19.638  0.00  0.00    +0.000 NA
ATOM     29  C   UNL     1      49.146   5.237  18.471  0.00  0.00    +0.000 A 
ENDBRANCH  22  24
ENDBRANCH  21  22
ENDBRANCH  20  21
ENDBRANCH   4  20
TORSDOF 10
ENDMDL
MODEL 6
REMARK VINA RESULT:    -6.971      2.740      5.158
REMARK INTER + INTRA:         -11.986
REMARK INTER:                 -10.690
REMARK INTRA:                  -1.295
REMARK UNBOUND:                -0.940
REMARK  Name = 
REMARK  11 active torsions:
REMARK  status: ('A' for Active; 'I' for Inactive)
REMARK    1  A    between atoms: C_1  and  O_2
REMARK    2  A    between atoms: O_2  and  C_3
REMARK    3  A    between atoms: C_3  and  C_4
REMARK    4  A    between atoms: C_4  and  N_5
REMARK    5  A    between atoms: C_4  and  C_13
REMARK    6  A    between atoms: N_5  and  C_6
REMARK    7  A    between atoms: C_6  and  C_7
REMARK    8  A    between atoms: C_16  and  C_17
REMARK    9  A    between atoms: C_17  and  C_18
REMARK   10  A    between atoms: C_18  and  N_19
REMARK   11  A    between atoms: N_19  and  C_20
REMARK                            x       y       z     vdW  Elec       q    Type
REMARK                         _______ _______ _______ _____ _____    ______ ____
ROOT
ATOM      1  C   UNL     1      45.561   4.822  12.058  0.00  0.00    +0.000 A 
ATOM      2  C   UNL     1      46.129   4.781  13.324  0.00  0.00    +0.000 A 
ATOM      3  C   UNL     1      47.117   5.703  13.647  0.00  0.00    +0.000 A 
ATOM      4  C   UNL     1      47.501   6.683  12.727  0.00  0.00    +0.000 A 
ATOM      5  C   UNL     1      46.879   6.648  11.486  0.00  0.00    +0.000 A 
ATOM      6  N   UNL     1      45.947   5.737  11.131  0.00  0.00    +0.000 NA
ENDROOT
BRANCH   1   7
ATOM      7  C   UNL     1      44.510   3.781  11.658  0.00  0.00    +0.000 C 
BRANCH   7   8
ATOM      8  N   UNL     1      45.088   2.603  10.957  0.00  0.00    +0.000 NA
ATOM      9  H   UNL     1      44.886   1.768  11.506  0.00  0.00    +0.000 HD
BRANCH   8  10
ATOM     10  C   UNL     1      44.559   2.444   9.603  0.00  0.00    +0.000 C 
BRANCH  10  11
ATOM     11  C   UNL     1      45.598   2.494   8.508  0.00  0.00    +0.000 A 
ATOM     12  C   UNL     1      46.276   1.315   8.155  0.00  0.00    +0.000 A 
ATOM     13  C   UNL     1      47.171   1.298   7.083  0.00  0.00    +0.000 A 
ATOM     14  C   UNL     1      47.393   2.460   6.345  0.00  0.00    +0.000 A 
ATOM     15  C   UNL     1      46.726   3.634   6.686  0.00  0.00    +0.000 A 
ATOM     16  C   UNL     1      45.829   3.654   7.755  0.00  0.00    +0.000 A 
ENDBRANCH  10  11
ENDBRANCH   8  10
ENDBRANCH   7   8
BRANCH   7  17
ATOM     17  C   UNL     1      43.443   4.505  10.794  0.00  0.00    +0.000 C 
BRANCH  17  19
ATOM     18  C   UNL     1      42.466   6.454  11.655  0.00  0.00    +0.000 C 
ATOM     19  O   UNL     1      42.370   5.036  11.579  0.00  0.00    +0.000 OA
ENDBRANCH  17  19
ENDBRANCH   7  17
ENDBRANCH   1   7
BRANCH   4  20
ATOM     20  C   UNL     1      48.520   7.762  13.015  0.00  0.00    +0.000 C 
BRANCH  20  21
ATOM     21  C   UNL     1      48.269   9.049  12.231  0.00  0.00    +0.000 C 
BRANCH  21  22
ATOM     22  N   UNL     1      47.333   9.953  12.895  0.00  0.00    +0.000 N 
ATOM     23  H   UNL     1      47.799  10.761  13.309  0.00  0.00    +0.000 HD
BRANCH  22  24
ATOM     24  C   UNL     1      46.263  10.368  12.070  0.00  0.00    +0.000 A 
ATOM     25  C   UNL     1      45.055   9.673  12.104  0.00  0.00    +0.000 A 
ATOM     26  C   UNL     1      43.998  10.052  11.275  0.00  0.00    +0.000 A 
ATOM     27  C   UNL     1      44.188  11.111  10.400  0.00  0.00    +0.000 A 
ATOM     28  N   UNL     1      45.349  11.782  10.288  0.00  0.00    +0.000 NA
ATOM     29  C   UNL     1      46.352  11.379  11.103  0.00  0.00    +0.000 A 
ENDBRANCH  22  24
ENDBRANCH  21  22
ENDBRANCH  20  21
ENDBRANCH   4  20
TORSDOF 10
ENDMDL
MODEL 7
REMARK VINA RESULT:    -6.840      2.093      8.462
REMARK INTER + INTRA:         -11.778
REMARK INTER:                 -10.615
REMARK INTRA:                  -1.163
REMARK UNBOUND:                -0.940
REMARK  Name = 
REMARK  11 active torsions:
REMARK  status: ('A' for Active; 'I' for Inactive)
REMARK    1  A    between atoms: C_1  and  O_2
REMARK    2  A    between atoms: O_2  and  C_3
REMARK    3  A    between atoms: C_3  and  C_4
REMARK    4  A    between atoms: C_4  and  N_5
REMARK    5  A    between atoms: C_4  and  C_13
REMARK    6  A    between atoms: N_5  and  C_6
REMARK    7  A    between atoms: C_6  and  C_7
REMARK    8  A    between atoms: C_16  and  C_17
REMARK    9  A    between atoms: C_17  and  C_18
REMARK   10  A    between atoms: C_18  and  N_19
REMARK   11  A    between atoms: N_19  and  C_20
REMARK                            x       y       z     vdW  Elec       q    Type
REMARK                         _______ _______ _______ _____ _____    ______ ____
ROOT
ATOM      1  C   UNL     1      46.979   5.665  12.818  0.00  0.00    +0.000 A 
ATOM      2  C   UNL     1      46.724   4.382  13.284  0.00  0.00    +0.000 A 
ATOM      3  C   UNL     1      45.672   3.663  12.731  0.00  0.00    +0.000 A 
ATOM      4  C   UNL     1      44.910   4.206  11.691  0.00  0.00    +0.000 A 
ATOM      5  C   UNL     1      45.237   5.494  11.289  0.00  0.00    +0.000 A 
ATOM      6  N   UNL     1      46.227   6.231  11.839  0.00  0.00    +0.000 NA
ENDROOT
BRANCH   1   7
ATOM      7  C   UNL     1      48.097   6.499  13.450  0.00  0.00    +0.000 C 
BRANCH   7   8
ATOM      8  N   UNL     1      47.837   6.847  14.873  0.00  0.00    +0.000 NA
ATOM      9  H   UNL     1      47.019   6.328  15.189  0.00  0.00    +0.000 HD
BRANCH   8  10
ATOM     10  C   UNL     1      48.977   6.548  15.739  0.00  0.00    +0.000 C 
BRANCH  10  11
ATOM     11  C   UNL     1      48.737   5.443  16.740  0.00  0.00    +0.000 A 
ATOM     12  C   UNL     1      47.687   4.535  16.518  0.00  0.00    +0.000 A 
ATOM     13  C   UNL     1      47.494   3.443  17.366  0.00  0.00    +0.000 A 
ATOM     14  C   UNL     1      48.355   3.240  18.444  0.00  0.00    +0.000 A 
ATOM     15  C   UNL     1      49.400   4.133  18.673  0.00  0.00    +0.000 A 
ATOM     16  C   UNL     1      49.596   5.224  17.826  0.00  0.00    +0.000 A 
ENDBRANCH  10  11
ENDBRANCH   8  10
ENDBRANCH   7   8
BRANCH   7  17
ATOM     17  C   UNL     1      48.289   7.764  12.569  0.00  0.00    +0.000 C 
BRANCH  17  19
ATOM     18  C   UNL     1      46.943   9.681  12.472  0.00  0.00    +0.000 C 
ATOM     19  O   UNL     1      47.902   8.966  13.244  0.00  0.00    +0.000 OA
ENDBRANCH  17  19
ENDBRANCH   7  17
ENDBRANCH   1   7
BRANCH   4  20
ATOM     20  C   UNL     1      43.790   3.472  10.990  0.00  0.00    +0.000 C 
BRANCH  20  21
ATOM     21  C   UNL     1      44.125   3.108   9.544  0.00  0.00    +0.000 C 
BRANCH  21  22
ATOM     22  N   UNL     1      45.040   1.974   9.433  0.00  0.00    +0.000 N 
ATOM     23  H   UNL     1      44.551   1.079   9.416  0.00  0.00    +0.000 HD
BRANCH  22  24
ATOM     24  C   UNL     1      45.934   2.071   8.344  0.00  0.00    +0.000 A 
ATOM     25  C   UNL     1      45.996   3.252   7.604  0.00  0.00    +0.000 A 
ATOM     26  C   UNL     1      46.852   3.355   6.507  0.00  0.00    +0.000 A 
ATOM     27  C   UNL     1      47.614   2.250   6.154  0.00  0.00    +0.000 A 
ATOM     28  N   UNL     1      47.554   1.071   6.799  0.00  0.00    +0.000 NA
ATOM     29  C   UNL     1      46.706   1.009   7.852  0.00  0.00    +0.000 A 
ENDBRANCH  22  24
ENDBRANCH  21  22
ENDBRANCH  20  21
ENDBRANCH   4  20
TORSDOF 10
ENDMDL
MODEL 8
REMARK VINA RESULT:    -6.720      2.247      3.028
REMARK INTER + INTRA:         -11.589
REMARK INTER:                 -10.815
REMARK INTRA:                  -0.774
REMARK UNBOUND:                -0.940
REMARK  Name = 
REMARK  11 active torsions:
REMARK  status: ('A' for Active; 'I' for Inactive)
REMARK    1  A    between atoms: C_1  and  O_2
REMARK    2  A    between atoms: O_2  and  C_3
REMARK    3  A    between atoms: C_3  and  C_4
REMARK    4  A    between atoms: C_4  and  N_5
REMARK    5  A    between atoms: C_4  and  C_13
REMARK    6  A    between atoms: N_5  and  C_6
REMARK    7  A    between atoms: C_6  and  C_7
REMARK    8  A    between atoms: C_16  and  C_17
REMARK    9  A    between atoms: C_17  and  C_18
REMARK   10  A    between atoms: C_18  and  N_19
REMARK   11  A    between atoms: N_19  and  C_20
REMARK                            x       y       z     vdW  Elec       q    Type
REMARK                         _______ _______ _______ _____ _____    ______ ____
ROOT
ATOM      1  C   UNL     1      45.846   5.403  11.653  0.00  0.00    +0.000 A 
ATOM      2  C   UNL     1      46.026   4.892  12.931  0.00  0.00    +0.000 A 
ATOM      3  C   UNL     1      46.917   5.525  13.789  0.00  0.00    +0.000 A 
ATOM      4  C   UNL     1      47.588   6.685  13.385  0.00  0.00    +0.000 A 
ATOM      5  C   UNL     1      47.345   7.124  12.090  0.00  0.00    +0.000 A 
ATOM      6  N   UNL     1      46.517   6.503  11.222  0.00  0.00    +0.000 NA
ENDROOT
BRANCH   1   7
ATOM      7  C   UNL     1      44.913   4.690  10.669  0.00  0.00    +0.000 C 
BRANCH   7   8
ATOM      8  N   UNL     1      45.226   4.982   9.245  0.00  0.00    +0.000 NA
ATOM      9  H   UNL     1      46.238   5.058   9.144  0.00  0.00    +0.000 HD
BRANCH   8  10
ATOM     10  C   UNL     1      44.716   3.954   8.338  0.00  0.00    +0.000 C 
BRANCH  10  11
ATOM     11  C   UNL     1      45.773   3.051   7.747  0.00  0.00    +0.000 A 
ATOM     12  C   UNL     1      45.957   1.768   8.290  0.00  0.00    +0.000 A 
ATOM     13  C   UNL     1      46.853   0.868   7.711  0.00  0.00    +0.000 A 
ATOM     14  C   UNL     1      47.572   1.237   6.575  0.00  0.00    +0.000 A 
ATOM     15  C   UNL     1      47.397   2.507   6.027  0.00  0.00    +0.000 A 
ATOM     16  C   UNL     1      46.500   3.408   6.603  0.00  0.00    +0.000 A 
ENDBRANCH  10  11
ENDBRANCH   8  10
ENDBRANCH   7   8
BRANCH   7  17
ATOM     17  C   UNL     1      43.457   5.088  11.037  0.00  0.00    +0.000 C 
BRANCH  17  19
ATOM     18  C   UNL     1      43.469   2.788  11.492  0.00  0.00    +0.000 C 
ATOM     19  O   UNL     1      42.668   3.964  11.443  0.00  0.00    +0.000 OA
ENDBRANCH  17  19
ENDBRANCH   7  17
ENDBRANCH   1   7
BRANCH   4  20
ATOM     20  C   UNL     1      48.524   7.472  14.273  0.00  0.00    +0.000 C 
BRANCH  20  21
ATOM     21  C   UNL     1      48.056   8.906  14.516  0.00  0.00    +0.000 C 
BRANCH  21  22
ATOM     22  N   UNL     1      47.569   9.129  15.875  0.00  0.00    +0.000 N 
ATOM     23  H   UNL     1      46.749   8.562  16.093  0.00  0.00    +0.000 HD
BRANCH  22  24
ATOM     24  C   UNL     1      48.561   8.966  16.867  0.00  0.00    +0.000 A 
ATOM     25  C   UNL     1      48.490   7.886  17.745  0.00  0.00    +0.000 A 
ATOM     26  C   UNL     1      49.446   7.725  18.748  0.00  0.00    +0.000 A 
ATOM     27  C   UNL     1      50.447   8.679  18.870  0.00  0.00    +0.000 A 
ATOM     28  N   UNL     1      50.533   9.767  18.085  0.00  0.00    +0.000 NA
ATOM     29  C   UNL     1      49.582   9.892  17.129  0.00  0.00    +0.000 A 
ENDBRANCH  22  24
ENDBRANCH  21  22
ENDBRANCH  20  21
ENDBRANCH   4  20
TORSDOF 10
ENDMDL
MODEL 9
REMARK VINA RESULT:    -6.704      2.770      4.543
REMARK INTER + INTRA:         -11.562
REMARK INTER:                 -10.635
REMARK INTRA:                  -0.927
REMARK UNBOUND:                -0.940
REMARK  Name = 
REMARK  11 active torsions:
REMARK  status: ('A' for Active; 'I' for Inactive)
REMARK    1  A    between atoms: C_1  and  O_2
REMARK    2  A    between atoms: O_2  and  C_3
REMARK    3  A    between atoms: C_3  and  C_4
REMARK    4  A    between atoms: C_4  and  N_5
REMARK    5  A    between atoms: C_4  and  C_13
REMARK    6  A    between atoms: N_5  and  C_6
REMARK    7  A    between atoms: C_6  and  C_7
REMARK    8  A    between atoms: C_16  and  C_17
REMARK    9  A    between atoms: C_17  and  C_18
REMARK   10  A    between atoms: C_18  and  N_19
REMARK   11  A    between atoms: N_19  and  C_20
REMARK                            x       y       z     vdW  Elec       q    Type
REMARK                         _______ _______ _______ _____ _____    ______ ____
ROOT
ATOM      1  C   UNL     1      45.867   5.410  11.630  0.00  0.00    +0.000 A 
ATOM      2  C   UNL     1      46.345   6.680  11.333  0.00  0.00    +0.000 A 
ATOM      3  C   UNL     1      47.158   7.325  12.256  0.00  0.00    +0.000 A 
ATOM      4  C   UNL     1      47.527   6.687  13.445  0.00  0.00    +0.000 A 
ATOM      5  C   UNL     1      47.002   5.419  13.658  0.00  0.00    +0.000 A 
ATOM      6  N   UNL     1      46.174   4.787  12.798  0.00  0.00    +0.000 NA
ENDROOT
BRANCH   1   7
ATOM      7  C   UNL     1      44.921   4.702  10.656  0.00  0.00    +0.000 C 
BRANCH   7   8
ATOM      8  N   UNL     1      45.231   4.983   9.228  0.00  0.00    +0.000 NA
ATOM      9  H   UNL     1      46.242   5.062   9.125  0.00  0.00    +0.000 HD
BRANCH   8  10
ATOM     10  C   UNL     1      44.724   3.944   8.332  0.00  0.00    +0.000 C 
BRANCH  10  11
ATOM     11  C   UNL     1      45.787   3.060   7.722  0.00  0.00    +0.000 A 
ATOM     12  C   UNL     1      45.986   1.771   8.246  0.00  0.00    +0.000 A 
ATOM     13  C   UNL     1      46.888   0.888   7.649  0.00  0.00    +0.000 A 
ATOM     14  C   UNL     1      47.597   1.281   6.515  0.00  0.00    +0.000 A 
ATOM     15  C   UNL     1      47.407   2.556   5.987  0.00  0.00    +0.000 A 
ATOM     16  C   UNL     1      46.505   3.440   6.580  0.00  0.00    +0.000 A 
ENDBRANCH  10  11
ENDBRANCH   8  10
ENDBRANCH   7   8
BRANCH   7  17
ATOM     17  C   UNL     1      43.472   5.118  11.027  0.00  0.00    +0.000 C 
BRANCH  17  19
ATOM     18  C   UNL     1      43.267   2.890  11.728  0.00  0.00    +0.000 C 
ATOM     19  O   UNL     1      42.877   4.235  11.984  0.00  0.00    +0.000 OA
ENDBRANCH  17  19
ENDBRANCH   7  17
ENDBRANCH   1   7
BRANCH   4  20
ATOM     20  C   UNL     1      48.457   7.287  14.474  0.00  0.00    +0.000 C 
BRANCH  20  21
ATOM     21  C   UNL     1      49.437   8.297  13.879  0.00  0.00    +0.000 C 
BRANCH  21  22
ATOM     22  N   UNL     1      50.653   7.679  13.354  0.00  0.00    +0.000 N 
ATOM     23  H   UNL     1      50.486   6.742  12.987  0.00  0.00    +0.000 HD
BRANCH  22  24
ATOM     24  C   UNL     1      51.325   8.473  12.398  0.00  0.00    +0.000 A 
ATOM     25  C   UNL     1      51.531   7.978  11.111  0.00  0.00    +0.000 A 
ATOM     26  C   UNL     1      52.217   8.737  10.163  0.00  0.00    +0.000 A 
ATOM     27  C   UNL     1      52.715   9.976  10.540  0.00  0.00    +0.000 A 
ATOM     28  N   UNL     1      52.592  10.479  11.781  0.00  0.00    +0.000 NA
ATOM     29  C   UNL     1      51.927   9.709  12.674  0.00  0.00    +0.000 A 
ENDBRANCH  22  24
ENDBRANCH  21  22
ENDBRANCH  20  21
ENDBRANCH   4  20
TORSDOF 10
ENDMDL
