MODEL 1
REMARK VINA RESULT:    -7.729      0.000      0.000
REMARK INTER + INTRA:         -12.207
REMARK INTER:                 -11.343
REMARK INTRA:                  -0.864
REMARK UNBOUND:                -0.864
REMARK  Name = 
REMARK  9 active torsions:
REMARK  status: ('A' for Active; 'I' for Inactive)
REMARK    1  A    between atoms: C_1  and  C_2
REMARK    2  A    between atoms: C_2  and  N_3
REMARK    3  A    between atoms: C_2  and  C_20
REMARK    4  A    between atoms: N_3  and  C_4
REMARK    5  A    between atoms: C_4  and  C_5
REMARK    6  A    between atoms: C_8  and  C_9
REMARK    7  A    between atoms: C_9  and  N_10
REMARK    8  A    between atoms: N_10  and  C_11
REMARK    9  A    between atoms: C_11  and  C_12
REMARK                            x       y       z     vdW  Elec       q    Type
REMARK                         _______ _______ _______ _____ _____    ______ ____
ROOT
ATOM      1  C   UNL     1      46.877   5.530  13.245  0.00  0.00    +0.000 A 
ATOM      2  C   UNL     1      46.558   6.151  12.031  0.00  0.00    +0.000 A 
ATOM      3  C   UNL     1      45.495   5.670  11.265  0.00  0.00    +0.000 A 
ATOM      4  C   UNL     1      44.774   4.572  11.728  0.00  0.00    +0.000 A 
ATOM      5  N   UNL     1      45.104   3.919  12.870  0.00  0.00    +0.000 NA
ATOM      6  C   UNL     1      46.141   4.405  13.593  0.00  0.00    +0.000 A 
ENDROOT
BRANCH   1   7
ATOM      7  C   UNL     1      47.907   6.105  14.185  0.00  0.00    +0.000 C 
BRANCH   7   8
ATOM      8  N   UNL     1      47.991   5.388  15.461  0.00  0.00    +0.000 NA
ATOM      9  H   UNL     1      48.445   4.491  15.286  0.00  0.00    +0.000 HD
BRANCH   8  11
ATOM     10  C   UNL     1      50.056   6.720  15.939  0.00  0.00    +0.000 C 
ATOM     11  C   UNL     1      48.783   6.088  16.509  0.00  0.00    +0.000 C 
BRANCH  11  12
ATOM     12  C   UNL     1      49.000   5.108  17.641  0.00  0.00    +0.000 A 
ATOM     13  C   UNL     1      48.695   3.757  17.656  0.00  0.00    +0.000 A 
ATOM     14  N   UNL     1      48.478   3.400  18.961  0.00  0.00    +0.000 N 
ATOM     15  C   UNL     1      48.791   4.446  19.792  0.00  0.00    +0.000 A 
ATOM     16  C   UNL     1      48.628   4.600  21.160  0.00  0.00    +0.000 A 
ATOM     17  N   UNL     1      49.117   5.708  21.761  0.00  0.00    +0.000 NA
ATOM     18  C   UNL     1      49.749   6.636  21.007  0.00  0.00    +0.000 A 
ATOM     19  C   UNL     1      49.858   6.590  19.625  0.00  0.00    +0.000 A 
ATOM     20  C   UNL     1      49.323   5.459  18.995  0.00  0.00    +0.000 A 
ATOM     21  H   UNL     1      48.080   2.520  19.262  0.00  0.00    +0.000 HD
ENDBRANCH  11  12
ENDBRANCH   8  11
ENDBRANCH   7   8
ENDBRANCH   1   7
BRANCH   4  22
ATOM     22  C   UNL     1      43.531   4.099  10.998  0.00  0.00    +0.000 C 
BRANCH  22  23
ATOM     23  N   UNL     1      43.779   3.671   9.608  0.00  0.00    +0.000 NA
ATOM     24  H   UNL     1      44.408   4.371   9.201  0.00  0.00    +0.000 HD
BRANCH  23  25
ATOM     25  C   UNL     1      44.485   2.380   9.555  0.00  0.00    +0.000 C 
BRANCH  25  26
ATOM     26  C   UNL     1      45.554   2.345   8.486  0.00  0.00    +0.000 A 
ATOM     27  C   UNL     1      45.850   3.481   7.736  0.00  0.00    +0.000 A 
ATOM     28  C   UNL     1      46.837   3.404   6.757  0.00  0.00    +0.000 A 
ATOM     29  C   UNL     1      47.508   2.208   6.551  0.00  0.00    +0.000 A 
ATOM     30  C   UNL     1      47.165   1.124   7.337  0.00  0.00    +0.000 A 
ATOM     31  N   UNL     1      46.207   1.172   8.291  0.00  0.00    +0.000 NA
ENDBRANCH  25  26
ENDBRANCH  23  25
ENDBRANCH  22  23
ENDBRANCH   4  22
TORSDOF 8
ENDMDL
MODEL 2
REMARK VINA RESULT:    -7.683      1.935      2.439
REMARK INTER + INTRA:         -12.140
REMARK INTER:                 -10.985
REMARK INTRA:                  -1.155
REMARK UNBOUND:                -0.864
REMARK  Name = 
REMARK  9 active torsions:
REMARK  status: ('A' for Active; 'I' for Inactive)
REMARK    1  A    between atoms: C_1  and  C_2
REMARK    2  A    between atoms: C_2  and  N_3
REMARK    3  A    between atoms: C_2  and  C_20
REMARK    4  A    between atoms: N_3  and  C_4
REMARK    5  A    between atoms: C_4  and  C_5
REMARK    6  A    between atoms: C_8  and  C_9
REMARK    7  A    between atoms: C_9  and  N_10
REMARK    8  A    between atoms: N_10  and  C_11
REMARK    9  A    between atoms: C_11  and  C_12
REMARK                            x       y       z     vdW  Elec       q    Type
REMARK                         _______ _______ _______ _____ _____    ______ ____
ROOT
ATOM      1  C   UNL     1      47.226   6.279  12.820  0.00  0.00    +0.000 A 
ATOM      2  C   UNL     1      46.946   5.180  13.641  0.00  0.00    +0.000 A 
ATOM      3  C   UNL     1      45.923   4.297  13.292  0.00  0.00    +0.000 A 
ATOM      4  C   UNL     1      45.195   4.536  12.129  0.00  0.00    +0.000 A 
ATOM      5  N   UNL     1      45.408   5.628  11.353  0.00  0.00    +0.000 NA
ATOM      6  C   UNL     1      46.406   6.469  11.715  0.00  0.00    +0.000 A 
ENDROOT
BRANCH   1   7
ATOM      7  C   UNL     1      48.419   7.169  13.063  0.00  0.00    +0.000 C 
BRANCH   7   8
ATOM      8  N   UNL     1      49.360   6.621  14.045  0.00  0.00    +0.000 NA
ATOM      9  H   UNL     1      50.293   6.651  13.634  0.00  0.00    +0.000 HD
BRANCH   8  11
ATOM     10  C   UNL     1      50.229   8.665  15.200  0.00  0.00    +0.000 C 
ATOM     11  C   UNL     1      49.417   7.373  15.328  0.00  0.00    +0.000 C 
BRANCH  11  12
ATOM     12  C   UNL     1      49.895   6.413  16.394  0.00  0.00    +0.000 A 
ATOM     13  C   UNL     1      51.200   6.194  16.807  0.00  0.00    +0.000 A 
ATOM     14  N   UNL     1      51.266   4.915  17.294  0.00  0.00    +0.000 N 
ATOM     15  C   UNL     1      50.009   4.368  17.350  0.00  0.00    +0.000 A 
ATOM     16  C   UNL     1      49.590   3.082  17.658  0.00  0.00    +0.000 A 
ATOM     17  N   UNL     1      48.266   2.823  17.738  0.00  0.00    +0.000 NA
ATOM     18  C   UNL     1      47.388   3.826  17.512  0.00  0.00    +0.000 A 
ATOM     19  C   UNL     1      47.737   5.105  17.104  0.00  0.00    +0.000 A 
ATOM     20  C   UNL     1      49.109   5.369  16.988  0.00  0.00    +0.000 A 
ATOM     21  H   UNL     1      52.122   4.423  17.514  0.00  0.00    +0.000 HD
ENDBRANCH  11  12
ENDBRANCH   8  11
ENDBRANCH   7   8
ENDBRANCH   1   7
BRANCH   4  22
ATOM     22  C   UNL     1      44.166   3.534  11.641  0.00  0.00    +0.000 C 
BRANCH  22  23
ATOM     23  N   UNL     1      44.713   2.509  10.731  0.00  0.00    +0.000 NA
ATOM     24  H   UNL     1      44.229   1.635  10.962  0.00  0.00    +0.000 HD
BRANCH  23  25
ATOM     25  C   UNL     1      44.404   2.810   9.324  0.00  0.00    +0.000 C 
BRANCH  25  26
ATOM     26  C   UNL     1      45.549   2.480   8.393  0.00  0.00    +0.000 A 
ATOM     27  C   UNL     1      46.110   3.460   7.577  0.00  0.00    +0.000 A 
ATOM     28  C   UNL     1      47.159   3.112   6.730  0.00  0.00    +0.000 A 
ATOM     29  C   UNL     1      47.628   1.807   6.717  0.00  0.00    +0.000 A 
ATOM     30  C   UNL     1      47.025   0.890   7.558  0.00  0.00    +0.000 A 
ATOM     31  N   UNL     1      46.003   1.202   8.387  0.00  0.00    +0.000 NA
ENDBRANCH  25  26
ENDBRANCH  23  25
ENDBRANCH  22  23
ENDBRANCH   4  22
TORSDOF 8
ENDMDL
MODEL 3
REMARK VINA RESULT:    -7.333      2.141      2.728
REMARK INTER + INTRA:         -11.627
REMARK INTER:                 -10.597
REMARK INTRA:                  -1.030
REMARK UNBOUND:                -0.864
REMARK  Name = 
REMARK  9 active torsions:
REMARK  status: ('A' for Active; 'I' for Inactive)
REMARK    1  A    between atoms: C_1  and  C_2
REMARK    2  A    between atoms: C_2  and  N_3
REMARK    3  A    between atoms: C_2  and  C_20
REMARK    4  A    between atoms: N_3  and  C_4
REMARK    5  A    between atoms: C_4  and  C_5
REMARK    6  A    between atoms: C_8  and  C_9
REMARK    7  A    between atoms: C_9  and  N_10
REMARK    8  A    between atoms: N_10  and  C_11
REMARK    9  A    between atoms: C_11  and  C_12
REMARK                            x       y       z     vdW  Elec       q    Type
REMARK                         _______ _______ _______ _____ _____    ______ ____
ROOT
ATOM      1  C   UNL     1      47.394   6.772  13.158  0.00  0.00    +0.000 A 
ATOM      2  C   UNL     1      46.272   7.520  12.778  0.00  0.00    +0.000 A 
ATOM      3  C   UNL     1      45.038   6.887  12.622  0.00  0.00    +0.000 A 
ATOM      4  C   UNL     1      44.952   5.515  12.844  0.00  0.00    +0.000 A 
ATOM      5  N   UNL     1      46.037   4.762  13.153  0.00  0.00    +0.000 NA
ATOM      6  C   UNL     1      47.223   5.401  13.296  0.00  0.00    +0.000 A 
ENDROOT
BRANCH   1   7
ATOM      7  C   UNL     1      48.709   7.429  13.496  0.00  0.00    +0.000 C 
BRANCH   7   8
ATOM      8  N   UNL     1      49.572   6.595  14.340  0.00  0.00    +0.000 NA
ATOM      9  H   UNL     1      50.425   6.399  13.816  0.00  0.00    +0.000 HD
BRANCH   8  11
ATOM     10  C   UNL     1      51.167   8.178  15.444  0.00  0.00    +0.000 C 
ATOM     11  C   UNL     1      49.976   7.231  15.623  0.00  0.00    +0.000 C 
BRANCH  11  12
ATOM     12  C   UNL     1      50.180   6.123  16.632  0.00  0.00    +0.000 A 
ATOM     13  C   UNL     1      51.382   5.657  17.141  0.00  0.00    +0.000 A 
ATOM     14  N   UNL     1      51.193   4.350  17.508  0.00  0.00    +0.000 N 
ATOM     15  C   UNL     1      49.866   4.018  17.394  0.00  0.00    +0.000 A 
ATOM     16  C   UNL     1      49.219   2.800  17.537  0.00  0.00    +0.000 A 
ATOM     17  N   UNL     1      47.869   2.760  17.468  0.00  0.00    +0.000 NA
ATOM     18  C   UNL     1      47.190   3.910  17.259  0.00  0.00    +0.000 A 
ATOM     19  C   UNL     1      47.779   5.141  17.010  0.00  0.00    +0.000 A 
ATOM     20  C   UNL     1      49.179   5.181  17.047  0.00  0.00    +0.000 A 
ATOM     21  H   UNL     1      51.931   3.707  17.758  0.00  0.00    +0.000 HD
ENDBRANCH  11  12
ENDBRANCH   8  11
ENDBRANCH   7   8
ENDBRANCH   1   7
BRANCH   4  22
ATOM     22  C   UNL     1      43.609   4.809  12.817  0.00  0.00    +0.000 C 
BRANCH  22  23
ATOM     23  N   UNL     1      43.426   3.915  11.657  0.00  0.00    +0.000 NA
ATOM     24  H   UNL     1      42.439   3.641  11.661  0.00  0.00    +0.000 HD
BRANCH  23  25
ATOM     25  C   UNL     1      43.671   4.616  10.386  0.00  0.00    +0.000 C 
BRANCH  25  26
ATOM     26  C   UNL     1      44.579   3.838   9.458  0.00  0.00    +0.000 A 
ATOM     27  C   UNL     1      44.696   2.455   9.571  0.00  0.00    +0.000 A 
ATOM     28  C   UNL     1      45.547   1.778   8.701  0.00  0.00    +0.000 A 
ATOM     29  C   UNL     1      46.253   2.487   7.740  0.00  0.00    +0.000 A 
ATOM     30  C   UNL     1      46.082   3.857   7.685  0.00  0.00    +0.000 A 
ATOM     31  N   UNL     1      45.265   4.538   8.520  0.00  0.00    +0.000 NA
ENDBRANCH  25  26
ENDBRANCH  23  25
ENDBRANCH  22  23
ENDBRANCH   4  22
TORSDOF 8
ENDMDL
MODEL 4
REMARK VINA RESULT:    -7.196      2.083      2.897
REMARK INTER + INTRA:         -11.426
REMARK INTER:                 -10.492
REMARK INTRA:                  -0.935
REMARK UNBOUND:                -0.864
REMARK  Name = 
REMARK  9 active torsions:
REMARK  status: ('A' for Active; 'I' for Inactive)
REMARK    1  A    between atoms: C_1  and  C_2
REMARK    2  A    between atoms: C_2  and  N_3
REMARK    3  A    between atoms: C_2  and  C_20
REMARK    4  A    between atoms: N_3  and  C_4
REMARK    5  A    between atoms: C_4  and  C_5
REMARK    6  A    between atoms: C_8  and  C_9
REMARK    7  A    between atoms: C_9  and  N_10
REMARK    8  A    between atoms: N_10  and  C_11
REMARK    9  A    between atoms: C_11  and  C_12
REMARK                            x       y       z     vdW  Elec       q    Type
REMARK                         _______ _______ _______ _____ _____    ______ ____
ROOT
ATOM      1  C   UNL     1      47.014   5.815  13.278  0.00  0.00    +0.000 A 
ATOM      2  C   UNL     1      46.929   6.468  12.042  0.00  0.00    +0.000 A 
ATOM      3  C   UNL     1      45.866   6.188  11.182  0.00  0.00    +0.000 A 
ATOM      4  C   UNL     1      44.910   5.254  11.575  0.00  0.00    +0.000 A 
ATOM      5  N   UNL     1      45.006   4.566  12.739  0.00  0.00    +0.000 NA
ATOM      6  C   UNL     1      46.048   4.855  13.554  0.00  0.00    +0.000 A 
ENDROOT
BRANCH   1   7
ATOM      7  C   UNL     1      48.047   6.195  14.308  0.00  0.00    +0.000 C 
BRANCH   7   8
ATOM      8  N   UNL     1      47.715   5.732  15.660  0.00  0.00    +0.000 NA
ATOM      9  H   UNL     1      47.412   4.760  15.591  0.00  0.00    +0.000 HD
BRANCH   8  11
ATOM     10  C   UNL     1      49.102   4.412  17.273  0.00  0.00    +0.000 C 
ATOM     11  C   UNL     1      48.851   5.775  16.621  0.00  0.00    +0.000 C 
BRANCH  11  12
ATOM     12  C   UNL     1      48.586   6.912  17.583  0.00  0.00    +0.000 A 
ATOM     13  C   UNL     1      47.775   6.893  18.706  0.00  0.00    +0.000 A 
ATOM     14  N   UNL     1      47.343   8.176  18.922  0.00  0.00    +0.000 N 
ATOM     15  C   UNL     1      47.982   9.036  18.063  0.00  0.00    +0.000 A 
ATOM     16  C   UNL     1      47.795  10.390  17.828  0.00  0.00    +0.000 A 
ATOM     17  N   UNL     1      48.635  11.034  16.987  0.00  0.00    +0.000 NA
ATOM     18  C   UNL     1      49.632  10.337  16.398  0.00  0.00    +0.000 A 
ATOM     19  C   UNL     1      49.812   8.966  16.512  0.00  0.00    +0.000 A 
ATOM     20  C   UNL     1      48.923   8.289  17.357  0.00  0.00    +0.000 A 
ATOM     21  H   UNL     1      46.613   8.440  19.569  0.00  0.00    +0.000 HD
ENDBRANCH  11  12
ENDBRANCH   8  11
ENDBRANCH   7   8
ENDBRANCH   1   7
BRANCH   4  22
ATOM     22  C   UNL     1      43.669   5.017  10.734  0.00  0.00    +0.000 C 
BRANCH  22  23
ATOM     23  N   UNL     1      43.946   4.416   9.415  0.00  0.00    +0.000 NA
ATOM     24  H   UNL     1      44.748   4.925   9.031  0.00  0.00    +0.000 HD
BRANCH  23  25
ATOM     25  C   UNL     1      44.351   3.006   9.534  0.00  0.00    +0.000 C 
BRANCH  25  26
ATOM     26  C   UNL     1      45.428   2.624   8.543  0.00  0.00    +0.000 A 
ATOM     27  C   UNL     1      45.945   3.565   7.654  0.00  0.00    +0.000 A 
ATOM     28  C   UNL     1      46.931   3.171   6.754  0.00  0.00    +0.000 A 
ATOM     29  C   UNL     1      47.383   1.859   6.761  0.00  0.00    +0.000 A 
ATOM     30  C   UNL     1      46.827   0.983   7.675  0.00  0.00    +0.000 A 
ATOM     31  N   UNL     1      45.865   1.340   8.557  0.00  0.00    +0.000 NA
ENDBRANCH  25  26
ENDBRANCH  23  25
ENDBRANCH  22  23
ENDBRANCH   4  22
TORSDOF 8
ENDMDL
MODEL 5
REMARK VINA RESULT:    -7.194      1.700      2.218
REMARK INTER + INTRA:         -11.423
REMARK INTER:                 -10.710
REMARK INTRA:                  -0.713
REMARK UNBOUND:                -0.864
REMARK  Name = 
REMARK  9 active torsions:
REMARK  status: ('A' for Active; 'I' for Inactive)
REMARK    1  A    between atoms: C_1  and  C_2
REMARK    2  A    between atoms: C_2  and  N_3
REMARK    3  A    between atoms: C_2  and  C_20
REMARK    4  A    between atoms: N_3  and  C_4
REMARK    5  A    between atoms: C_4  and  C_5
REMARK    6  A    between atoms: C_8  and  C_9
REMARK    7  A    between atoms: C_9  and  N_10
REMARK    8  A    between atoms: N_10  and  C_11
REMARK    9  A    between atoms: C_11  and  C_12
REMARK                            x       y       z     vdW  Elec       q    Type
REMARK                         _______ _______ _______ _____ _____    ______ ____
ROOT
ATOM      1  C   UNL     1      47.080   5.681  13.436  0.00  0.00    +0.000 A 
ATOM      2  C   UNL     1      46.529   6.131  12.230  0.00  0.00    +0.000 A 
ATOM      3  C   UNL     1      45.552   5.370  11.587  0.00  0.00    +0.000 A 
ATOM      4  C   UNL     1      45.148   4.168  12.164  0.00  0.00    +0.000 A 
ATOM      5  N   UNL     1      45.711   3.684  13.298  0.00  0.00    +0.000 NA
ATOM      6  C   UNL     1      46.658   4.441  13.900  0.00  0.00    +0.000 A 
ENDROOT
BRANCH   1   7
ATOM      7  C   UNL     1      48.017   6.537  14.251  0.00  0.00    +0.000 C 
BRANCH   7   8
ATOM      8  N   UNL     1      48.403   5.922  15.525  0.00  0.00    +0.000 NA
ATOM      9  H   UNL     1      48.833   5.020  15.319  0.00  0.00    +0.000 HD
BRANCH   8  11
ATOM     10  C   UNL     1      50.409   5.814  17.019  0.00  0.00    +0.000 C 
ATOM     11  C   UNL     1      49.386   6.711  16.316  0.00  0.00    +0.000 C 
BRANCH  11  12
ATOM     12  C   UNL     1      48.602   7.631  17.225  0.00  0.00    +0.000 A 
ATOM     13  C   UNL     1      48.525   9.013  17.163  0.00  0.00    +0.000 A 
ATOM     14  N   UNL     1      48.252   9.466  18.427  0.00  0.00    +0.000 N 
ATOM     15  C   UNL     1      47.996   8.406  19.260  0.00  0.00    +0.000 A 
ATOM     16  C   UNL     1      47.790   8.356  20.631  0.00  0.00    +0.000 A 
ATOM     17  N   UNL     1      47.454   7.178  21.203  0.00  0.00    +0.000 NA
ATOM     18  C   UNL     1      47.333   6.082  20.422  0.00  0.00    +0.000 A 
ATOM     19  C   UNL     1      47.623   6.042  19.066  0.00  0.00    +0.000 A 
ATOM     20  C   UNL     1      48.003   7.255  18.474  0.00  0.00    +0.000 A 
ATOM     21  H   UNL     1      48.301  10.433  18.719  0.00  0.00    +0.000 HD
ENDBRANCH  11  12
ENDBRANCH   8  11
ENDBRANCH   7   8
ENDBRANCH   1   7
BRANCH   4  22
ATOM     22  C   UNL     1      43.997   3.376  11.573  0.00  0.00    +0.000 C 
BRANCH  22  23
ATOM     23  N   UNL     1      44.411   2.377  10.568  0.00  0.00    +0.000 NA
ATOM     24  H   UNL     1      43.707   1.632  10.600  0.00  0.00    +0.000 HD
BRANCH  23  25
ATOM     25  C   UNL     1      44.385   2.933   9.205  0.00  0.00    +0.000 C 
BRANCH  25  26
ATOM     26  C   UNL     1      45.545   2.455   8.360  0.00  0.00    +0.000 A 
ATOM     27  C   UNL     1      46.252   3.344   7.553  0.00  0.00    +0.000 A 
ATOM     28  C   UNL     1      47.310   2.863   6.786  0.00  0.00    +0.000 A 
ATOM     29  C   UNL     1      47.642   1.517   6.842  0.00  0.00    +0.000 A 
ATOM     30  C   UNL     1      46.898   0.696   7.670  0.00  0.00    +0.000 A 
ATOM     31  N   UNL     1      45.865   1.139   8.422  0.00  0.00    +0.000 NA
ENDBRANCH  25  26
ENDBRANCH  23  25
ENDBRANCH  22  23
ENDBRANCH   4  22
TORSDOF 8
ENDMDL
MODEL 6
REMARK VINA RESULT:    -7.190      4.000      6.477
REMARK INTER + INTRA:         -11.417
REMARK INTER:                 -10.569
REMARK INTRA:                  -0.848
REMARK UNBOUND:                -0.864
REMARK  Name = 
REMARK  9 active torsions:
REMARK  status: ('A' for Active; 'I' for Inactive)
REMARK    1  A    between atoms: C_1  and  C_2
REMARK    2  A    between atoms: C_2  and  N_3
REMARK    3  A    between atoms: C_2  and  C_20
REMARK    4  A    between atoms: N_3  and  C_4
REMARK    5  A    between atoms: C_4  and  C_5
REMARK    6  A    between atoms: C_8  and  C_9
REMARK    7  A    between atoms: C_9  and  N_10
REMARK    8  A    between atoms: N_10  and  C_11
REMARK    9  A    between atoms: C_11  and  C_12
REMARK                            x       y       z     vdW  Elec       q    Type
REMARK                         _______ _______ _______ _____ _____    ______ ____
ROOT
ATOM      1  C   UNL     1      44.501   3.102   9.954  0.00  0.00    +0.000 A 
ATOM      2  C   UNL     1      44.763   4.273   9.232  0.00  0.00    +0.000 A 
ATOM      3  C   UNL     1      45.485   4.205   8.039  0.00  0.00    +0.000 A 
ATOM      4  C   UNL     1      45.934   2.964   7.594  0.00  0.00    +0.000 A 
ATOM      5  N   UNL     1      45.744   1.826   8.308  0.00  0.00    +0.000 NA
ATOM      6  C   UNL     1      45.043   1.921   9.462  0.00  0.00    +0.000 A 
ENDROOT
BRANCH   1   7
ATOM      7  C   UNL     1      43.593   3.098  11.158  0.00  0.00    +0.000 C 
BRANCH   7   8
ATOM      8  N   UNL     1      44.321   3.066  12.431  0.00  0.00    +0.000 NA
ATOM      9  H   UNL     1      45.316   2.997  12.220  0.00  0.00    +0.000 HD
BRANCH   8  11
ATOM     10  C   UNL     1      42.845   5.028  12.922  0.00  0.00    +0.000 C 
ATOM     11  C   UNL     1      44.131   4.275  13.278  0.00  0.00    +0.000 C 
BRANCH  11  12
ATOM     12  C   UNL     1      45.402   5.092  13.191  0.00  0.00    +0.000 A 
ATOM     13  C   UNL     1      46.592   4.870  13.864  0.00  0.00    +0.000 A 
ATOM     14  N   UNL     1      47.225   6.080  13.988  0.00  0.00    +0.000 N 
ATOM     15  C   UNL     1      46.548   7.038  13.275  0.00  0.00    +0.000 A 
ATOM     16  C   UNL     1      46.733   8.410  13.193  0.00  0.00    +0.000 A 
ATOM     17  N   UNL     1      45.979   9.125  12.329  0.00  0.00    +0.000 NA
ATOM     18  C   UNL     1      45.063   8.481  11.571  0.00  0.00    +0.000 A 
ATOM     19  C   UNL     1      44.760   7.132  11.676  0.00  0.00    +0.000 A 
ATOM     20  C   UNL     1      45.517   6.392  12.594  0.00  0.00    +0.000 A 
ATOM     21  H   UNL     1      48.030   6.255  14.573  0.00  0.00    +0.000 HD
ENDBRANCH  11  12
ENDBRANCH   8  11
ENDBRANCH   7   8
ENDBRANCH   1   7
BRANCH   4  22
ATOM     22  C   UNL     1      46.604   2.824   6.240  0.00  0.00    +0.000 C 
BRANCH  22  23
ATOM     23  N   UNL     1      47.202   1.496   6.002  0.00  0.00    +0.000 NA
ATOM     24  H   UNL     1      46.437   0.819   6.083  0.00  0.00    +0.000 HD
BRANCH  23  25
ATOM     25  C   UNL     1      47.736   1.377   4.635  0.00  0.00    +0.000 C 
BRANCH  25  26
ATOM     26  C   UNL     1      46.827   0.584   3.723  0.00  0.00    +0.000 A 
ATOM     27  C   UNL     1      46.959  -0.799   3.613  0.00  0.00    +0.000 A 
ATOM     28  C   UNL     1      46.105  -1.491   2.757  0.00  0.00    +0.000 A 
ATOM     29  C   UNL     1      45.142  -0.797   2.038  0.00  0.00    +0.000 A 
ATOM     30  C   UNL     1      45.068   0.573   2.203  0.00  0.00    +0.000 A 
ATOM     31  N   UNL     1      45.887   1.269   3.024  0.00  0.00    +0.000 NA
ENDBRANCH  25  26
ENDBRANCH  23  25
ENDBRANCH  22  23
ENDBRANCH   4  22
TORSDOF 8
ENDMDL
MODEL 7
REMARK VINA RESULT:    -7.146      2.021      9.307
REMARK INTER + INTRA:         -11.353
REMARK INTER:                 -10.470
REMARK INTRA:                  -0.883
REMARK UNBOUND:                -0.864
REMARK  Name = 
REMARK  9 active torsions:
REMARK  status: ('A' for Active; 'I' for Inactive)
REMARK    1  A    between atoms: C_1  and  C_2
REMARK    2  A    between atoms: C_2  and  N_3
REMARK    3  A    between atoms: C_2  and  C_20
REMARK    4  A    between atoms: N_3  and  C_4
REMARK    5  A    between atoms: C_4  and  C_5
REMARK    6  A    between atoms: C_8  and  C_9
REMARK    7  A    between atoms: C_9  and  N_10
REMARK    8  A    between atoms: N_10  and  C_11
REMARK    9  A    between atoms: C_11  and  C_12
REMARK                            x       y       z     vdW  Elec       q    Type
REMARK                         _______ _______ _______ _____ _____    ______ ____
ROOT
ATOM      1  C   UNL     1      47.870   7.114  12.446  0.00  0.00    +0.000 A 
ATOM      2  C   UNL     1      49.013   7.890  12.217  0.00  0.00    +0.000 A 
ATOM      3  C   UNL     1      49.969   8.030  13.224  0.00  0.00    +0.000 A 
ATOM      4  C   UNL     1      49.759   7.392  14.444  0.00  0.00    +0.000 A 
ATOM      5  N   UNL     1      48.632   6.686  14.709  0.00  0.00    +0.000 NA
ATOM      6  C   UNL     1      47.719   6.569  13.715  0.00  0.00    +0.000 A 
ENDROOT
BRANCH   1   7
ATOM      7  C   UNL     1      46.889   6.799  11.344  0.00  0.00    +0.000 C 
BRANCH   7   8
ATOM      8  N   UNL     1      46.191   5.524  11.538  0.00  0.00    +0.000 NA
ATOM      9  H   UNL     1      46.256   5.279  12.526  0.00  0.00    +0.000 HD
BRANCH   8  11
ATOM     10  C   UNL     1      43.864   5.865  12.395  0.00  0.00    +0.000 C 
ATOM     11  C   UNL     1      44.746   5.554  11.183  0.00  0.00    +0.000 C 
BRANCH  11  12
ATOM     12  C   UNL     1      44.429   4.258  10.469  0.00  0.00    +0.000 A 
ATOM     13  C   UNL     1      43.692   3.189  10.952  0.00  0.00    +0.000 A 
ATOM     14  N   UNL     1      44.132   2.063  10.306  0.00  0.00    +0.000 N 
ATOM     15  C   UNL     1      45.016   2.406   9.314  0.00  0.00    +0.000 A 
ATOM     16  C   UNL     1      45.800   1.620   8.484  0.00  0.00    +0.000 A 
ATOM     17  N   UNL     1      46.523   2.212   7.507  0.00  0.00    +0.000 NA
ATOM     18  C   UNL     1      46.462   3.555   7.370  0.00  0.00    +0.000 A 
ATOM     19  C   UNL     1      45.778   4.406   8.227  0.00  0.00    +0.000 A 
ATOM     20  C   UNL     1      45.053   3.799   9.261  0.00  0.00    +0.000 A 
ATOM     21  H   UNL     1      43.895   1.116  10.568  0.00  0.00    +0.000 HD
ENDBRANCH  11  12
ENDBRANCH   8  11
ENDBRANCH   7   8
ENDBRANCH   1   7
BRANCH   4  22
ATOM     22  C   UNL     1      50.831   7.406  15.518  0.00  0.00    +0.000 C 
BRANCH  22  23
ATOM     23  N   UNL     1      51.246   6.063  15.968  0.00  0.00    +0.000 NA
ATOM     24  H   UNL     1      52.270   6.073  15.991  0.00  0.00    +0.000 HD
BRANCH  23  25
ATOM     25  C   UNL     1      50.790   5.784  17.339  0.00  0.00    +0.000 C 
BRANCH  25  26
ATOM     26  C   UNL     1      49.581   4.874  17.377  0.00  0.00    +0.000 A 
ATOM     27  C   UNL     1      48.342   5.353  17.797  0.00  0.00    +0.000 A 
ATOM     28  C   UNL     1      47.256   4.481  17.822  0.00  0.00    +0.000 A 
ATOM     29  C   UNL     1      47.426   3.162  17.426  0.00  0.00    +0.000 A 
ATOM     30  C   UNL     1      48.684   2.760  17.017  0.00  0.00    +0.000 A 
ATOM     31  N   UNL     1      49.754   3.586  16.987  0.00  0.00    +0.000 NA
ENDBRANCH  25  26
ENDBRANCH  23  25
ENDBRANCH  22  23
ENDBRANCH   4  22
TORSDOF 8
ENDMDL
MODEL 8
REMARK VINA RESULT:    -6.712      3.974      5.629
REMARK INTER + INTRA:         -10.715
REMARK INTER:                  -9.937
REMARK INTRA:                  -0.778
REMARK UNBOUND:                -0.864
REMARK  Name = 
REMARK  9 active torsions:
REMARK  status: ('A' for Active; 'I' for Inactive)
REMARK    1  A    between atoms: C_1  and  C_2
REMARK    2  A    between atoms: C_2  and  N_3
REMARK    3  A    between atoms: C_2  and  C_20
REMARK    4  A    between atoms: N_3  and  C_4
REMARK    5  A    between atoms: C_4  and  C_5
REMARK    6  A    between atoms: C_8  and  C_9
REMARK    7  A    between atoms: C_9  and  N_10
REMARK    8  A    between atoms: N_10  and  C_11
REMARK    9  A    between atoms: C_11  and  C_12
REMARK                            x       y       z     vdW  Elec       q    Type
REMARK                         _______ _______ _______ _____ _____    ______ ____
ROOT
ATOM      1  C   UNL     1      47.258   6.083  13.130  0.00  0.00    +0.000 A 
ATOM      2  C   UNL     1      46.679   5.025  13.840  0.00  0.00    +0.000 A 
ATOM      3  C   UNL     1      45.672   4.261  13.249  0.00  0.00    +0.000 A 
ATOM      4  C   UNL     1      45.260   4.576  11.956  0.00  0.00    +0.000 A 
ATOM      5  N   UNL     1      45.764   5.634  11.273  0.00  0.00    +0.000 NA
ATOM      6  C   UNL     1      46.738   6.360  11.872  0.00  0.00    +0.000 A 
ENDROOT
BRANCH   1   7
ATOM      7  C   UNL     1      48.455   6.835  13.657  0.00  0.00    +0.000 C 
BRANCH   7   8
ATOM      8  N   UNL     1      49.561   6.910  12.697  0.00  0.00    +0.000 NA
ATOM      9  H   UNL     1      49.247   6.482  11.826  0.00  0.00    +0.000 HD
BRANCH   8  11
ATOM     10  C   UNL     1      48.920   9.086  11.637  0.00  0.00    +0.000 C 
ATOM     11  C   UNL     1      50.003   8.294  12.376  0.00  0.00    +0.000 C 
BRANCH  11  12
ATOM     12  C   UNL     1      51.330   8.190  11.657  0.00  0.00    +0.000 A 
ATOM     13  C   UNL     1      51.625   7.424  10.541  0.00  0.00    +0.000 A 
ATOM     14  N   UNL     1      52.966   7.141  10.580  0.00  0.00    +0.000 N 
ATOM     15  C   UNL     1      53.562   7.836  11.603  0.00  0.00    +0.000 A 
ATOM     16  C   UNL     1      54.855   7.787  12.101  0.00  0.00    +0.000 A 
ATOM     17  N   UNL     1      55.221   8.660  13.067  0.00  0.00    +0.000 NA
ATOM     18  C   UNL     1      54.313   9.553  13.520  0.00  0.00    +0.000 A 
ATOM     19  C   UNL     1      52.981   9.589  13.136  0.00  0.00    +0.000 A 
ATOM     20  C   UNL     1      52.588   8.664  12.159  0.00  0.00    +0.000 A 
ATOM     21  H   UNL     1      53.433   6.468   9.988  0.00  0.00    +0.000 HD
ENDBRANCH  11  12
ENDBRANCH   8  11
ENDBRANCH   7   8
ENDBRANCH   1   7
BRANCH   4  22
ATOM     22  C   UNL     1      44.266   3.694  11.224  0.00  0.00    +0.000 C 
BRANCH  22  23
ATOM     23  N   UNL     1      44.842   2.432  10.720  0.00  0.00    +0.000 NA
ATOM     24  H   UNL     1      44.444   1.685  11.298  0.00  0.00    +0.000 HD
BRANCH  23  25
ATOM     25  C   UNL     1      44.433   2.164   9.332  0.00  0.00    +0.000 C 
BRANCH  25  26
ATOM     26  C   UNL     1      45.591   2.231   8.361  0.00  0.00    +0.000 A 
ATOM     27  C   UNL     1      45.921   3.428   7.727  0.00  0.00    +0.000 A 
ATOM     28  C   UNL     1      46.991   3.445   6.835  0.00  0.00    +0.000 A 
ATOM     29  C   UNL     1      47.708   2.281   6.600  0.00  0.00    +0.000 A 
ATOM     30  C   UNL     1      47.326   1.133   7.270  0.00  0.00    +0.000 A 
ATOM     31  N   UNL     1      46.289   1.090   8.137  0.00  0.00    +0.000 NA
ENDBRANCH  25  26
ENDBRANCH  23  25
ENDBRANCH  22  23
ENDBRANCH   4  22
TORSDOF 8
ENDMDL
MODEL 9
REMARK VINA RESULT:    -6.669      2.901      4.187
REMARK INTER + INTRA:         -10.652
REMARK INTER:                 -10.112
REMARK INTRA:                  -0.540
REMARK UNBOUND:                -0.864
REMARK  Name = 
REMARK  9 active torsions:
REMARK  status: ('A' for Active; 'I' for Inactive)
REMARK    1  A    between atoms: C_1  and  C_2
REMARK    2  A    between atoms: C_2  and  N_3
REMARK    3  A    between atoms: C_2  and  C_20
REMARK    4  A    between atoms: N_3  and  C_4
REMARK    5  A    between atoms: C_4  and  C_5
REMARK    6  A    between atoms: C_8  and  C_9
REMARK    7  A    between atoms: C_9  and  N_10
REMARK    8  A    between atoms: N_10  and  C_11
REMARK    9  A    between atoms: C_11  and  C_12
REMARK                            x       y       z     vdW  Elec       q    Type
REMARK                         _______ _______ _______ _____ _____    ______ ____
ROOT
ATOM      1  C   UNL     1      45.157   6.769  12.346  0.00  0.00    +0.000 A 
ATOM      2  C   UNL     1      44.094   6.657  11.441  0.00  0.00    +0.000 A 
ATOM      3  C   UNL     1      43.650   5.394  11.045  0.00  0.00    +0.000 A 
ATOM      4  C   UNL     1      44.284   4.266  11.560  0.00  0.00    +0.000 A 
ATOM      5  N   UNL     1      45.354   4.352  12.390  0.00  0.00    +0.000 NA
ATOM      6  C   UNL     1      45.765   5.589  12.756  0.00  0.00    +0.000 A 
ENDROOT
BRANCH   1   7
ATOM      7  C   UNL     1      45.569   8.097  12.929  0.00  0.00    +0.000 C 
BRANCH   7   8
ATOM      8  N   UNL     1      46.061   9.043  11.922  0.00  0.00    +0.000 NA
ATOM      9  H   UNL     1      45.295   9.672  11.683  0.00  0.00    +0.000 HD
BRANCH   8  11
ATOM     10  C   UNL     1      47.559  10.966  11.351  0.00  0.00    +0.000 C 
ATOM     11  C   UNL     1      47.201   9.886  12.376  0.00  0.00    +0.000 C 
BRANCH  11  12
ATOM     12  C   UNL     1      48.331   8.954  12.753  0.00  0.00    +0.000 A 
ATOM     13  C   UNL     1      48.881   7.942  11.982  0.00  0.00    +0.000 A 
ATOM     14  N   UNL     1      49.399   7.008  12.841  0.00  0.00    +0.000 N 
ATOM     15  C   UNL     1      49.336   7.471  14.132  0.00  0.00    +0.000 A 
ATOM     16  C   UNL     1      49.625   6.847  15.336  0.00  0.00    +0.000 A 
ATOM     17  N   UNL     1      49.573   7.567  16.479  0.00  0.00    +0.000 NA
ATOM     18  C   UNL     1      49.237   8.875  16.414  0.00  0.00    +0.000 A 
ATOM     19  C   UNL     1      48.840   9.532  15.258  0.00  0.00    +0.000 A 
ATOM     20  C   UNL     1      48.861   8.781  14.075  0.00  0.00    +0.000 A 
ATOM     21  H   UNL     1      49.716   6.087  12.571  0.00  0.00    +0.000 HD
ENDBRANCH  11  12
ENDBRANCH   8  11
ENDBRANCH   7   8
ENDBRANCH   1   7
BRANCH   4  22
ATOM     22  C   UNL     1      43.751   2.877  11.264  0.00  0.00    +0.000 C 
BRANCH  22  23
ATOM     23  N   UNL     1      44.314   2.268  10.043  0.00  0.00    +0.000 NA
ATOM     24  H   UNL     1      43.514   1.958   9.483  0.00  0.00    +0.000 HD
BRANCH  23  25
ATOM     25  C   UNL     1      45.048   3.254   9.232  0.00  0.00    +0.000 C 
BRANCH  25  26
ATOM     26  C   UNL     1      45.862   2.611   8.131  0.00  0.00    +0.000 A 
ATOM     27  C   UNL     1      46.163   3.312   6.965  0.00  0.00    +0.000 A 
ATOM     28  C   UNL     1      46.911   2.681   5.974  0.00  0.00    +0.000 A 
ATOM     29  C   UNL     1      47.345   1.377   6.165  0.00  0.00    +0.000 A 
ATOM     30  C   UNL     1      47.012   0.747   7.351  0.00  0.00    +0.000 A 
ATOM     31  N   UNL     1      46.284   1.337   8.327  0.00  0.00    +0.000 NA
ENDBRANCH  25  26
ENDBRANCH  23  25
ENDBRANCH  22  23
ENDBRANCH   4  22
TORSDOF 8
ENDMDL
