MODEL 1
REMARK VINA RESULT:    -7.917      0.000      0.000
REMARK INTER + INTRA:         -11.301
REMARK INTER:                 -10.232
REMARK INTRA:                  -1.069
REMARK UNBOUND:                -1.069
REMARK  Name = 
REMARK  5 active torsions:
REMARK  status: ('A' for Active; 'I' for Inactive)
REMARK    1  A    between atoms: C_2  and  C_3
REMARK    2  A    between atoms: C_8  and  C_9
REMARK    3  A    between atoms: C_9  and  C_10
REMARK    4  A    between atoms: C_10  and  C_11
REMARK    5  A    between atoms: C_15  and  C_16
REMARK                            x       y       z     vdW  Elec       q    Type
REMARK                         _______ _______ _______ _____ _____    ______ ____
ROOT
ATOM      1  C   UNL     1      44.252   5.330  11.188  0.00  0.00    +0.000 A 
ATOM      2  C   UNL     1      43.377   4.544  11.932  0.00  0.00    +0.000 A 
ATOM      3  C   UNL     1      43.259   3.189  11.629  0.00  0.00    +0.000 A 
ATOM      4  C   UNL     1      43.999   2.657  10.582  0.00  0.00    +0.000 A 
ATOM      5  C   UNL     1      44.849   3.491   9.860  0.00  0.00    +0.000 A 
ATOM      6  N   UNL     1      44.973   4.812  10.161  0.00  0.00    +0.000 NA
ENDROOT
BRANCH   5   7
ATOM      7  C   UNL     1      45.628   3.011   8.700  0.00  0.00    +0.000 A 
ATOM      8  C   UNL     1      46.033   3.898   7.683  0.00  0.00    +0.000 A 
ATOM      9  C   UNL     1      46.711   3.447   6.544  0.00  0.00    +0.000 A 
ATOM     10  C   UNL     1      47.007   2.095   6.407  0.00  0.00    +0.000 A 
ATOM     11  C   UNL     1      46.642   1.214   7.414  0.00  0.00    +0.000 A 
ATOM     12  F   UNL     1      46.928  -0.088   7.291  0.00  0.00    +0.000 F 
ATOM     13  C   UNL     1      45.970   1.657   8.551  0.00  0.00    +0.000 A 
ENDBRANCH   5   7
BRANCH   1  14
ATOM     14  C   UNL     1      44.419   6.821  11.409  0.00  0.00    +0.000 C 
BRANCH  14  15
ATOM     15  C   UNL     1      45.091   7.225  12.728  0.00  0.00    +0.000 C 
BRANCH  15  21
ATOM     16  C   UNL     1      47.408   6.137  13.089  0.00  0.00    +0.000 A 
ATOM     17  N   UNL     1      48.765   6.138  12.982  0.00  0.00    +0.000 NA
ATOM     18  C   UNL     1      49.356   7.240  12.476  0.00  0.00    +0.000 A 
ATOM     19  C   UNL     1      48.655   8.360  12.074  0.00  0.00    +0.000 A 
ATOM     20  C   UNL     1      47.268   8.345  12.186  0.00  0.00    +0.000 A 
ATOM     21  C   UNL     1      46.606   7.214  12.693  0.00  0.00    +0.000 A 
BRANCH  16  23
ATOM     22  N   UNL     1      46.461   3.915  14.066  0.00  0.00    +0.000 NA
ATOM     23  C   UNL     1      46.882   4.903  13.631  0.00  0.00    +0.000 C 
ENDBRANCH  16  23
ENDBRANCH  15  21
ENDBRANCH  14  15
ENDBRANCH   1  14
TORSDOF 5
ENDMDL
MODEL 2
REMARK VINA RESULT:    -7.367      1.453      1.882
REMARK INTER + INTRA:         -10.589
REMARK INTER:                  -9.672
REMARK INTRA:                  -0.917
REMARK UNBOUND:                -1.069
REMARK  Name = 
REMARK  5 active torsions:
REMARK  status: ('A' for Active; 'I' for Inactive)
REMARK    1  A    between atoms: C_2  and  C_3
REMARK    2  A    between atoms: C_8  and  C_9
REMARK    3  A    between atoms: C_9  and  C_10
REMARK    4  A    between atoms: C_10  and  C_11
REMARK    5  A    between atoms: C_15  and  C_16
REMARK                            x       y       z     vdW  Elec       q    Type
REMARK                         _______ _______ _______ _____ _____    ______ ____
ROOT
ATOM      1  C   UNL     1      45.172   6.230  11.410  0.00  0.00    +0.000 A 
ATOM      2  C   UNL     1      43.817   6.172  11.721  0.00  0.00    +0.000 A 
ATOM      3  C   UNL     1      43.019   5.216  11.098  0.00  0.00    +0.000 A 
ATOM      4  C   UNL     1      43.584   4.357  10.165  0.00  0.00    +0.000 A 
ATOM      5  C   UNL     1      44.942   4.468   9.878  0.00  0.00    +0.000 A 
ATOM      6  N   UNL     1      45.726   5.394  10.494  0.00  0.00    +0.000 NA
ENDROOT
BRANCH   5   7
ATOM      7  C   UNL     1      45.606   3.627   8.862  0.00  0.00    +0.000 A 
ATOM      8  C   UNL     1      46.222   4.204   7.734  0.00  0.00    +0.000 A 
ATOM      9  C   UNL     1      46.794   3.417   6.727  0.00  0.00    +0.000 A 
ATOM     10  C   UNL     1      46.767   2.031   6.836  0.00  0.00    +0.000 A 
ATOM     11  C   UNL     1      46.190   1.447   7.954  0.00  0.00    +0.000 A 
ATOM     12  F   UNL     1      46.165   0.114   8.067  0.00  0.00    +0.000 F 
ATOM     13  C   UNL     1      45.624   2.225   8.961  0.00  0.00    +0.000 A 
ENDBRANCH   5   7
BRANCH   1  14
ATOM     14  C   UNL     1      46.115   7.261  11.998  0.00  0.00    +0.000 C 
BRANCH  14  15
ATOM     15  C   UNL     1      47.556   6.786  12.232  0.00  0.00    +0.000 C 
BRANCH  15  21
ATOM     16  C   UNL     1      47.601   5.328  14.366  0.00  0.00    +0.000 A 
ATOM     17  N   UNL     1      47.984   5.091  15.651  0.00  0.00    +0.000 NA
ATOM     18  C   UNL     1      48.682   6.054  16.288  0.00  0.00    +0.000 A 
ATOM     19  C   UNL     1      49.013   7.262  15.705  0.00  0.00    +0.000 A 
ATOM     20  C   UNL     1      48.617   7.491  14.391  0.00  0.00    +0.000 A 
ATOM     21  C   UNL     1      47.902   6.512  13.681  0.00  0.00    +0.000 A 
BRANCH  16  23
ATOM     22  N   UNL     1      46.289   3.341  13.309  0.00  0.00    +0.000 NA
ATOM     23  C   UNL     1      46.872   4.225  13.778  0.00  0.00    +0.000 C 
ENDBRANCH  16  23
ENDBRANCH  15  21
ENDBRANCH  14  15
ENDBRANCH   1  14
TORSDOF 5
ENDMDL
MODEL 3
REMARK VINA RESULT:    -6.936      1.972      2.689
REMARK INTER + INTRA:         -10.033
REMARK INTER:                  -9.332
REMARK INTRA:                  -0.701
REMARK UNBOUND:                -1.069
REMARK  Name = 
REMARK  5 active torsions:
REMARK  status: ('A' for Active; 'I' for Inactive)
REMARK    1  A    between atoms: C_2  and  C_3
REMARK    2  A    between atoms: C_8  and  C_9
REMARK    3  A    between atoms: C_9  and  C_10
REMARK    4  A    between atoms: C_10  and  C_11
REMARK    5  A    between atoms: C_15  and  C_16
REMARK                            x       y       z     vdW  Elec       q    Type
REMARK                         _______ _______ _______ _____ _____    ______ ____
ROOT
ATOM      1  C   UNL     1      44.488   5.092  10.909  0.00  0.00    +0.000 A 
ATOM      2  C   UNL     1      43.597   4.353  11.680  0.00  0.00    +0.000 A 
ATOM      3  C   UNL     1      43.408   3.004  11.393  0.00  0.00    +0.000 A 
ATOM      4  C   UNL     1      44.095   2.430  10.331  0.00  0.00    +0.000 A 
ATOM      5  C   UNL     1      44.965   3.218   9.581  0.00  0.00    +0.000 A 
ATOM      6  N   UNL     1      45.157   4.534   9.868  0.00  0.00    +0.000 NA
ENDROOT
BRANCH   5   7
ATOM      7  C   UNL     1      45.691   2.695   8.407  0.00  0.00    +0.000 A 
ATOM      8  C   UNL     1      46.175   1.372   8.385  0.00  0.00    +0.000 A 
ATOM      9  C   UNL     1      46.924   0.883   7.308  0.00  0.00    +0.000 A 
ATOM     10  C   UNL     1      47.197   1.710   6.224  0.00  0.00    +0.000 A 
ATOM     11  C   UNL     1      46.702   3.006   6.217  0.00  0.00    +0.000 A 
ATOM     12  F   UNL     1      46.956   3.806   5.174  0.00  0.00    +0.000 F 
ATOM     13  C   UNL     1      45.952   3.496   7.283  0.00  0.00    +0.000 A 
ENDBRANCH   5   7
BRANCH   1  14
ATOM     14  C   UNL     1      44.729   6.576  11.113  0.00  0.00    +0.000 C 
BRANCH  14  15
ATOM     15  C   UNL     1      45.543   6.950  12.359  0.00  0.00    +0.000 C 
BRANCH  15  21
ATOM     16  C   UNL     1      46.651   9.255  11.981  0.00  0.00    +0.000 A 
ATOM     17  N   UNL     1      47.743  10.048  11.803  0.00  0.00    +0.000 NA
ATOM     18  C   UNL     1      48.949   9.449  11.721  0.00  0.00    +0.000 A 
ATOM     19  C   UNL     1      49.124   8.081  11.800  0.00  0.00    +0.000 A 
ATOM     20  C   UNL     1      48.000   7.282  11.984  0.00  0.00    +0.000 A 
ATOM     21  C   UNL     1      46.724   7.861  12.090  0.00  0.00    +0.000 A 
BRANCH  16  23
ATOM     22  N   UNL     1      44.424  10.599  12.137  0.00  0.00    +0.000 NA
ATOM     23  C   UNL     1      45.415  10.002  12.067  0.00  0.00    +0.000 C 
ENDBRANCH  16  23
ENDBRANCH  15  21
ENDBRANCH  14  15
ENDBRANCH   1  14
TORSDOF 5
ENDMDL
MODEL 4
REMARK VINA RESULT:    -6.568      1.474      1.860
REMARK INTER + INTRA:          -9.557
REMARK INTER:                  -8.794
REMARK INTRA:                  -0.763
REMARK UNBOUND:                -1.069
REMARK  Name = 
REMARK  5 active torsions:
REMARK  status: ('A' for Active; 'I' for Inactive)
REMARK    1  A    between atoms: C_2  and  C_3
REMARK    2  A    between atoms: C_8  and  C_9
REMARK    3  A    between atoms: C_9  and  C_10
REMARK    4  A    between atoms: C_10  and  C_11
REMARK    5  A    between atoms: C_15  and  C_16
REMARK                            x       y       z     vdW  Elec       q    Type
REMARK                         _______ _______ _______ _____ _____    ______ ____
ROOT
ATOM      1  C   UNL     1      44.881   5.920  12.048  0.00  0.00    +0.000 A 
ATOM      2  C   UNL     1      43.548   5.717  12.394  0.00  0.00    +0.000 A 
ATOM      3  C   UNL     1      42.807   4.762  11.703  0.00  0.00    +0.000 A 
ATOM      4  C   UNL     1      43.404   4.048  10.673  0.00  0.00    +0.000 A 
ATOM      5  C   UNL     1      44.737   4.301  10.357  0.00  0.00    +0.000 A 
ATOM      6  N   UNL     1      45.465   5.227  11.038  0.00  0.00    +0.000 NA
ENDROOT
BRANCH   5   7
ATOM      7  C   UNL     1      45.427   3.621   9.242  0.00  0.00    +0.000 A 
ATOM      8  C   UNL     1      45.985   4.358   8.179  0.00  0.00    +0.000 A 
ATOM      9  C   UNL     1      46.580   3.725   7.081  0.00  0.00    +0.000 A 
ATOM     10  C   UNL     1      46.637   2.336   7.032  0.00  0.00    +0.000 A 
ATOM     11  C   UNL     1      46.120   1.597   8.085  0.00  0.00    +0.000 A 
ATOM     12  F   UNL     1      46.176   0.260   8.047  0.00  0.00    +0.000 F 
ATOM     13  C   UNL     1      45.529   2.221   9.182  0.00  0.00    +0.000 A 
ENDBRANCH   5   7
BRANCH   1  14
ATOM     14  C   UNL     1      45.758   6.967  12.707  0.00  0.00    +0.000 C 
BRANCH  14  15
ATOM     15  C   UNL     1      46.984   6.427  13.459  0.00  0.00    +0.000 C 
BRANCH  15  21
ATOM     16  C   UNL     1      49.344   7.314  14.028  0.00  0.00    +0.000 A 
ATOM     17  N   UNL     1      50.525   7.895  13.681  0.00  0.00    +0.000 NA
ATOM     18  C   UNL     1      50.666   8.320  12.407  0.00  0.00    +0.000 A 
ATOM     19  C   UNL     1      49.675   8.202  11.453  0.00  0.00    +0.000 A 
ATOM     20  C   UNL     1      48.474   7.604  11.821  0.00  0.00    +0.000 A 
ATOM     21  C   UNL     1      48.284   7.131  13.131  0.00  0.00    +0.000 A 
BRANCH  16  23
ATOM     22  N   UNL     1      49.276   6.543  16.516  0.00  0.00    +0.000 NA
ATOM     23  C   UNL     1      49.307   6.886  15.409  0.00  0.00    +0.000 C 
ENDBRANCH  16  23
ENDBRANCH  15  21
ENDBRANCH  14  15
ENDBRANCH   1  14
TORSDOF 5
ENDMDL
MODEL 5
REMARK VINA RESULT:    -6.537      2.462      3.187
REMARK INTER + INTRA:          -9.518
REMARK INTER:                  -8.791
REMARK INTRA:                  -0.727
REMARK UNBOUND:                -1.069
REMARK  Name = 
REMARK  5 active torsions:
REMARK  status: ('A' for Active; 'I' for Inactive)
REMARK    1  A    between atoms: C_2  and  C_3
REMARK    2  A    between atoms: C_8  and  C_9
REMARK    3  A    between atoms: C_9  and  C_10
REMARK    4  A    between atoms: C_10  and  C_11
REMARK    5  A    between atoms: C_15  and  C_16
REMARK                            x       y       z     vdW  Elec       q    Type
REMARK                         _______ _______ _______ _____ _____    ______ ____
ROOT
ATOM      1  C   UNL     1      45.088   5.988  11.890  0.00  0.00    +0.000 A 
ATOM      2  C   UNL     1      43.721   5.963  12.148  0.00  0.00    +0.000 A 
ATOM      3  C   UNL     1      42.906   5.112  11.405  0.00  0.00    +0.000 A 
ATOM      4  C   UNL     1      43.469   4.325  10.409  0.00  0.00    +0.000 A 
ATOM      5  C   UNL     1      44.841   4.400  10.181  0.00  0.00    +0.000 A 
ATOM      6  N   UNL     1      45.640   5.223  10.914  0.00  0.00    +0.000 NA
ENDROOT
BRANCH   5   7
ATOM      7  C   UNL     1      45.506   3.634   9.107  0.00  0.00    +0.000 A 
ATOM      8  C   UNL     1      46.108   4.291   8.015  0.00  0.00    +0.000 A 
ATOM      9  C   UNL     1      46.681   3.577   6.956  0.00  0.00    +0.000 A 
ATOM     10  C   UNL     1      46.669   2.186   6.974  0.00  0.00    +0.000 A 
ATOM     11  C   UNL     1      46.107   1.525   8.056  0.00  0.00    +0.000 A 
ATOM     12  F   UNL     1      46.098   0.187   8.083  0.00  0.00    +0.000 F 
ATOM     13  C   UNL     1      45.540   2.230   9.115  0.00  0.00    +0.000 A 
ENDBRANCH   5   7
BRANCH   1  14
ATOM     14  C   UNL     1      46.052   6.911  12.611  0.00  0.00    +0.000 C 
BRANCH  14  15
ATOM     15  C   UNL     1      45.528   8.326  12.896  0.00  0.00    +0.000 C 
BRANCH  15  21
ATOM     16  C   UNL     1      45.689  10.588  11.657  0.00  0.00    +0.000 A 
ATOM     17  N   UNL     1      46.403  11.592  11.077  0.00  0.00    +0.000 NA
ATOM     18  C   UNL     1      47.743  11.449  11.003  0.00  0.00    +0.000 A 
ATOM     19  C   UNL     1      48.416  10.339  11.474  0.00  0.00    +0.000 A 
ATOM     20  C   UNL     1      47.674   9.321  12.066  0.00  0.00    +0.000 A 
ATOM     21  C   UNL     1      46.278   9.431  12.181  0.00  0.00    +0.000 A 
BRANCH  16  23
ATOM     22  N   UNL     1      43.128  11.062  11.726  0.00  0.00    +0.000 NA
ATOM     23  C   UNL     1      44.267  10.852  11.694  0.00  0.00    +0.000 C 
ENDBRANCH  16  23
ENDBRANCH  15  21
ENDBRANCH  14  15
ENDBRANCH   1  14
TORSDOF 5
ENDMDL
MODEL 6
REMARK VINA RESULT:    -6.328      2.479      4.461
REMARK INTER + INTRA:          -9.247
REMARK INTER:                  -8.263
REMARK INTRA:                  -0.984
REMARK UNBOUND:                -1.069
REMARK  Name = 
REMARK  5 active torsions:
REMARK  status: ('A' for Active; 'I' for Inactive)
REMARK    1  A    between atoms: C_2  and  C_3
REMARK    2  A    between atoms: C_8  and  C_9
REMARK    3  A    between atoms: C_9  and  C_10
REMARK    4  A    between atoms: C_10  and  C_11
REMARK    5  A    between atoms: C_15  and  C_16
REMARK                            x       y       z     vdW  Elec       q    Type
REMARK                         _______ _______ _______ _____ _____    ______ ____
ROOT
ATOM      1  C   UNL     1      46.822   7.909  13.153  0.00  0.00    +0.000 A 
ATOM      2  C   UNL     1      46.165   9.116  12.937  0.00  0.00    +0.000 A 
ATOM      3  C   UNL     1      45.094   9.155  12.047  0.00  0.00    +0.000 A 
ATOM      4  C   UNL     1      44.720   7.998  11.379  0.00  0.00    +0.000 A 
ATOM      5  C   UNL     1      45.421   6.819  11.620  0.00  0.00    +0.000 A 
ATOM      6  N   UNL     1      46.461   6.777  12.498  0.00  0.00    +0.000 NA
ENDROOT
BRANCH   5   7
ATOM      7  C   UNL     1      45.117   5.560  10.911  0.00  0.00    +0.000 A 
ATOM      8  C   UNL     1      45.609   5.323   9.612  0.00  0.00    +0.000 A 
ATOM      9  C   UNL     1      45.273   4.165   8.900  0.00  0.00    +0.000 A 
ATOM     10  C   UNL     1      44.441   3.214   9.481  0.00  0.00    +0.000 A 
ATOM     11  C   UNL     1      43.973   3.418  10.771  0.00  0.00    +0.000 A 
ATOM     12  F   UNL     1      43.176   2.505  11.339  0.00  0.00    +0.000 F 
ATOM     13  C   UNL     1      44.307   4.566  11.485  0.00  0.00    +0.000 A 
ENDBRANCH   5   7
BRANCH   1  14
ATOM     14  C   UNL     1      48.025   7.772  14.067  0.00  0.00    +0.000 C 
BRANCH  14  15
ATOM     15  C   UNL     1      48.566   6.345  14.241  0.00  0.00    +0.000 C 
BRANCH  15  21
ATOM     16  C   UNL     1      47.418   4.442  15.562  0.00  0.00    +0.000 A 
ATOM     17  N   UNL     1      47.088   3.817  16.725  0.00  0.00    +0.000 NA
ATOM     18  C   UNL     1      47.454   4.407  17.882  0.00  0.00    +0.000 A 
ATOM     19  C   UNL     1      48.131   5.609  17.940  0.00  0.00    +0.000 A 
ATOM     20  C   UNL     1      48.463   6.237  16.744  0.00  0.00    +0.000 A 
ATOM     21  C   UNL     1      48.119   5.654  15.513  0.00  0.00    +0.000 A 
BRANCH  16  23
ATOM     22  N   UNL     1      46.645   3.135  13.445  0.00  0.00    +0.000 NA
ATOM     23  C   UNL     1      46.990   3.716  14.386  0.00  0.00    +0.000 C 
ENDBRANCH  16  23
ENDBRANCH  15  21
ENDBRANCH  14  15
ENDBRANCH   1  14
TORSDOF 5
ENDMDL
MODEL 7
REMARK VINA RESULT:    -6.317      1.668      2.712
REMARK INTER + INTRA:          -9.233
REMARK INTER:                  -8.446
REMARK INTRA:                  -0.786
REMARK UNBOUND:                -1.069
REMARK  Name = 
REMARK  5 active torsions:
REMARK  status: ('A' for Active; 'I' for Inactive)
REMARK    1  A    between atoms: C_2  and  C_3
REMARK    2  A    between atoms: C_8  and  C_9
REMARK    3  A    between atoms: C_9  and  C_10
REMARK    4  A    between atoms: C_10  and  C_11
REMARK    5  A    between atoms: C_15  and  C_16
REMARK                            x       y       z     vdW  Elec       q    Type
REMARK                         _______ _______ _______ _____ _____    ______ ____
ROOT
ATOM      1  C   UNL     1      45.091   5.460  12.642  0.00  0.00    +0.000 A 
ATOM      2  C   UNL     1      43.723   5.556  12.879  0.00  0.00    +0.000 A 
ATOM      3  C   UNL     1      42.836   4.962  11.984  0.00  0.00    +0.000 A 
ATOM      4  C   UNL     1      43.333   4.305  10.866  0.00  0.00    +0.000 A 
ATOM      5  C   UNL     1      44.710   4.251  10.668  0.00  0.00    +0.000 A 
ATOM      6  N   UNL     1      45.578   4.823  11.546  0.00  0.00    +0.000 NA
ENDROOT
BRANCH   5   7
ATOM      7  C   UNL     1      45.312   3.618   9.477  0.00  0.00    +0.000 A 
ATOM      8  C   UNL     1      45.777   4.396   8.399  0.00  0.00    +0.000 A 
ATOM      9  C   UNL     1      46.286   3.808   7.235  0.00  0.00    +0.000 A 
ATOM     10  C   UNL     1      46.349   2.422   7.132  0.00  0.00    +0.000 A 
ATOM     11  C   UNL     1      45.923   1.642   8.197  0.00  0.00    +0.000 A 
ATOM     12  F   UNL     1      45.985   0.308   8.107  0.00  0.00    +0.000 F 
ATOM     13  C   UNL     1      45.419   2.222   9.359  0.00  0.00    +0.000 A 
ENDBRANCH   5   7
BRANCH   1  14
ATOM     14  C   UNL     1      46.134   6.111  13.529  0.00  0.00    +0.000 C 
BRANCH  14  15
ATOM     15  C   UNL     1      47.331   6.735  12.798  0.00  0.00    +0.000 C 
BRANCH  15  21
ATOM     16  C   UNL     1      48.169   9.024  11.938  0.00  0.00    +0.000 A 
ATOM     17  N   UNL     1      47.959  10.313  11.556  0.00  0.00    +0.000 NA
ATOM     18  C   UNL     1      46.708  10.807  11.669  0.00  0.00    +0.000 A 
ATOM     19  C   UNL     1      45.644  10.075  12.159  0.00  0.00    +0.000 A 
ATOM     20  C   UNL     1      45.872   8.758  12.543  0.00  0.00    +0.000 A 
ATOM     21  C   UNL     1      47.154   8.193  12.430  0.00  0.00    +0.000 A 
BRANCH  16  23
ATOM     22  N   UNL     1      50.637   8.252  11.621  0.00  0.00    +0.000 NA
ATOM     23  C   UNL     1      49.540   8.596  11.762  0.00  0.00    +0.000 C 
ENDBRANCH  16  23
ENDBRANCH  15  21
ENDBRANCH  14  15
ENDBRANCH   1  14
TORSDOF 5
ENDMDL
MODEL 8
REMARK VINA RESULT:    -6.316      3.349      7.493
REMARK INTER + INTRA:          -9.231
REMARK INTER:                  -8.342
REMARK INTRA:                  -0.889
REMARK UNBOUND:                -1.069
REMARK  Name = 
REMARK  5 active torsions:
REMARK  status: ('A' for Active; 'I' for Inactive)
REMARK    1  A    between atoms: C_2  and  C_3
REMARK    2  A    between atoms: C_8  and  C_9
REMARK    3  A    between atoms: C_9  and  C_10
REMARK    4  A    between atoms: C_10  and  C_11
REMARK    5  A    between atoms: C_15  and  C_16
REMARK                            x       y       z     vdW  Elec       q    Type
REMARK                         _______ _______ _______ _____ _____    ______ ____
ROOT
ATOM      1  C   UNL     1      47.424   7.215  13.096  0.00  0.00    +0.000 A 
ATOM      2  C   UNL     1      48.452   8.103  12.796  0.00  0.00    +0.000 A 
ATOM      3  C   UNL     1      49.587   8.123  13.603  0.00  0.00    +0.000 A 
ATOM      4  C   UNL     1      49.660   7.276  14.700  0.00  0.00    +0.000 A 
ATOM      5  C   UNL     1      48.596   6.417  14.965  0.00  0.00    +0.000 A 
ATOM      6  N   UNL     1      47.491   6.388  14.171  0.00  0.00    +0.000 NA
ENDROOT
BRANCH   5   7
ATOM      7  C   UNL     1      48.576   5.524  16.141  0.00  0.00    +0.000 A 
ATOM      8  C   UNL     1      49.583   5.596  17.123  0.00  0.00    +0.000 A 
ATOM      9  C   UNL     1      49.616   4.711  18.207  0.00  0.00    +0.000 A 
ATOM     10  C   UNL     1      48.631   3.737  18.333  0.00  0.00    +0.000 A 
ATOM     11  C   UNL     1      47.616   3.671  17.390  0.00  0.00    +0.000 A 
ATOM     12  F   UNL     1      46.662   2.740  17.508  0.00  0.00    +0.000 F 
ATOM     13  C   UNL     1      47.576   4.552  16.313  0.00  0.00    +0.000 A 
ENDBRANCH   5   7
BRANCH   1  14
ATOM     14  C   UNL     1      46.130   7.147  12.307  0.00  0.00    +0.000 C 
BRANCH  14  15
ATOM     15  C   UNL     1      46.109   6.134  11.154  0.00  0.00    +0.000 C 
BRANCH  15  21
ATOM     16  C   UNL     1      44.699   4.148  10.288  0.00  0.00    +0.000 A 
ATOM     17  N   UNL     1      43.824   3.122  10.479  0.00  0.00    +0.000 NA
ATOM     18  C   UNL     1      43.307   2.958  11.715  0.00  0.00    +0.000 A 
ATOM     19  C   UNL     1      43.614   3.780  12.781  0.00  0.00    +0.000 A 
ATOM     20  C   UNL     1      44.510   4.823  12.573  0.00  0.00    +0.000 A 
ATOM     21  C   UNL     1      45.087   5.026  11.308  0.00  0.00    +0.000 A 
BRANCH  16  23
ATOM     22  N   UNL     1      45.600   4.281   7.847  0.00  0.00    +0.000 NA
ATOM     23  C   UNL     1      45.199   4.223   8.933  0.00  0.00    +0.000 C 
ENDBRANCH  16  23
ENDBRANCH  15  21
ENDBRANCH  14  15
ENDBRANCH   1  14
TORSDOF 5
ENDMDL
MODEL 9
REMARK VINA RESULT:    -6.265      1.659      2.613
REMARK INTER + INTRA:          -9.166
REMARK INTER:                  -8.442
REMARK INTRA:                  -0.723
REMARK UNBOUND:                -1.069
REMARK  Name = 
REMARK  5 active torsions:
REMARK  status: ('A' for Active; 'I' for Inactive)
REMARK    1  A    between atoms: C_2  and  C_3
REMARK    2  A    between atoms: C_8  and  C_9
REMARK    3  A    between atoms: C_9  and  C_10
REMARK    4  A    between atoms: C_10  and  C_11
REMARK    5  A    between atoms: C_15  and  C_16
REMARK                            x       y       z     vdW  Elec       q    Type
REMARK                         _______ _______ _______ _____ _____    ______ ____
ROOT
ATOM      1  C   UNL     1      45.019   5.850  12.084  0.00  0.00    +0.000 A 
ATOM      2  C   UNL     1      43.650   5.802  12.326  0.00  0.00    +0.000 A 
ATOM      3  C   UNL     1      42.849   4.988  11.530  0.00  0.00    +0.000 A 
ATOM      4  C   UNL     1      43.427   4.259  10.499  0.00  0.00    +0.000 A 
ATOM      5  C   UNL     1      44.801   4.355  10.290  0.00  0.00    +0.000 A 
ATOM      6  N   UNL     1      45.586   5.142  11.074  0.00  0.00    +0.000 NA
ENDROOT
BRANCH   5   7
ATOM      7  C   UNL     1      45.481   3.652   9.183  0.00  0.00    +0.000 A 
ATOM      8  C   UNL     1      46.046   4.368   8.109  0.00  0.00    +0.000 A 
ATOM      9  C   UNL     1      46.633   3.714   7.020  0.00  0.00    +0.000 A 
ATOM     10  C   UNL     1      46.675   2.324   6.989  0.00  0.00    +0.000 A 
ATOM     11  C   UNL     1      46.150   1.605   8.053  0.00  0.00    +0.000 A 
ATOM     12  F   UNL     1      46.191   0.267   8.033  0.00  0.00    +0.000 F 
ATOM     13  C   UNL     1      45.568   2.251   9.142  0.00  0.00    +0.000 A 
ENDBRANCH   5   7
BRANCH   1  14
ATOM     14  C   UNL     1      45.969   6.738  12.865  0.00  0.00    +0.000 C 
BRANCH  14  15
ATOM     15  C   UNL     1      47.436   6.698  12.413  0.00  0.00    +0.000 C 
BRANCH  15  21
ATOM     16  C   UNL     1      49.658   7.536  13.434  0.00  0.00    +0.000 A 
ATOM     17  N   UNL     1      50.511   7.703  14.481  0.00  0.00    +0.000 NA
ATOM     18  C   UNL     1      50.162   7.166  15.669  0.00  0.00    +0.000 A 
ATOM     19  C   UNL     1      48.996   6.453  15.866  0.00  0.00    +0.000 A 
ATOM     20  C   UNL     1      48.132   6.291  14.787  0.00  0.00    +0.000 A 
ATOM     21  C   UNL     1      48.444   6.845  13.535  0.00  0.00    +0.000 A 
BRANCH  16  23
ATOM     22  N   UNL     1      50.501   8.665  11.242  0.00  0.00    +0.000 NA
ATOM     23  C   UNL     1      50.125   8.163  12.216  0.00  0.00    +0.000 C 
ENDBRANCH  16  23
ENDBRANCH  15  21
ENDBRANCH  14  15
ENDBRANCH   1  14
TORSDOF 5
ENDMDL
