MODEL 1
REMARK VINA RESULT:    -8.437      0.000      0.000
REMARK INTER + INTRA:         -13.447
REMARK INTER:                 -12.136
REMARK INTRA:                  -1.312
REMARK UNBOUND:                -1.312
REMARK  Name = 
REMARK  8 active torsions:
REMARK  status: ('A' for Active; 'I' for Inactive)
REMARK    1  A    between atoms: N_1  and  C_2
REMARK    2  A    between atoms: C_2  and  C_3
REMARK    3  A    between atoms: C_2  and  C_24
REMARK    4  A    between atoms: C_3  and  C_4
REMARK    5  A    between atoms: C_8  and  C_9
REMARK    6  A    between atoms: C_9  and  N_10
REMARK    7  A    between atoms: C_11  and  C_13
REMARK    8  A    between atoms: C_24  and  C_26
REMARK                            x       y       z     vdW  Elec       q    Type
REMARK                         _______ _______ _______ _____ _____    ______ ____
ROOT
ATOM      1  C   UNL     1      45.096   6.834  12.172  0.00  0.00    +0.000 A 
ATOM      2  C   UNL     1      44.383   7.785  11.431  0.00  0.00    +0.000 A 
ATOM      3  C   UNL     1      44.784   9.122  11.417  0.00  0.00    +0.000 A 
ATOM      4  C   UNL     1      45.894   9.527  12.157  0.00  0.00    +0.000 A 
ATOM      5  C   UNL     1      46.606   8.603  12.930  0.00  0.00    +0.000 A 
ATOM      6  C   UNL     1      46.213   7.254  12.914  0.00  0.00    +0.000 A 
ENDROOT
BRANCH   1   7
ATOM      7  C   UNL     1      44.682   5.377  12.167  0.00  0.00    +0.000 C 
BRANCH   7   8
ATOM      8  C   UNL     1      43.597   4.963  11.152  0.00  0.00    +0.000 C 
BRANCH   8   9
ATOM      9  N   UNL     1      42.224   5.023  11.703  0.00  0.00    +0.000 NA
ATOM     10  H   UNL     1      42.241   5.406  12.644  0.00  0.00    +0.000 HD
ATOM     11  H   UNL     1      41.895   4.055  11.793  0.00  0.00    +0.000 HD
ENDBRANCH   8   9
BRANCH   8  12
ATOM     12  C   UNL     1      43.844   3.550  10.587  0.00  0.00    +0.000 C 
ATOM     13  O   UNL     1      43.265   2.564  11.050  0.00  0.00    +0.000 OA
BRANCH  12  14
ATOM     14  C   UNL     1      44.823   3.344   9.469  0.00  0.00    +0.000 A 
ATOM     15  C   UNL     1      45.357   4.392   8.707  0.00  0.00    +0.000 A 
ATOM     16  C   UNL     1      46.251   4.124   7.663  0.00  0.00    +0.000 A 
ATOM     17  C   UNL     1      46.625   2.812   7.376  0.00  0.00    +0.000 A 
ATOM     18  C   UNL     1      46.105   1.764   8.129  0.00  0.00    +0.000 A 
ATOM     19  C   UNL     1      45.208   2.028   9.167  0.00  0.00    +0.000 A 
ENDBRANCH  12  14
ENDBRANCH   8  12
ENDBRANCH   7   8
ENDBRANCH   1   7
BRANCH   5  20
ATOM     20  C   UNL     1      47.799   9.044  13.738  0.00  0.00    +0.000 C 
BRANCH  20  21
ATOM     21  N   UNL     1      47.955   8.228  14.915  0.00  0.00    +0.000 N 
ATOM     22  C   UNL     1      48.926   7.265  14.996  0.00  0.00    +0.000 C 
ATOM     23  O   UNL     1      49.737   7.079  14.093  0.00  0.00    +0.000 OA
ATOM     24  H   UNL     1      47.169   8.201  15.556  0.00  0.00    +0.000 HD
BRANCH  22  25
ATOM     25  C   UNL     1      48.992   6.507  16.251  0.00  0.00    +0.000 A 
ATOM     26  C   UNL     1      49.717   7.014  17.323  0.00  0.00    +0.000 A 
ATOM     27  S   UNL     1      49.638   6.045  18.724  0.00  0.00    +0.000 S 
ATOM     28  C   UNL     1      48.675   4.886  17.933  0.00  0.00    +0.000 A 
ATOM     29  N   UNL     1      48.262   3.764  18.581  0.00  0.00    +0.000 NA
ATOM     30  C   UNL     1      47.565   2.956  17.854  0.00  0.00    +0.000 A 
ATOM     31  N   UNL     1      47.240   3.170  16.541  0.00  0.00    +0.000 N 
ATOM     32  C   UNL     1      47.616   4.296  15.850  0.00  0.00    +0.000 A 
ATOM     33  O   UNL     1      47.280   4.473  14.683  0.00  0.00    +0.000 OA
ATOM     34  C   UNL     1      48.408   5.239  16.622  0.00  0.00    +0.000 A 
ATOM     35  H   UNL     1      46.688   2.499  16.028  0.00  0.00    +0.000 HD
ENDBRANCH  22  25
ENDBRANCH  20  21
ENDBRANCH   5  20
TORSDOF 8
ENDMDL
MODEL 2
REMARK VINA RESULT:    -8.127      2.652      3.462
REMARK INTER + INTRA:         -13.002
REMARK INTER:                 -11.935
REMARK INTRA:                  -1.066
REMARK UNBOUND:                -1.312
REMARK  Name = 
REMARK  8 active torsions:
REMARK  status: ('A' for Active; 'I' for Inactive)
REMARK    1  A    between atoms: N_1  and  C_2
REMARK    2  A    between atoms: C_2  and  C_3
REMARK    3  A    between atoms: C_2  and  C_24
REMARK    4  A    between atoms: C_3  and  C_4
REMARK    5  A    between atoms: C_8  and  C_9
REMARK    6  A    between atoms: C_9  and  N_10
REMARK    7  A    between atoms: C_11  and  C_13
REMARK    8  A    between atoms: C_24  and  C_26
REMARK                            x       y       z     vdW  Elec       q    Type
REMARK                         _______ _______ _______ _____ _____    ______ ____
ROOT
ATOM      1  C   UNL     1      45.714   4.532  12.406  0.00  0.00    +0.000 A 
ATOM      2  C   UNL     1      46.490   5.564  11.866  0.00  0.00    +0.000 A 
ATOM      3  C   UNL     1      47.431   6.233  12.651  0.00  0.00    +0.000 A 
ATOM      4  C   UNL     1      47.596   5.886  13.991  0.00  0.00    +0.000 A 
ATOM      5  C   UNL     1      46.812   4.879  14.565  0.00  0.00    +0.000 A 
ATOM      6  C   UNL     1      45.888   4.192  13.759  0.00  0.00    +0.000 A 
ENDROOT
BRANCH   1   7
ATOM      7  C   UNL     1      44.712   3.784  11.551  0.00  0.00    +0.000 C 
BRANCH   7   8
ATOM      8  C   UNL     1      44.768   4.035  10.029  0.00  0.00    +0.000 C 
BRANCH   8   9
ATOM      9  N   UNL     1      43.661   4.883   9.532  0.00  0.00    +0.000 NA
ATOM     10  H   UNL     1      42.824   4.723  10.084  0.00  0.00    +0.000 HD
ATOM     11  H   UNL     1      43.444   4.564   8.582  0.00  0.00    +0.000 HD
ENDBRANCH   8   9
BRANCH   8  12
ATOM     12  C   UNL     1      44.785   2.718   9.227  0.00  0.00    +0.000 C 
ATOM     13  O   UNL     1      44.013   1.793   9.499  0.00  0.00    +0.000 OA
BRANCH  12  14
ATOM     14  C   UNL     1      45.766   2.526   8.109  0.00  0.00    +0.000 A 
ATOM     15  C   UNL     1      46.017   3.494   7.127  0.00  0.00    +0.000 A 
ATOM     16  C   UNL     1      46.931   3.238   6.099  0.00  0.00    +0.000 A 
ATOM     17  C   UNL     1      47.608   2.021   6.045  0.00  0.00    +0.000 A 
ATOM     18  C   UNL     1      47.371   1.054   7.017  0.00  0.00    +0.000 A 
ATOM     19  C   UNL     1      46.454   1.304   8.041  0.00  0.00    +0.000 A 
ENDBRANCH  12  14
ENDBRANCH   8  12
ENDBRANCH   7   8
ENDBRANCH   1   7
BRANCH   5  20
ATOM     20  C   UNL     1      46.983   4.513  16.016  0.00  0.00    +0.000 C 
BRANCH  20  21
ATOM     21  N   UNL     1      48.367   4.258  16.324  0.00  0.00    +0.000 N 
ATOM     22  C   UNL     1      48.953   4.758  17.457  0.00  0.00    +0.000 C 
ATOM     23  O   UNL     1      48.321   5.406  18.286  0.00  0.00    +0.000 OA
ATOM     24  H   UNL     1      48.951   3.938  15.557  0.00  0.00    +0.000 HD
BRANCH  22  25
ATOM     25  C   UNL     1      50.366   4.419  17.666  0.00  0.00    +0.000 A 
ATOM     26  C   UNL     1      51.266   5.414  18.025  0.00  0.00    +0.000 A 
ATOM     27  S   UNL     1      52.850   4.841  18.294  0.00  0.00    +0.000 S 
ATOM     28  C   UNL     1      52.401   3.251  17.888  0.00  0.00    +0.000 A 
ATOM     29  N   UNL     1      53.317   2.244  17.898  0.00  0.00    +0.000 NA
ATOM     30  C   UNL     1      52.848   1.096  17.540  0.00  0.00    +0.000 A 
ATOM     31  N   UNL     1      51.548   0.861  17.178  0.00  0.00    +0.000 N 
ATOM     32  C   UNL     1      50.584   1.840  17.173  0.00  0.00    +0.000 A 
ATOM     33  O   UNL     1      49.420   1.589  16.876  0.00  0.00    +0.000 OA
ATOM     34  C   UNL     1      51.060   3.156  17.564  0.00  0.00    +0.000 A 
ATOM     35  H   UNL     1      51.244  -0.063  16.911  0.00  0.00    +0.000 HD
ENDBRANCH  22  25
ENDBRANCH  20  21
ENDBRANCH   5  20
TORSDOF 8
ENDMDL
MODEL 3
REMARK VINA RESULT:    -7.956      1.664      2.232
REMARK INTER + INTRA:         -12.755
REMARK INTER:                 -11.977
REMARK INTRA:                  -0.778
REMARK UNBOUND:                -1.312
REMARK  Name = 
REMARK  8 active torsions:
REMARK  status: ('A' for Active; 'I' for Inactive)
REMARK    1  A    between atoms: N_1  and  C_2
REMARK    2  A    between atoms: C_2  and  C_3
REMARK    3  A    between atoms: C_2  and  C_24
REMARK    4  A    between atoms: C_3  and  C_4
REMARK    5  A    between atoms: C_8  and  C_9
REMARK    6  A    between atoms: C_9  and  N_10
REMARK    7  A    between atoms: C_11  and  C_13
REMARK    8  A    between atoms: C_24  and  C_26
REMARK                            x       y       z     vdW  Elec       q    Type
REMARK                         _______ _______ _______ _____ _____    ______ ____
ROOT
ATOM      1  C   UNL     1      45.192   5.272  11.213  0.00  0.00    +0.000 A 
ATOM      2  C   UNL     1      44.163   6.220  11.275  0.00  0.00    +0.000 A 
ATOM      3  C   UNL     1      44.421   7.525  11.698  0.00  0.00    +0.000 A 
ATOM      4  C   UNL     1      45.710   7.894  12.080  0.00  0.00    +0.000 A 
ATOM      5  C   UNL     1      46.751   6.958  12.057  0.00  0.00    +0.000 A 
ATOM      6  C   UNL     1      46.487   5.655  11.602  0.00  0.00    +0.000 A 
ENDROOT
BRANCH   1   7
ATOM      7  C   UNL     1      44.922   3.863  10.727  0.00  0.00    +0.000 C 
BRANCH   7   8
ATOM      8  C   UNL     1      44.520   3.701   9.246  0.00  0.00    +0.000 C 
BRANCH   8   9
ATOM      9  N   UNL     1      43.963   2.365   8.932  0.00  0.00    +0.000 NA
ATOM     10  H   UNL     1      44.081   2.161   7.944  0.00  0.00    +0.000 HD
ATOM     11  H   UNL     1      42.951   2.418   9.095  0.00  0.00    +0.000 HD
ENDBRANCH   8   9
BRANCH   8  12
ATOM     12  C   UNL     1      45.699   3.984   8.293  0.00  0.00    +0.000 C 
ATOM     13  O   UNL     1      46.173   5.118   8.181  0.00  0.00    +0.000 OA
BRANCH  12  14
ATOM     14  C   UNL     1      46.279   2.880   7.459  0.00  0.00    +0.000 A 
ATOM     15  C   UNL     1      46.585   1.609   7.965  0.00  0.00    +0.000 A 
ATOM     16  C   UNL     1      47.146   0.634   7.132  0.00  0.00    +0.000 A 
ATOM     17  C   UNL     1      47.397   0.913   5.790  0.00  0.00    +0.000 A 
ATOM     18  C   UNL     1      47.093   2.169   5.276  0.00  0.00    +0.000 A 
ATOM     19  C   UNL     1      46.540   3.148   6.106  0.00  0.00    +0.000 A 
ENDBRANCH  12  14
ENDBRANCH   8  12
ENDBRANCH   7   8
ENDBRANCH   1   7
BRANCH   5  20
ATOM     20  C   UNL     1      48.142   7.354  12.481  0.00  0.00    +0.000 C 
BRANCH  20  21
ATOM     21  N   UNL     1      48.537   6.653  13.675  0.00  0.00    +0.000 N 
ATOM     22  C   UNL     1      48.495   7.253  14.906  0.00  0.00    +0.000 C 
ATOM     23  O   UNL     1      48.078   8.398  15.059  0.00  0.00    +0.000 OA
ATOM     24  H   UNL     1      49.094   5.814  13.546  0.00  0.00    +0.000 HD
BRANCH  22  25
ATOM     25  C   UNL     1      48.910   6.430  16.049  0.00  0.00    +0.000 A 
ATOM     26  C   UNL     1      49.964   6.849  16.851  0.00  0.00    +0.000 A 
ATOM     27  S   UNL     1      50.274   5.816  18.171  0.00  0.00    +0.000 S 
ATOM     28  C   UNL     1      49.046   4.742  17.688  0.00  0.00    +0.000 A 
ATOM     29  N   UNL     1      48.793   3.608  18.396  0.00  0.00    +0.000 NA
ATOM     30  C   UNL     1      47.856   2.869  17.901  0.00  0.00    +0.000 A 
ATOM     31  N   UNL     1      47.147   3.165  16.766  0.00  0.00    +0.000 N 
ATOM     32  C   UNL     1      47.351   4.306  16.030  0.00  0.00    +0.000 A 
ATOM     33  O   UNL     1      46.675   4.557  15.038  0.00  0.00    +0.000 OA
ATOM     34  C   UNL     1      48.400   5.172  16.543  0.00  0.00    +0.000 A 
ATOM     35  H   UNL     1      46.424   2.545  16.433  0.00  0.00    +0.000 HD
ENDBRANCH  22  25
ENDBRANCH  20  21
ENDBRANCH   5  20
TORSDOF 8
ENDMDL
MODEL 4
REMARK VINA RESULT:    -7.735      2.505      3.022
REMARK INTER + INTRA:         -12.438
REMARK INTER:                 -11.078
REMARK INTRA:                  -1.359
REMARK UNBOUND:                -1.312
REMARK  Name = 
REMARK  8 active torsions:
REMARK  status: ('A' for Active; 'I' for Inactive)
REMARK    1  A    between atoms: N_1  and  C_2
REMARK    2  A    between atoms: C_2  and  C_3
REMARK    3  A    between atoms: C_2  and  C_24
REMARK    4  A    between atoms: C_3  and  C_4
REMARK    5  A    between atoms: C_8  and  C_9
REMARK    6  A    between atoms: C_9  and  N_10
REMARK    7  A    between atoms: C_11  and  C_13
REMARK    8  A    between atoms: C_24  and  C_26
REMARK                            x       y       z     vdW  Elec       q    Type
REMARK                         _______ _______ _______ _____ _____    ______ ____
ROOT
ATOM      1  C   UNL     1      46.960   5.761  12.836  0.00  0.00    +0.000 A 
ATOM      2  C   UNL     1      47.366   6.532  11.739  0.00  0.00    +0.000 A 
ATOM      3  C   UNL     1      48.227   7.617  11.912  0.00  0.00    +0.000 A 
ATOM      4  C   UNL     1      48.681   7.954  13.186  0.00  0.00    +0.000 A 
ATOM      5  C   UNL     1      48.266   7.219  14.303  0.00  0.00    +0.000 A 
ATOM      6  C   UNL     1      47.423   6.111  14.115  0.00  0.00    +0.000 A 
ENDROOT
BRANCH   1   7
ATOM      7  C   UNL     1      46.050   4.565  12.650  0.00  0.00    +0.000 C 
BRANCH   7   8
ATOM      8  C   UNL     1      44.532   4.842  12.607  0.00  0.00    +0.000 C 
BRANCH   8   9
ATOM      9  N   UNL     1      43.728   3.816  13.307  0.00  0.00    +0.000 NA
ATOM     10  H   UNL     1      43.123   4.255  13.995  0.00  0.00    +0.000 HD
ATOM     11  H   UNL     1      44.385   3.230  13.835  0.00  0.00    +0.000 HD
ENDBRANCH   8   9
BRANCH   8  12
ATOM     12  C   UNL     1      44.012   4.983  11.162  0.00  0.00    +0.000 C 
ATOM     13  O   UNL     1      43.080   5.744  10.889  0.00  0.00    +0.000 OA
BRANCH  12  14
ATOM     14  C   UNL     1      44.618   4.168  10.058  0.00  0.00    +0.000 A 
ATOM     15  C   UNL     1      44.446   2.783   9.935  0.00  0.00    +0.000 A 
ATOM     16  C   UNL     1      45.060   2.084   8.890  0.00  0.00    +0.000 A 
ATOM     17  C   UNL     1      45.844   2.759   7.956  0.00  0.00    +0.000 A 
ATOM     18  C   UNL     1      46.018   4.135   8.064  0.00  0.00    +0.000 A 
ATOM     19  C   UNL     1      45.412   4.835   9.110  0.00  0.00    +0.000 A 
ENDBRANCH  12  14
ENDBRANCH   8  12
ENDBRANCH   7   8
ENDBRANCH   1   7
BRANCH   5  20
ATOM     20  C   UNL     1      48.748   7.591  15.682  0.00  0.00    +0.000 C 
BRANCH  20  21
ATOM     21  N   UNL     1      49.836   6.740  16.094  0.00  0.00    +0.000 N 
ATOM     22  C   UNL     1      49.687   5.824  17.101  0.00  0.00    +0.000 C 
ATOM     23  O   UNL     1      48.613   5.649  17.670  0.00  0.00    +0.000 OA
ATOM     24  H   UNL     1      50.768   7.026  15.810  0.00  0.00    +0.000 HD
BRANCH  22  25
ATOM     25  C   UNL     1      50.864   5.007  17.421  0.00  0.00    +0.000 A 
ATOM     26  C   UNL     1      52.044   5.625  17.812  0.00  0.00    +0.000 A 
ATOM     27  S   UNL     1      53.291   4.532  18.211  0.00  0.00    +0.000 S 
ATOM     28  C   UNL     1      52.315   3.194  17.823  0.00  0.00    +0.000 A 
ATOM     29  N   UNL     1      52.796   1.925  17.929  0.00  0.00    +0.000 NA
ATOM     30  C   UNL     1      51.960   1.007  17.574  0.00  0.00    +0.000 A 
ATOM     31  N   UNL     1      50.686   1.242  17.128  0.00  0.00    +0.000 N 
ATOM     32  C   UNL     1      50.149   2.502  17.023  0.00  0.00    +0.000 A 
ATOM     33  O   UNL     1      48.992   2.675  16.652  0.00  0.00    +0.000 OA
ATOM     34  C   UNL     1      51.051   3.574  17.407  0.00  0.00    +0.000 A 
ATOM     35  H   UNL     1      50.080   0.478  16.868  0.00  0.00    +0.000 HD
ENDBRANCH  22  25
ENDBRANCH  20  21
ENDBRANCH   5  20
TORSDOF 8
ENDMDL
MODEL 5
REMARK VINA RESULT:    -7.634      3.421      8.169
REMARK INTER + INTRA:         -12.293
REMARK INTER:                 -10.454
REMARK INTRA:                  -1.839
REMARK UNBOUND:                -1.312
REMARK  Name = 
REMARK  8 active torsions:
REMARK  status: ('A' for Active; 'I' for Inactive)
REMARK    1  A    between atoms: N_1  and  C_2
REMARK    2  A    between atoms: C_2  and  C_3
REMARK    3  A    between atoms: C_2  and  C_24
REMARK    4  A    between atoms: C_3  and  C_4
REMARK    5  A    between atoms: C_8  and  C_9
REMARK    6  A    between atoms: C_9  and  N_10
REMARK    7  A    between atoms: C_11  and  C_13
REMARK    8  A    between atoms: C_24  and  C_26
REMARK                            x       y       z     vdW  Elec       q    Type
REMARK                         _______ _______ _______ _____ _____    ______ ____
ROOT
ATOM      1  C   UNL     1      48.979   4.652  18.169  0.00  0.00    +0.000 A 
ATOM      2  C   UNL     1      48.968   5.226  19.446  0.00  0.00    +0.000 A 
ATOM      3  C   UNL     1      48.917   6.612  19.604  0.00  0.00    +0.000 A 
ATOM      4  C   UNL     1      48.892   7.442  18.484  0.00  0.00    +0.000 A 
ATOM      5  C   UNL     1      48.933   6.896  17.196  0.00  0.00    +0.000 A 
ATOM      6  C   UNL     1      48.954   5.499  17.048  0.00  0.00    +0.000 A 
ENDROOT
BRANCH   1   7
ATOM      7  C   UNL     1      49.004   3.148  17.993  0.00  0.00    +0.000 C 
BRANCH   7   8
ATOM      8  C   UNL     1      49.933   2.589  16.895  0.00  0.00    +0.000 C 
BRANCH   8   9
ATOM      9  N   UNL     1      49.252   1.654  15.970  0.00  0.00    +0.000 NA
ATOM     10  H   UNL     1      49.898   0.932  15.666  0.00  0.00    +0.000 HD
ATOM     11  H   UNL     1      49.006   2.191  15.131  0.00  0.00    +0.000 HD
ENDBRANCH   8   9
BRANCH   8  12
ATOM     12  C   UNL     1      51.172   1.888  17.488  0.00  0.00    +0.000 C 
ATOM     13  O   UNL     1      51.184   0.670  17.688  0.00  0.00    +0.000 OA
BRANCH  12  14
ATOM     14  C   UNL     1      52.386   2.686  17.861  0.00  0.00    +0.000 A 
ATOM     15  C   UNL     1      52.432   4.086  17.820  0.00  0.00    +0.000 A 
ATOM     16  C   UNL     1      53.607   4.765  18.161  0.00  0.00    +0.000 A 
ATOM     17  C   UNL     1      54.742   4.057  18.553  0.00  0.00    +0.000 A 
ATOM     18  C   UNL     1      54.706   2.666  18.603  0.00  0.00    +0.000 A 
ATOM     19  C   UNL     1      53.537   1.986  18.256  0.00  0.00    +0.000 A 
ENDBRANCH  12  14
ENDBRANCH   8  12
ENDBRANCH   7   8
ENDBRANCH   1   7
BRANCH   5  20
ATOM     20  C   UNL     1      48.916   7.795  15.987  0.00  0.00    +0.000 C 
BRANCH  20  21
ATOM     21  N   UNL     1      47.857   7.425  15.084  0.00  0.00    +0.000 N 
ATOM     22  C   UNL     1      48.117   6.814  13.886  0.00  0.00    +0.000 C 
ATOM     23  O   UNL     1      49.256   6.511  13.542  0.00  0.00    +0.000 OA
ATOM     24  H   UNL     1      46.956   7.868  15.235  0.00  0.00    +0.000 HD
BRANCH  22  25
ATOM     25  C   UNL     1      46.952   6.474  13.059  0.00  0.00    +0.000 A 
ATOM     26  C   UNL     1      46.274   7.478  12.380  0.00  0.00    +0.000 A 
ATOM     27  S   UNL     1      44.990   6.906  11.415  0.00  0.00    +0.000 S 
ATOM     28  C   UNL     1      45.260   5.302  11.910  0.00  0.00    +0.000 A 
ATOM     29  N   UNL     1      44.474   4.289  11.455  0.00  0.00    +0.000 NA
ATOM     30  C   UNL     1      44.771   3.127  11.935  0.00  0.00    +0.000 A 
ATOM     31  N   UNL     1      45.784   2.886  12.826  0.00  0.00    +0.000 N 
ATOM     32  C   UNL     1      46.617   3.871  13.298  0.00  0.00    +0.000 A 
ATOM     33  O   UNL     1      47.536   3.616  14.069  0.00  0.00    +0.000 OA
ATOM     34  C   UNL     1      46.323   5.201  12.791  0.00  0.00    +0.000 A 
ATOM     35  H   UNL     1      45.966   1.952  13.161  0.00  0.00    +0.000 HD
ENDBRANCH  22  25
ENDBRANCH  20  21
ENDBRANCH   5  20
TORSDOF 8
ENDMDL
MODEL 6
REMARK VINA RESULT:    -7.416      2.930      7.612
REMARK INTER + INTRA:         -11.979
REMARK INTER:                 -11.066
REMARK INTRA:                  -0.913
REMARK UNBOUND:                -1.312
REMARK  Name = 
REMARK  8 active torsions:
REMARK  status: ('A' for Active; 'I' for Inactive)
REMARK    1  A    between atoms: N_1  and  C_2
REMARK    2  A    between atoms: C_2  and  C_3
REMARK    3  A    between atoms: C_2  and  C_24
REMARK    4  A    between atoms: C_3  and  C_4
REMARK    5  A    between atoms: C_8  and  C_9
REMARK    6  A    between atoms: C_9  and  N_10
REMARK    7  A    between atoms: C_11  and  C_13
REMARK    8  A    between atoms: C_24  and  C_26
REMARK                            x       y       z     vdW  Elec       q    Type
REMARK                         _______ _______ _______ _____ _____    ______ ____
ROOT
ATOM      1  C   UNL     1      48.839   6.952  18.568  0.00  0.00    +0.000 A 
ATOM      2  C   UNL     1      48.300   8.046  19.257  0.00  0.00    +0.000 A 
ATOM      3  C   UNL     1      47.916   9.200  18.571  0.00  0.00    +0.000 A 
ATOM      4  C   UNL     1      48.080   9.279  17.189  0.00  0.00    +0.000 A 
ATOM      5  C   UNL     1      48.644   8.213  16.480  0.00  0.00    +0.000 A 
ATOM      6  C   UNL     1      49.000   7.045  17.175  0.00  0.00    +0.000 A 
ENDROOT
BRANCH   1   7
ATOM      7  C   UNL     1      49.230   5.688  19.303  0.00  0.00    +0.000 C 
BRANCH   7   8
ATOM      8  C   UNL     1      48.551   4.378  18.850  0.00  0.00    +0.000 C 
BRANCH   8   9
ATOM      9  N   UNL     1      48.520   3.338  19.903  0.00  0.00    +0.000 NA
ATOM     10  H   UNL     1      48.041   2.510  19.562  0.00  0.00    +0.000 HD
ATOM     11  H   UNL     1      47.945   3.706  20.669  0.00  0.00    +0.000 HD
ENDBRANCH   8   9
BRANCH   8  12
ATOM     12  C   UNL     1      49.217   3.789  17.589  0.00  0.00    +0.000 C 
ATOM     13  O   UNL     1      48.643   3.804  16.497  0.00  0.00    +0.000 OA
BRANCH  12  14
ATOM     14  C   UNL     1      50.576   3.160  17.676  0.00  0.00    +0.000 A 
ATOM     15  C   UNL     1      51.733   3.867  18.028  0.00  0.00    +0.000 A 
ATOM     16  C   UNL     1      52.973   3.218  18.068  0.00  0.00    +0.000 A 
ATOM     17  C   UNL     1      53.068   1.861  17.765  0.00  0.00    +0.000 A 
ATOM     18  C   UNL     1      51.925   1.148  17.418  0.00  0.00    +0.000 A 
ATOM     19  C   UNL     1      50.687   1.794  17.371  0.00  0.00    +0.000 A 
ENDBRANCH  12  14
ENDBRANCH   8  12
ENDBRANCH   7   8
ENDBRANCH   1   7
BRANCH   5  20
ATOM     20  C   UNL     1      48.830   8.303  14.987  0.00  0.00    +0.000 C 
BRANCH  20  21
ATOM     21  N   UNL     1      47.656   7.842  14.292  0.00  0.00    +0.000 N 
ATOM     22  C   UNL     1      47.719   6.828  13.374  0.00  0.00    +0.000 C 
ATOM     23  O   UNL     1      48.765   6.232  13.131  0.00  0.00    +0.000 OA
ATOM     24  H   UNL     1      46.851   8.461  14.300  0.00  0.00    +0.000 HD
BRANCH  22  25
ATOM     25  C   UNL     1      46.453   6.438  12.741  0.00  0.00    +0.000 A 
ATOM     26  C   UNL     1      45.639   7.411  12.174  0.00  0.00    +0.000 A 
ATOM     27  S   UNL     1      44.242   6.784  11.425  0.00  0.00    +0.000 S 
ATOM     28  C   UNL     1      44.646   5.195  11.878  0.00  0.00    +0.000 A 
ATOM     29  N   UNL     1      43.836   4.150  11.555  0.00  0.00    +0.000 NA
ATOM     30  C   UNL     1      44.247   3.005  11.987  0.00  0.00    +0.000 A 
ATOM     31  N   UNL     1      45.396   2.809  12.708  0.00  0.00    +0.000 N 
ATOM     32  C   UNL     1      46.255   3.828  13.040  0.00  0.00    +0.000 A 
ATOM     33  O   UNL     1      47.294   3.613  13.657  0.00  0.00    +0.000 OA
ATOM     34  C   UNL     1      45.837   5.142  12.580  0.00  0.00    +0.000 A 
ATOM     35  H   UNL     1      45.663   1.885  13.014  0.00  0.00    +0.000 HD
ENDBRANCH  22  25
ENDBRANCH  20  21
ENDBRANCH   5  20
TORSDOF 8
ENDMDL
MODEL 7
REMARK VINA RESULT:    -7.386      1.731      2.245
REMARK INTER + INTRA:         -11.936
REMARK INTER:                 -10.549
REMARK INTRA:                  -1.387
REMARK UNBOUND:                -1.312
REMARK  Name = 
REMARK  8 active torsions:
REMARK  status: ('A' for Active; 'I' for Inactive)
REMARK    1  A    between atoms: N_1  and  C_2
REMARK    2  A    between atoms: C_2  and  C_3
REMARK    3  A    between atoms: C_2  and  C_24
REMARK    4  A    between atoms: C_3  and  C_4
REMARK    5  A    between atoms: C_8  and  C_9
REMARK    6  A    between atoms: C_9  and  N_10
REMARK    7  A    between atoms: C_11  and  C_13
REMARK    8  A    between atoms: C_24  and  C_26
REMARK                            x       y       z     vdW  Elec       q    Type
REMARK                         _______ _______ _______ _____ _____    ______ ____
ROOT
ATOM      1  C   UNL     1      45.897   5.876  12.767  0.00  0.00    +0.000 A 
ATOM      2  C   UNL     1      45.564   6.950  11.932  0.00  0.00    +0.000 A 
ATOM      3  C   UNL     1      46.405   8.059  11.828  0.00  0.00    +0.000 A 
ATOM      4  C   UNL     1      47.583   8.115  12.571  0.00  0.00    +0.000 A 
ATOM      5  C   UNL     1      47.925   7.070  13.438  0.00  0.00    +0.000 A 
ATOM      6  C   UNL     1      47.087   5.945  13.513  0.00  0.00    +0.000 A 
ENDROOT
BRANCH   1   7
ATOM      7  C   UNL     1      45.003   4.658  12.861  0.00  0.00    +0.000 C 
BRANCH   7   8
ATOM      8  C   UNL     1      43.753   4.638  11.955  0.00  0.00    +0.000 C 
BRANCH   8   9
ATOM      9  N   UNL     1      42.484   4.786  12.702  0.00  0.00    +0.000 NA
ATOM     10  H   UNL     1      42.246   5.769  12.794  0.00  0.00    +0.000 HD
ATOM     11  H   UNL     1      42.655   4.443  13.654  0.00  0.00    +0.000 HD
ENDBRANCH   8   9
BRANCH   8  12
ATOM     12  C   UNL     1      43.681   3.356  11.100  0.00  0.00    +0.000 C 
ATOM     13  O   UNL     1      42.931   2.425  11.406  0.00  0.00    +0.000 OA
BRANCH  12  14
ATOM     14  C   UNL     1      44.548   3.209   9.885  0.00  0.00    +0.000 A 
ATOM     15  C   UNL     1      44.997   1.973   9.402  0.00  0.00    +0.000 A 
ATOM     16  C   UNL     1      45.822   1.912   8.273  0.00  0.00    +0.000 A 
ATOM     17  C   UNL     1      46.199   3.080   7.613  0.00  0.00    +0.000 A 
ATOM     18  C   UNL     1      45.755   4.313   8.080  0.00  0.00    +0.000 A 
ATOM     19  C   UNL     1      44.937   4.377   9.210  0.00  0.00    +0.000 A 
ENDBRANCH  12  14
ENDBRANCH   8  12
ENDBRANCH   7   8
ENDBRANCH   1   7
BRANCH   5  20
ATOM     20  C   UNL     1      49.193   7.137  14.249  0.00  0.00    +0.000 C 
BRANCH  20  21
ATOM     21  N   UNL     1      48.919   6.941  15.650  0.00  0.00    +0.000 N 
ATOM     22  C   UNL     1      49.312   7.856  16.591  0.00  0.00    +0.000 C 
ATOM     23  O   UNL     1      49.874   8.904  16.287  0.00  0.00    +0.000 OA
ATOM     24  H   UNL     1      48.677   5.998  15.939  0.00  0.00    +0.000 HD
BRANCH  22  25
ATOM     25  C   UNL     1      48.964   7.551  17.985  0.00  0.00    +0.000 A 
ATOM     26  C   UNL     1      48.505   8.565  18.816  0.00  0.00    +0.000 A 
ATOM     27  S   UNL     1      48.083   8.030  20.380  0.00  0.00    +0.000 S 
ATOM     28  C   UNL     1      48.548   6.435  20.018  0.00  0.00    +0.000 A 
ATOM     29  N   UNL     1      48.456   5.452  20.955  0.00  0.00    +0.000 NA
ATOM     30  C   UNL     1      48.872   4.296  20.557  0.00  0.00    +0.000 A 
ATOM     31  N   UNL     1      49.366   4.033  19.307  0.00  0.00    +0.000 N 
ATOM     32  C   UNL     1      49.460   4.985  18.322  0.00  0.00    +0.000 A 
ATOM     33  O   UNL     1      49.876   4.708  17.201  0.00  0.00    +0.000 OA
ATOM     34  C   UNL     1      49.008   6.308  18.720  0.00  0.00    +0.000 A 
ATOM     35  H   UNL     1      49.673   3.104  19.057  0.00  0.00    +0.000 HD
ENDBRANCH  22  25
ENDBRANCH  20  21
ENDBRANCH   5  20
TORSDOF 8
ENDMDL
MODEL 8
REMARK VINA RESULT:    -7.229      3.039      3.939
REMARK INTER + INTRA:         -11.711
REMARK INTER:                 -10.428
REMARK INTRA:                  -1.283
REMARK UNBOUND:                -1.312
REMARK  Name = 
REMARK  8 active torsions:
REMARK  status: ('A' for Active; 'I' for Inactive)
REMARK    1  A    between atoms: N_1  and  C_2
REMARK    2  A    between atoms: C_2  and  C_3
REMARK    3  A    between atoms: C_2  and  C_24
REMARK    4  A    between atoms: C_3  and  C_4
REMARK    5  A    between atoms: C_8  and  C_9
REMARK    6  A    between atoms: C_9  and  N_10
REMARK    7  A    between atoms: C_11  and  C_13
REMARK    8  A    between atoms: C_24  and  C_26
REMARK                            x       y       z     vdW  Elec       q    Type
REMARK                         _______ _______ _______ _____ _____    ______ ____
ROOT
ATOM      1  C   UNL     1      47.080   5.720  13.096  0.00  0.00    +0.000 A 
ATOM      2  C   UNL     1      47.712   6.589  12.197  0.00  0.00    +0.000 A 
ATOM      3  C   UNL     1      48.739   7.432  12.625  0.00  0.00    +0.000 A 
ATOM      4  C   UNL     1      49.136   7.428  13.962  0.00  0.00    +0.000 A 
ATOM      5  C   UNL     1      48.500   6.592  14.887  0.00  0.00    +0.000 A 
ATOM      6  C   UNL     1      47.488   5.726  14.440  0.00  0.00    +0.000 A 
ENDROOT
BRANCH   1   7
ATOM      7  C   UNL     1      45.986   4.783  12.630  0.00  0.00    +0.000 C 
BRANCH   7   8
ATOM      8  C   UNL     1      44.788   5.419  11.893  0.00  0.00    +0.000 C 
BRANCH   8   9
ATOM      9  N   UNL     1      43.769   5.984  12.806  0.00  0.00    +0.000 NA
ATOM     10  H   UNL     1      44.083   5.908  13.769  0.00  0.00    +0.000 HD
ATOM     11  H   UNL     1      42.936   5.390  12.728  0.00  0.00    +0.000 HD
ENDBRANCH   8   9
BRANCH   8  12
ATOM     12  C   UNL     1      44.102   4.420  10.939  0.00  0.00    +0.000 C 
ATOM     13  O   UNL     1      42.930   4.075  11.109  0.00  0.00    +0.000 OA
BRANCH  12  14
ATOM     14  C   UNL     1      44.864   3.827   9.791  0.00  0.00    +0.000 A 
ATOM     15  C   UNL     1      45.512   4.595   8.814  0.00  0.00    +0.000 A 
ATOM     16  C   UNL     1      46.186   3.973   7.757  0.00  0.00    +0.000 A 
ATOM     17  C   UNL     1      46.228   2.583   7.670  0.00  0.00    +0.000 A 
ATOM     18  C   UNL     1      45.592   1.809   8.636  0.00  0.00    +0.000 A 
ATOM     19  C   UNL     1      44.912   2.427   9.688  0.00  0.00    +0.000 A 
ENDBRANCH  12  14
ENDBRANCH   8  12
ENDBRANCH   7   8
ENDBRANCH   1   7
BRANCH   5  20
ATOM     20  C   UNL     1      48.923   6.596  16.334  0.00  0.00    +0.000 C 
BRANCH  20  21
ATOM     21  N   UNL     1      49.887   5.557  16.592  0.00  0.00    +0.000 N 
ATOM     22  C   UNL     1      49.624   4.536  17.466  0.00  0.00    +0.000 C 
ATOM     23  O   UNL     1      48.541   4.429  18.037  0.00  0.00    +0.000 OA
ATOM     24  H   UNL     1      50.846   5.751  16.323  0.00  0.00    +0.000 HD
BRANCH  22  25
ATOM     25  C   UNL     1      50.680   3.531  17.635  0.00  0.00    +0.000 A 
ATOM     26  C   UNL     1      50.441   2.213  17.268  0.00  0.00    +0.000 A 
ATOM     27  S   UNL     1      51.790   1.190  17.466  0.00  0.00    +0.000 S 
ATOM     28  C   UNL     1      52.727   2.460  18.101  0.00  0.00    +0.000 A 
ATOM     29  N   UNL     1      54.011   2.248  18.500  0.00  0.00    +0.000 NA
ATOM     30  C   UNL     1      54.595   3.290  18.990  0.00  0.00    +0.000 A 
ATOM     31  N   UNL     1      54.014   4.525  19.113  0.00  0.00    +0.000 N 
ATOM     32  C   UNL     1      52.730   4.793  18.706  0.00  0.00    +0.000 A 
ATOM     33  O   UNL     1      52.252   5.919  18.800  0.00  0.00    +0.000 OA
ATOM     34  C   UNL     1      52.025   3.651  18.150  0.00  0.00    +0.000 A 
ATOM     35  H   UNL     1      54.528   5.301  19.504  0.00  0.00    +0.000 HD
ENDBRANCH  22  25
ENDBRANCH  20  21
ENDBRANCH   5  20
TORSDOF 8
ENDMDL
MODEL 9
REMARK VINA RESULT:    -7.006      2.258      2.551
REMARK INTER + INTRA:         -11.389
REMARK INTER:                  -9.945
REMARK INTRA:                  -1.444
REMARK UNBOUND:                -1.312
REMARK  Name = 
REMARK  8 active torsions:
REMARK  status: ('A' for Active; 'I' for Inactive)
REMARK    1  A    between atoms: N_1  and  C_2
REMARK    2  A    between atoms: C_2  and  C_3
REMARK    3  A    between atoms: C_2  and  C_24
REMARK    4  A    between atoms: C_3  and  C_4
REMARK    5  A    between atoms: C_8  and  C_9
REMARK    6  A    between atoms: C_9  and  N_10
REMARK    7  A    between atoms: C_11  and  C_13
REMARK    8  A    between atoms: C_24  and  C_26
REMARK                            x       y       z     vdW  Elec       q    Type
REMARK                         _______ _______ _______ _____ _____    ______ ____
ROOT
ATOM      1  C   UNL     1      45.799   6.382  12.513  0.00  0.00    +0.000 A 
ATOM      2  C   UNL     1      45.120   7.604  12.441  0.00  0.00    +0.000 A 
ATOM      3  C   UNL     1      45.820   8.799  12.271  0.00  0.00    +0.000 A 
ATOM      4  C   UNL     1      47.212   8.788  12.185  0.00  0.00    +0.000 A 
ATOM      5  C   UNL     1      47.918   7.584  12.285  0.00  0.00    +0.000 A 
ATOM      6  C   UNL     1      47.202   6.383  12.426  0.00  0.00    +0.000 A 
ENDROOT
BRANCH   1   7
ATOM      7  C   UNL     1      45.042   5.080  12.668  0.00  0.00    +0.000 C 
BRANCH   7   8
ATOM      8  C   UNL     1      43.749   4.921  11.841  0.00  0.00    +0.000 C 
BRANCH   8   9
ATOM      9  N   UNL     1      42.517   4.979  12.660  0.00  0.00    +0.000 NA
ATOM     10  H   UNL     1      42.683   5.521  13.502  0.00  0.00    +0.000 HD
ATOM     11  H   UNL     1      42.318   4.021  12.969  0.00  0.00    +0.000 HD
ENDBRANCH   8   9
BRANCH   8  12
ATOM     12  C   UNL     1      43.742   3.613  11.025  0.00  0.00    +0.000 C 
ATOM     13  O   UNL     1      43.020   2.664  11.342  0.00  0.00    +0.000 OA
BRANCH  12  14
ATOM     14  C   UNL     1      44.642   3.461   9.834  0.00  0.00    +0.000 A 
ATOM     15  C   UNL     1      45.143   4.545   9.101  0.00  0.00    +0.000 A 
ATOM     16  C   UNL     1      45.961   4.327   7.986  0.00  0.00    +0.000 A 
ATOM     17  C   UNL     1      46.291   3.030   7.597  0.00  0.00    +0.000 A 
ATOM     18  C   UNL     1      45.803   1.946   8.320  0.00  0.00    +0.000 A 
ATOM     19  C   UNL     1      44.982   2.160   9.429  0.00  0.00    +0.000 A 
ENDBRANCH  12  14
ENDBRANCH   8  12
ENDBRANCH   7   8
ENDBRANCH   1   7
BRANCH   5  20
ATOM     20  C   UNL     1      49.423   7.573  12.203  0.00  0.00    +0.000 C 
BRANCH  20  21
ATOM     21  N   UNL     1      50.006   7.241  13.478  0.00  0.00    +0.000 N 
ATOM     22  C   UNL     1      50.948   8.043  14.066  0.00  0.00    +0.000 C 
ATOM     23  O   UNL     1      51.308   9.103  13.562  0.00  0.00    +0.000 OA
ATOM     24  H   UNL     1      49.903   6.279  13.787  0.00  0.00    +0.000 HD
BRANCH  22  25
ATOM     25  C   UNL     1      51.457   7.604  15.371  0.00  0.00    +0.000 A 
ATOM     26  C   UNL     1      52.799   7.271  15.509  0.00  0.00    +0.000 A 
ATOM     27  S   UNL     1      53.240   6.848  17.101  0.00  0.00    +0.000 S 
ATOM     28  C   UNL     1      51.643   7.042  17.652  0.00  0.00    +0.000 A 
ATOM     29  N   UNL     1      51.321   6.810  18.954  0.00  0.00    +0.000 NA
ATOM     30  C   UNL     1      50.069   6.965  19.229  0.00  0.00    +0.000 A 
ATOM     31  N   UNL     1      49.111   7.335  18.322  0.00  0.00    +0.000 N 
ATOM     32  C   UNL     1      49.389   7.600  17.004  0.00  0.00    +0.000 A 
ATOM     33  O   UNL     1      48.513   7.963  16.225  0.00  0.00    +0.000 OA
ATOM     34  C   UNL     1      50.787   7.436  16.639  0.00  0.00    +0.000 A 
ATOM     35  H   UNL     1      48.147   7.442  18.603  0.00  0.00    +0.000 HD
ENDBRANCH  22  25
ENDBRANCH  20  21
ENDBRANCH   5  20
TORSDOF 8
ENDMDL
