MODEL 1
REMARK VINA RESULT:    -7.569      0.000      0.000
REMARK INTER + INTRA:          -9.847
REMARK INTER:                  -9.339
REMARK INTRA:                  -0.508
REMARK UNBOUND:                -0.508
REMARK  Name = 
REMARK  4 active torsions:
REMARK  status: ('A' for Active; 'I' for Inactive)
REMARK    1  A    between atoms: C_2  and  C_5
REMARK    2  A    between atoms: N_11  and  C_12
REMARK    3  A    between atoms: C_12  and  C_13
REMARK    4  A    between atoms: C_17  and  C_18
REMARK                            x       y       z     vdW  Elec       q    Type
REMARK                         _______ _______ _______ _____ _____    ______ ____
ROOT
ATOM      1  C   UNL     1      44.932  10.747  11.179  0.00  0.00    +0.000 A 
ATOM      2  C   UNL     1      43.798  11.390  10.730  0.00  0.00    +0.000 A 
ATOM      3  C   UNL     1      42.729  10.572  10.481  0.00  0.00    +0.000 A 
ATOM      4 CL   UNL     1      41.250  11.223   9.905  0.00  0.00    +0.000 Cl
ATOM      5  N   UNL     1      42.720   9.242  10.650  0.00  0.00    +0.000 NA
ATOM      6  C   UNL     1      43.845   8.697  11.109  0.00  0.00    +0.000 A 
ATOM      7  N   UNL     1      43.799   7.336  11.341  0.00  0.00    +0.000 N 
ATOM      8  N   UNL     1      44.957   9.399  11.362  0.00  0.00    +0.000 NA
ATOM      9  H   UNL     1      43.001   6.965  10.838  0.00  0.00    +0.000 HD
ENDROOT
BRANCH   1  11
ATOM     10  F   UNL     1      45.910  12.781  12.026  0.00  0.00    +0.000 F 
ATOM     11  C   UNL     1      46.183  11.557  11.480  0.00  0.00    +0.000 C 
ATOM     12  F   UNL     1      46.928  11.816  10.369  0.00  0.00    +0.000 F 
ATOM     13  F   UNL     1      47.016  10.944  12.364  0.00  0.00    +0.000 F 
ENDBRANCH   1  11
BRANCH   7  14
ATOM     14  C   UNL     1      45.042   6.615  11.180  0.00  0.00    +0.000 C 
BRANCH  14  15
ATOM     15  C   UNL     1      44.757   5.225  10.673  0.00  0.00    +0.000 A 
ATOM     16  C   UNL     1      43.786   4.437  11.277  0.00  0.00    +0.000 A 
ATOM     17  N   UNL     1      43.489   3.179  10.888  0.00  0.00    +0.000 NA
ATOM     18  C   UNL     1      44.185   2.681   9.837  0.00  0.00    +0.000 A 
ATOM     19  C   UNL     1      45.182   3.366   9.136  0.00  0.00    +0.000 A 
ATOM     20  C   UNL     1      45.445   4.674   9.580  0.00  0.00    +0.000 A 
BRANCH  19  21
ATOM     21  C   UNL     1      45.925   2.748   8.017  0.00  0.00    +0.000 A 
ATOM     22  C   UNL     1      46.287   3.465   6.866  0.00  0.00    +0.000 A 
ATOM     23  C   UNL     1      47.021   2.860   5.846  0.00  0.00    +0.000 A 
ATOM     24  C   UNL     1      47.372   1.530   5.988  0.00  0.00    +0.000 A 
ATOM     25  N   UNL     1      47.041   0.787   7.062  0.00  0.00    +0.000 NA
ATOM     26  C   UNL     1      46.336   1.410   8.040  0.00  0.00    +0.000 A 
ENDBRANCH  19  21
ENDBRANCH  14  15
ENDBRANCH   7  14
TORSDOF 4
ENDMDL
MODEL 2
REMARK VINA RESULT:    -7.498      2.451      3.004
REMARK INTER + INTRA:          -9.759
REMARK INTER:                  -9.081
REMARK INTRA:                  -0.678
REMARK UNBOUND:                -0.508
REMARK  Name = 
REMARK  4 active torsions:
REMARK  status: ('A' for Active; 'I' for Inactive)
REMARK    1  A    between atoms: C_2  and  C_5
REMARK    2  A    between atoms: N_11  and  C_12
REMARK    3  A    between atoms: C_12  and  C_13
REMARK    4  A    between atoms: C_17  and  C_18
REMARK                            x       y       z     vdW  Elec       q    Type
REMARK                         _______ _______ _______ _____ _____    ______ ____
ROOT
ATOM      1  C   UNL     1      44.381   9.704  11.161  0.00  0.00    +0.000 A 
ATOM      2  C   UNL     1      45.460  10.537  11.369  0.00  0.00    +0.000 A 
ATOM      3  C   UNL     1      46.530   9.953  11.993  0.00  0.00    +0.000 A 
ATOM      4 CL   UNL     1      47.943  10.865  12.333  0.00  0.00    +0.000 Cl
ATOM      5  N   UNL     1      46.589   8.672  12.386  0.00  0.00    +0.000 NA
ATOM      6  C   UNL     1      45.517   7.925  12.129  0.00  0.00    +0.000 A 
ATOM      7  N   UNL     1      45.619   6.593  12.479  0.00  0.00    +0.000 N 
ATOM      8  N   UNL     1      44.408   8.399  11.547  0.00  0.00    +0.000 NA
ATOM      9  H   UNL     1      46.387   6.505  13.135  0.00  0.00    +0.000 HD
ENDROOT
BRANCH   1  11
ATOM     10  F   UNL     1      43.256  10.329   9.124  0.00  0.00    +0.000 F 
ATOM     11  C   UNL     1      43.134  10.249  10.483  0.00  0.00    +0.000 C 
ATOM     12  F   UNL     1      42.816  11.509  10.891  0.00  0.00    +0.000 F 
ATOM     13  F   UNL     1      42.029   9.484  10.703  0.00  0.00    +0.000 F 
ENDBRANCH   1  11
BRANCH   7  14
ATOM     14  C   UNL     1      44.388   5.932  12.852  0.00  0.00    +0.000 C 
BRANCH  14  15
ATOM     15  C   UNL     1      44.214   4.685  12.023  0.00  0.00    +0.000 A 
ATOM     16  C   UNL     1      43.335   3.687  12.423  0.00  0.00    +0.000 A 
ATOM     17  N   UNL     1      43.140   2.538  11.742  0.00  0.00    +0.000 NA
ATOM     18  C   UNL     1      43.847   2.377  10.596  0.00  0.00    +0.000 A 
ATOM     19  C   UNL     1      44.757   3.301  10.076  0.00  0.00    +0.000 A 
ATOM     20  C   UNL     1      44.916   4.481  10.824  0.00  0.00    +0.000 A 
BRANCH  19  21
ATOM     21  C   UNL     1      45.520   3.044   8.837  0.00  0.00    +0.000 A 
ATOM     22  C   UNL     1      46.033   1.778   8.516  0.00  0.00    +0.000 A 
ATOM     23  C   UNL     1      46.718   1.563   7.320  0.00  0.00    +0.000 A 
ATOM     24  C   UNL     1      46.893   2.632   6.462  0.00  0.00    +0.000 A 
ATOM     25  N   UNL     1      46.437   3.873   6.721  0.00  0.00    +0.000 NA
ATOM     26  C   UNL     1      45.766   4.044   7.889  0.00  0.00    +0.000 A 
ENDBRANCH  19  21
ENDBRANCH  14  15
ENDBRANCH   7  14
TORSDOF 4
ENDMDL
MODEL 3
REMARK VINA RESULT:    -7.447      6.139      7.714
REMARK INTER + INTRA:          -9.697
REMARK INTER:                  -9.016
REMARK INTRA:                  -0.680
REMARK UNBOUND:                -0.508
REMARK  Name = 
REMARK  4 active torsions:
REMARK  status: ('A' for Active; 'I' for Inactive)
REMARK    1  A    between atoms: C_2  and  C_5
REMARK    2  A    between atoms: N_11  and  C_12
REMARK    3  A    between atoms: C_12  and  C_13
REMARK    4  A    between atoms: C_17  and  C_18
REMARK                            x       y       z     vdW  Elec       q    Type
REMARK                         _______ _______ _______ _____ _____    ______ ____
ROOT
ATOM      1  C   UNL     1      48.477   4.380  16.973  0.00  0.00    +0.000 A 
ATOM      2  C   UNL     1      48.851   4.720  18.255  0.00  0.00    +0.000 A 
ATOM      3  C   UNL     1      49.112   6.050  18.448  0.00  0.00    +0.000 A 
ATOM      4 CL   UNL     1      49.602   6.626  19.989  0.00  0.00    +0.000 Cl
ATOM      5  N   UNL     1      49.020   6.999  17.506  0.00  0.00    +0.000 NA
ATOM      6  C   UNL     1      48.630   6.597  16.299  0.00  0.00    +0.000 A 
ATOM      7  N   UNL     1      48.475   7.595  15.356  0.00  0.00    +0.000 N 
ATOM      8  N   UNL     1      48.372   5.319  15.993  0.00  0.00    +0.000 NA
ATOM      9  H   UNL     1      48.973   8.413  15.690  0.00  0.00    +0.000 HD
ENDROOT
BRANCH   1  11
ATOM     10  F   UNL     1      49.259   2.111  16.758  0.00  0.00    +0.000 F 
ATOM     11  C   UNL     1      48.170   2.929  16.642  0.00  0.00    +0.000 C 
ATOM     12  F   UNL     1      47.725   2.758  15.366  0.00  0.00    +0.000 F 
ATOM     13  F   UNL     1      47.221   2.385  17.453  0.00  0.00    +0.000 F 
ENDBRANCH   1  11
BRANCH   7  14
ATOM     14  C   UNL     1      48.717   7.222  13.981  0.00  0.00    +0.000 C 
BRANCH  14  15
ATOM     15  C   UNL     1      47.427   7.286  13.205  0.00  0.00    +0.000 A 
ATOM     16  C   UNL     1      46.598   8.397  13.300  0.00  0.00    +0.000 A 
ATOM     17  N   UNL     1      45.422   8.516  12.649  0.00  0.00    +0.000 NA
ATOM     18  C   UNL     1      45.054   7.482  11.853  0.00  0.00    +0.000 A 
ATOM     19  C   UNL     1      45.793   6.312  11.661  0.00  0.00    +0.000 A 
ATOM     20  C   UNL     1      47.012   6.245  12.360  0.00  0.00    +0.000 A 
BRANCH  19  21
ATOM     21  C   UNL     1      45.314   5.208  10.803  0.00  0.00    +0.000 A 
ATOM     22  C   UNL     1      45.514   5.194   9.413  0.00  0.00    +0.000 A 
ATOM     23  C   UNL     1      45.080   4.118   8.638  0.00  0.00    +0.000 A 
ATOM     24  C   UNL     1      44.434   3.071   9.268  0.00  0.00    +0.000 A 
ATOM     25  N   UNL     1      44.201   3.036  10.594  0.00  0.00    +0.000 NA
ATOM     26  C   UNL     1      44.645   4.093  11.320  0.00  0.00    +0.000 A 
ENDBRANCH  19  21
ENDBRANCH  14  15
ENDBRANCH   7  14
TORSDOF 4
ENDMDL
MODEL 4
REMARK VINA RESULT:    -7.397      3.405      4.361
REMARK INTER + INTRA:          -9.635
REMARK INTER:                  -9.475
REMARK INTRA:                  -0.160
REMARK UNBOUND:                -0.508
REMARK  Name = 
REMARK  4 active torsions:
REMARK  status: ('A' for Active; 'I' for Inactive)
REMARK    1  A    between atoms: C_2  and  C_5
REMARK    2  A    between atoms: N_11  and  C_12
REMARK    3  A    between atoms: C_12  and  C_13
REMARK    4  A    between atoms: C_17  and  C_18
REMARK                            x       y       z     vdW  Elec       q    Type
REMARK                         _______ _______ _______ _____ _____    ______ ____
ROOT
ATOM      1  C   UNL     1      46.442   6.799  13.055  0.00  0.00    +0.000 A 
ATOM      2  C   UNL     1      47.419   6.954  14.014  0.00  0.00    +0.000 A 
ATOM      3  C   UNL     1      47.814   5.797  14.629  0.00  0.00    +0.000 A 
ATOM      4 CL   UNL     1      49.014   5.830  15.856  0.00  0.00    +0.000 Cl
ATOM      5  N   UNL     1      47.334   4.576  14.357  0.00  0.00    +0.000 NA
ATOM      6  C   UNL     1      46.409   4.504  13.402  0.00  0.00    +0.000 A 
ATOM      7  N   UNL     1      45.972   3.232  13.087  0.00  0.00    +0.000 N 
ATOM      8  N   UNL     1      45.932   5.574  12.753  0.00  0.00    +0.000 NA
ATOM      9  H   UNL     1      46.231   2.620  13.853  0.00  0.00    +0.000 HD
ENDROOT
BRANCH   1  11
ATOM     10  F   UNL     1      45.115   7.699  11.255  0.00  0.00    +0.000 F 
ATOM     11  C   UNL     1      45.921   8.019  12.312  0.00  0.00    +0.000 C 
ATOM     12  F   UNL     1      46.917   8.786  11.786  0.00  0.00    +0.000 F 
ATOM     13  F   UNL     1      45.176   8.845  13.097  0.00  0.00    +0.000 F 
ENDBRANCH   1  11
BRANCH   7  14
ATOM     14  C   UNL     1      44.609   3.120  12.617  0.00  0.00    +0.000 C 
BRANCH  14  15
ATOM     15  C   UNL     1      44.544   3.501  11.161  0.00  0.00    +0.000 A 
ATOM     16  C   UNL     1      43.684   4.503  10.729  0.00  0.00    +0.000 A 
ATOM     17  N   UNL     1      43.560   4.885   9.440  0.00  0.00    +0.000 NA
ATOM     18  C   UNL     1      44.340   4.247   8.534  0.00  0.00    +0.000 A 
ATOM     19  C   UNL     1      45.250   3.229   8.831  0.00  0.00    +0.000 A 
ATOM     20  C   UNL     1      45.342   2.876  10.189  0.00  0.00    +0.000 A 
BRANCH  19  21
ATOM     21  C   UNL     1      46.046   2.552   7.784  0.00  0.00    +0.000 A 
ATOM     22  C   UNL     1      46.410   3.187   6.587  0.00  0.00    +0.000 A 
ATOM     23  C   UNL     1      47.193   2.530   5.636  0.00  0.00    +0.000 A 
ATOM     24  C   UNL     1      47.589   1.231   5.896  0.00  0.00    +0.000 A 
ATOM     25  N   UNL     1      47.259   0.566   7.019  0.00  0.00    +0.000 NA
ATOM     26  C   UNL     1      46.506   1.238   7.927  0.00  0.00    +0.000 A 
ENDBRANCH  19  21
ENDBRANCH  14  15
ENDBRANCH   7  14
TORSDOF 4
ENDMDL
MODEL 5
REMARK VINA RESULT:    -7.316      5.058      5.968
REMARK INTER + INTRA:          -9.535
REMARK INTER:                  -9.066
REMARK INTRA:                  -0.469
REMARK UNBOUND:                -0.508
REMARK  Name = 
REMARK  4 active torsions:
REMARK  status: ('A' for Active; 'I' for Inactive)
REMARK    1  A    between atoms: C_2  and  C_5
REMARK    2  A    between atoms: N_11  and  C_12
REMARK    3  A    between atoms: C_12  and  C_13
REMARK    4  A    between atoms: C_17  and  C_18
REMARK                            x       y       z     vdW  Elec       q    Type
REMARK                         _______ _______ _______ _____ _____    ______ ____
ROOT
ATOM      1  C   UNL     1      48.704   6.010  15.923  0.00  0.00    +0.000 A 
ATOM      2  C   UNL     1      48.955   5.326  17.093  0.00  0.00    +0.000 A 
ATOM      3  C   UNL     1      48.253   4.160  17.244  0.00  0.00    +0.000 A 
ATOM      4 CL   UNL     1      48.448   3.203  18.655  0.00  0.00    +0.000 Cl
ATOM      5  N   UNL     1      47.381   3.664  16.355  0.00  0.00    +0.000 NA
ATOM      6  C   UNL     1      47.210   4.370  15.239  0.00  0.00    +0.000 A 
ATOM      7  N   UNL     1      46.359   3.813  14.304  0.00  0.00    +0.000 N 
ATOM      8  N   UNL     1      47.826   5.535  14.999  0.00  0.00    +0.000 NA
ATOM      9  H   UNL     1      45.801   3.111  14.776  0.00  0.00    +0.000 HD
ENDROOT
BRANCH   1  11
ATOM     10  F   UNL     1      48.572   8.345  15.344  0.00  0.00    +0.000 F 
ATOM     11  C   UNL     1      49.423   7.322  15.653  0.00  0.00    +0.000 C 
ATOM     12  F   UNL     1      50.291   7.246  14.605  0.00  0.00    +0.000 F 
ATOM     13  F   UNL     1      50.148   7.763  16.718  0.00  0.00    +0.000 F 
ENDBRANCH   1  11
BRANCH   7  14
ATOM     14  C   UNL     1      45.635   4.740  13.463  0.00  0.00    +0.000 C 
BRANCH  14  15
ATOM     15  C   UNL     1      45.002   3.993  12.317  0.00  0.00    +0.000 A 
ATOM     16  C   UNL     1      43.748   3.413  12.458  0.00  0.00    +0.000 A 
ATOM     17  N   UNL     1      43.127   2.716  11.483  0.00  0.00    +0.000 NA
ATOM     18  C   UNL     1      43.781   2.598  10.302  0.00  0.00    +0.000 A 
ATOM     19  C   UNL     1      45.041   3.135  10.023  0.00  0.00    +0.000 A 
ATOM     20  C   UNL     1      45.637   3.856  11.073  0.00  0.00    +0.000 A 
BRANCH  19  21
ATOM     21  C   UNL     1      45.711   2.939   8.720  0.00  0.00    +0.000 A 
ATOM     22  C   UNL     1      46.172   1.685   8.292  0.00  0.00    +0.000 A 
ATOM     23  C   UNL     1      46.769   1.529   7.040  0.00  0.00    +0.000 A 
ATOM     24  C   UNL     1      46.909   2.644   6.235  0.00  0.00    +0.000 A 
ATOM     25  N   UNL     1      46.499   3.875   6.597  0.00  0.00    +0.000 NA
ATOM     26  C   UNL     1      45.914   3.989   7.817  0.00  0.00    +0.000 A 
ENDBRANCH  19  21
ENDBRANCH  14  15
ENDBRANCH   7  14
TORSDOF 4
ENDMDL
MODEL 6
REMARK VINA RESULT:    -7.059      1.678      2.024
REMARK INTER + INTRA:          -9.217
REMARK INTER:                  -8.599
REMARK INTRA:                  -0.618
REMARK UNBOUND:                -0.508
REMARK  Name = 
REMARK  4 active torsions:
REMARK  status: ('A' for Active; 'I' for Inactive)
REMARK    1  A    between atoms: C_2  and  C_5
REMARK    2  A    between atoms: N_11  and  C_12
REMARK    3  A    between atoms: C_12  and  C_13
REMARK    4  A    between atoms: C_17  and  C_18
REMARK                            x       y       z     vdW  Elec       q    Type
REMARK                         _______ _______ _______ _____ _____    ______ ____
ROOT
ATOM      1  C   UNL     1      46.958  10.982  11.291  0.00  0.00    +0.000 A 
ATOM      2  C   UNL     1      45.980  11.899  10.973  0.00  0.00    +0.000 A 
ATOM      3  C   UNL     1      44.708  11.532  11.322  0.00  0.00    +0.000 A 
ATOM      4 CL   UNL     1      43.380  12.564  10.980  0.00  0.00    +0.000 Cl
ATOM      5  N   UNL     1      44.376  10.387  11.935  0.00  0.00    +0.000 NA
ATOM      6  C   UNL     1      45.379   9.563  12.231  0.00  0.00    +0.000 A 
ATOM      7  N   UNL     1      45.029   8.419  12.922  0.00  0.00    +0.000 N 
ATOM      8  N   UNL     1      46.656   9.810  11.914  0.00  0.00    +0.000 NA
ATOM      9  H   UNL     1      44.029   8.288  12.814  0.00  0.00    +0.000 HD
ENDROOT
BRANCH   1  11
ATOM     10  F   UNL     1      48.976  12.210  11.770  0.00  0.00    +0.000 F 
ATOM     11  C   UNL     1      48.408  11.281  10.943  0.00  0.00    +0.000 C 
ATOM     12  F   UNL     1      48.559  11.779   9.684  0.00  0.00    +0.000 F 
ATOM     13  F   UNL     1      49.213  10.187  11.021  0.00  0.00    +0.000 F 
ENDBRANCH   1  11
BRANCH   7  14
ATOM     14  C   UNL     1      45.851   7.253  12.689  0.00  0.00    +0.000 C 
BRANCH  14  15
ATOM     15  C   UNL     1      45.061   6.224  11.920  0.00  0.00    +0.000 A 
ATOM     16  C   UNL     1      43.729   5.980  12.228  0.00  0.00    +0.000 A 
ATOM     17  N   UNL     1      42.966   5.063  11.595  0.00  0.00    +0.000 NA
ATOM     18  C   UNL     1      43.554   4.361  10.596  0.00  0.00    +0.000 A 
ATOM     19  C   UNL     1      44.879   4.510  10.179  0.00  0.00    +0.000 A 
ATOM     20  C   UNL     1      45.625   5.483  10.870  0.00  0.00    +0.000 A 
BRANCH  19  21
ATOM     21  C   UNL     1      45.465   3.685   9.102  0.00  0.00    +0.000 A 
ATOM     22  C   UNL     1      46.096   4.247   7.981  0.00  0.00    +0.000 A 
ATOM     23  C   UNL     1      46.670   3.438   7.000  0.00  0.00    +0.000 A 
ATOM     24  C   UNL     1      46.591   2.066   7.151  0.00  0.00    +0.000 A 
ATOM     25  N   UNL     1      45.987   1.469   8.197  0.00  0.00    +0.000 NA
ATOM     26  C   UNL     1      45.448   2.286   9.137  0.00  0.00    +0.000 A 
ENDBRANCH  19  21
ENDBRANCH  14  15
ENDBRANCH   7  14
TORSDOF 4
ENDMDL
MODEL 7
REMARK VINA RESULT:    -6.870      5.515      8.036
REMARK INTER + INTRA:          -8.985
REMARK INTER:                  -8.359
REMARK INTRA:                  -0.626
REMARK UNBOUND:                -0.508
REMARK  Name = 
REMARK  4 active torsions:
REMARK  status: ('A' for Active; 'I' for Inactive)
REMARK    1  A    between atoms: C_2  and  C_5
REMARK    2  A    between atoms: N_11  and  C_12
REMARK    3  A    between atoms: C_12  and  C_13
REMARK    4  A    between atoms: C_17  and  C_18
REMARK                            x       y       z     vdW  Elec       q    Type
REMARK                         _______ _______ _______ _____ _____    ______ ____
ROOT
ATOM      1  C   UNL     1      45.441   3.855   9.228  0.00  0.00    +0.000 A 
ATOM      2  C   UNL     1      44.623   2.948   9.868  0.00  0.00    +0.000 A 
ATOM      3  C   UNL     1      44.188   3.335  11.107  0.00  0.00    +0.000 A 
ATOM      4 CL   UNL     1      43.173   2.307  12.033  0.00  0.00    +0.000 Cl
ATOM      5  N   UNL     1      44.491   4.497  11.702  0.00  0.00    +0.000 NA
ATOM      6  C   UNL     1      45.266   5.330  11.012  0.00  0.00    +0.000 A 
ATOM      7  N   UNL     1      45.515   6.551  11.610  0.00  0.00    +0.000 N 
ATOM      8  N   UNL     1      45.768   5.044   9.804  0.00  0.00    +0.000 NA
ATOM      9  H   UNL     1      45.294   6.461  12.596  0.00  0.00    +0.000 HD
ENDROOT
BRANCH   1  11
ATOM     10  F   UNL     1      45.022   3.486   6.884  0.00  0.00    +0.000 F 
ATOM     11  C   UNL     1      45.990   3.526   7.849  0.00  0.00    +0.000 C 
ATOM     12  F   UNL     1      46.601   2.310   7.797  0.00  0.00    +0.000 F 
ATOM     13  F   UNL     1      46.904   4.432   7.408  0.00  0.00    +0.000 F 
ENDBRANCH   1  11
BRANCH   7  14
ATOM     14  C   UNL     1      46.782   7.172  11.297  0.00  0.00    +0.000 C 
BRANCH  14  15
ATOM     15  C   UNL     1      47.669   7.151  12.515  0.00  0.00    +0.000 A 
ATOM     16  C   UNL     1      48.757   8.008  12.613  0.00  0.00    +0.000 A 
ATOM     17  N   UNL     1      49.604   8.033  13.664  0.00  0.00    +0.000 NA
ATOM     18  C   UNL     1      49.349   7.169  14.677  0.00  0.00    +0.000 A 
ATOM     19  C   UNL     1      48.289   6.260  14.712  0.00  0.00    +0.000 A 
ATOM     20  C   UNL     1      47.436   6.282  13.593  0.00  0.00    +0.000 A 
BRANCH  19  21
ATOM     21  C   UNL     1      48.090   5.322  15.836  0.00  0.00    +0.000 A 
ATOM     22  C   UNL     1      48.716   5.494  17.081  0.00  0.00    +0.000 A 
ATOM     23  C   UNL     1      48.478   4.609  18.132  0.00  0.00    +0.000 A 
ATOM     24  C   UNL     1      47.620   3.547  17.915  0.00  0.00    +0.000 A 
ATOM     25  N   UNL     1      47.002   3.322  16.740  0.00  0.00    +0.000 NA
ATOM     26  C   UNL     1      47.248   4.208  15.742  0.00  0.00    +0.000 A 
ENDBRANCH  19  21
ENDBRANCH  14  15
ENDBRANCH   7  14
TORSDOF 4
ENDMDL
MODEL 8
REMARK VINA RESULT:    -6.807      7.528      8.732
REMARK INTER + INTRA:          -8.907
REMARK INTER:                  -8.423
REMARK INTRA:                  -0.484
REMARK UNBOUND:                -0.508
REMARK  Name = 
REMARK  4 active torsions:
REMARK  status: ('A' for Active; 'I' for Inactive)
REMARK    1  A    between atoms: C_2  and  C_5
REMARK    2  A    between atoms: N_11  and  C_12
REMARK    3  A    between atoms: C_12  and  C_13
REMARK    4  A    between atoms: C_17  and  C_18
REMARK                            x       y       z     vdW  Elec       q    Type
REMARK                         _______ _______ _______ _____ _____    ______ ____
ROOT
ATOM      1  C   UNL     1      44.895   4.897  11.654  0.00  0.00    +0.000 A 
ATOM      2  C   UNL     1      44.671   6.203  11.274  0.00  0.00    +0.000 A 
ATOM      3  C   UNL     1      45.277   7.146  12.059  0.00  0.00    +0.000 A 
ATOM      4 CL   UNL     1      45.081   8.817  11.721  0.00  0.00    +0.000 Cl
ATOM      5  N   UNL     1      46.050   6.884  13.123  0.00  0.00    +0.000 NA
ATOM      6  C   UNL     1      46.239   5.599  13.413  0.00  0.00    +0.000 A 
ATOM      7  N   UNL     1      47.090   5.343  14.470  0.00  0.00    +0.000 N 
ATOM      8  N   UNL     1      45.675   4.596  12.728  0.00  0.00    +0.000 NA
ATOM      9  H   UNL     1      47.178   6.198  15.008  0.00  0.00    +0.000 HD
ENDROOT
BRANCH   1  11
ATOM     10  F   UNL     1      43.732   4.181   9.669  0.00  0.00    +0.000 F 
ATOM     11  C   UNL     1      44.264   3.766  10.858  0.00  0.00    +0.000 C 
ATOM     12  F   UNL     1      43.240   3.159  11.520  0.00  0.00    +0.000 F 
ATOM     13  F   UNL     1      45.148   2.782  10.536  0.00  0.00    +0.000 F 
ENDBRANCH   1  11
BRANCH   7  14
ATOM     14  C   UNL     1      46.829   4.140  15.228  0.00  0.00    +0.000 C 
BRANCH  14  15
ATOM     15  C   UNL     1      47.669   4.139  16.479  0.00  0.00    +0.000 A 
ATOM     16  C   UNL     1      47.241   4.803  17.621  0.00  0.00    +0.000 A 
ATOM     17  N   UNL     1      47.948   4.859  18.769  0.00  0.00    +0.000 NA
ATOM     18  C   UNL     1      49.138   4.210  18.789  0.00  0.00    +0.000 A 
ATOM     19  C   UNL     1      49.684   3.500  17.717  0.00  0.00    +0.000 A 
ATOM     20  C   UNL     1      48.902   3.471  16.549  0.00  0.00    +0.000 A 
BRANCH  19  21
ATOM     21  C   UNL     1      51.006   2.843  17.798  0.00  0.00    +0.000 A 
ATOM     22  C   UNL     1      51.216   1.518  17.387  0.00  0.00    +0.000 A 
ATOM     23  C   UNL     1      52.485   0.941  17.444  0.00  0.00    +0.000 A 
ATOM     24  C   UNL     1      53.531   1.703  17.930  0.00  0.00    +0.000 A 
ATOM     25  N   UNL     1      53.389   2.973  18.352  0.00  0.00    +0.000 NA
ATOM     26  C   UNL     1      52.144   3.506  18.274  0.00  0.00    +0.000 A 
ENDBRANCH  19  21
ENDBRANCH  14  15
ENDBRANCH   7  14
TORSDOF 4
ENDMDL
MODEL 9
REMARK VINA RESULT:    -6.619      6.972      9.401
REMARK INTER + INTRA:          -8.674
REMARK INTER:                  -8.163
REMARK INTRA:                  -0.512
REMARK UNBOUND:                -0.508
REMARK  Name = 
REMARK  4 active torsions:
REMARK  status: ('A' for Active; 'I' for Inactive)
REMARK    1  A    between atoms: C_2  and  C_5
REMARK    2  A    between atoms: N_11  and  C_12
REMARK    3  A    between atoms: C_12  and  C_13
REMARK    4  A    between atoms: C_17  and  C_18
REMARK                            x       y       z     vdW  Elec       q    Type
REMARK                         _______ _______ _______ _____ _____    ______ ____
ROOT
ATOM      1  C   UNL     1      45.256   5.491  11.414  0.00  0.00    +0.000 A 
ATOM      2  C   UNL     1      44.979   6.831  11.246  0.00  0.00    +0.000 A 
ATOM      3  C   UNL     1      45.485   7.652  12.216  0.00  0.00    +0.000 A 
ATOM      4 CL   UNL     1      45.213   9.346  12.153  0.00  0.00    +0.000 Cl
ATOM      5  N   UNL     1      46.210   7.248  13.269  0.00  0.00    +0.000 NA
ATOM      6  C   UNL     1      46.456   5.942  13.350  0.00  0.00    +0.000 A 
ATOM      7  N   UNL     1      47.259   5.548  14.402  0.00  0.00    +0.000 N 
ATOM      8  N   UNL     1      45.989   5.046  12.470  0.00  0.00    +0.000 NA
ATOM      9  H   UNL     1      47.267   6.301  15.081  0.00  0.00    +0.000 HD
ENDROOT
BRANCH   1  11
ATOM     10  F   UNL     1      43.374   4.487  10.293  0.00  0.00    +0.000 F 
ATOM     11  C   UNL     1      44.737   4.485  10.399  0.00  0.00    +0.000 C 
ATOM     12  F   UNL     1      45.073   3.201  10.704  0.00  0.00    +0.000 F 
ATOM     13  F   UNL     1      45.198   4.712   9.138  0.00  0.00    +0.000 F 
ENDBRANCH   1  11
BRANCH   7  14
ATOM     14  C   UNL     1      47.024   4.222  14.928  0.00  0.00    +0.000 C 
BRANCH  14  15
ATOM     15  C   UNL     1      47.586   4.125  16.323  0.00  0.00    +0.000 A 
ATOM     16  C   UNL     1      48.304   3.005  16.720  0.00  0.00    +0.000 A 
ATOM     17  N   UNL     1      48.821   2.842  17.957  0.00  0.00    +0.000 NA
ATOM     18  C   UNL     1      48.624   3.849  18.842  0.00  0.00    +0.000 A 
ATOM     19  C   UNL     1      47.927   5.031  18.573  0.00  0.00    +0.000 A 
ATOM     20  C   UNL     1      47.416   5.149  17.268  0.00  0.00    +0.000 A 
BRANCH  19  21
ATOM     21  C   UNL     1      47.721   6.075  19.599  0.00  0.00    +0.000 A 
ATOM     22  C   UNL     1      47.666   5.783  20.971  0.00  0.00    +0.000 A 
ATOM     23  C   UNL     1      47.506   6.798  21.914  0.00  0.00    +0.000 A 
ATOM     24  C   UNL     1      47.387   8.100  21.465  0.00  0.00    +0.000 A 
ATOM     25  N   UNL     1      47.418   8.440  20.162  0.00  0.00    +0.000 NA
ATOM     26  C   UNL     1      47.585   7.429  19.272  0.00  0.00    +0.000 A 
ENDBRANCH  19  21
ENDBRANCH  14  15
ENDBRANCH   7  14
TORSDOF 4
ENDMDL
