MODEL 1
REMARK VINA RESULT:    -7.673      0.000      0.000
REMARK INTER + INTRA:         -10.884
REMARK INTER:                 -10.140
REMARK INTRA:                  -0.744
REMARK UNBOUND:                -0.744
REMARK  Name = 
REMARK  6 active torsions:
REMARK  status: ('A' for Active; 'I' for Inactive)
REMARK    1  A    between atoms: N_1  and  C_2
REMARK    2  A    between atoms: C_2  and  N_3
REMARK    3  A    between atoms: C_2  and  C_16
REMARK    4  A    between atoms: C_4  and  C_6
REMARK    5  A    between atoms: C_19  and  C_20
REMARK    6  A    between atoms: C_21  and  C_22
REMARK                            x       y       z     vdW  Elec       q    Type
REMARK                         _______ _______ _______ _____ _____    ______ ____
ROOT
ATOM      1  C   UNL     1      44.233   5.788  12.797  0.00  0.00    +0.000 C 
ENDROOT
BRANCH   1   2
ATOM      2  C   UNL     1      44.580   5.138  11.470  0.00  0.00    +0.000 A 
ATOM      3  C   UNL     1      45.458   5.765  10.575  0.00  0.00    +0.000 A 
ATOM      4  C   UNL     1      45.787   5.160   9.357  0.00  0.00    +0.000 A 
ATOM      5  C   UNL     1      45.258   3.912   9.006  0.00  0.00    +0.000 A 
ATOM      6  C   UNL     1      44.372   3.287   9.891  0.00  0.00    +0.000 A 
ATOM      7  C   UNL     1      44.042   3.889  11.107  0.00  0.00    +0.000 A 
BRANCH   5   8
ATOM      8  C   UNL     1      45.534   3.263   7.718  0.00  0.00    +0.000 C 
ATOM      9  C   UNL     1      46.485   2.337   7.509  0.00  0.00    +0.000 C 
BRANCH   9  10
ATOM     10  C   UNL     1      46.732   1.713   6.200  0.00  0.00    +0.000 A 
ATOM     11  C   UNL     1      46.662   2.474   5.037  0.00  0.00    +0.000 A 
ATOM     12  C   UNL     1      46.905   1.855   3.813  0.00  0.00    +0.000 A 
ATOM     13  C   UNL     1      47.207   0.499   3.784  0.00  0.00    +0.000 A 
ATOM     14  C   UNL     1      47.254  -0.184   4.985  0.00  0.00    +0.000 A 
ATOM     15  N   UNL     1      47.025   0.392   6.185  0.00  0.00    +0.000 NA
ENDBRANCH   9  10
ENDBRANCH   5   8
ENDBRANCH   1   2
BRANCH   1  16
ATOM     16  N   UNL     1      45.433   6.037  13.539  0.00  0.00    +0.000 N 
ATOM     17  C   UNL     1      46.254   5.056  14.030  0.00  0.00    +0.000 C 
ATOM     18  O   UNL     1      46.086   3.865  13.785  0.00  0.00    +0.000 OA
ATOM     19  H   UNL     1      45.400   6.897  14.074  0.00  0.00    +0.000 HD
BRANCH  17  20
ATOM     20  C   UNL     1      47.439   5.534  14.755  0.00  0.00    +0.000 A 
ATOM     21  C   UNL     1      48.263   6.493  14.184  0.00  0.00    +0.000 A 
ATOM     22  S   UNL     1      49.534   6.992  15.206  0.00  0.00    +0.000 S 
ATOM     23  C   UNL     1      49.057   5.904  16.426  0.00  0.00    +0.000 A 
ATOM     24  N   UNL     1      49.748   5.807  17.593  0.00  0.00    +0.000 NA
ATOM     25  C   UNL     1      49.284   4.926  18.416  0.00  0.00    +0.000 A 
ATOM     26  N   UNL     1      48.191   4.133  18.178  0.00  0.00    +0.000 N 
ATOM     27  C   UNL     1      47.454   4.209  17.022  0.00  0.00    +0.000 A 
ATOM     28  O   UNL     1      46.466   3.508  16.843  0.00  0.00    +0.000 OA
ATOM     29  C   UNL     1      47.935   5.183  16.062  0.00  0.00    +0.000 A 
ATOM     30  H   UNL     1      47.874   3.463  18.866  0.00  0.00    +0.000 HD
ENDBRANCH  17  20
ENDBRANCH   1  16
BRANCH   1  31
ATOM     31  N   UNL     1      43.420   4.903  13.600  0.00  0.00    +0.000 NA
ATOM     32  H   UNL     1      42.739   4.485  12.963  0.00  0.00    +0.000 HD
ATOM     33  H   UNL     1      42.870   5.475  14.233  0.00  0.00    +0.000 HD
ENDBRANCH   1  31
TORSDOF 6
ENDMDL
MODEL 2
REMARK VINA RESULT:    -7.652      4.505      9.430
REMARK INTER + INTRA:         -10.856
REMARK INTER:                 -10.121
REMARK INTRA:                  -0.735
REMARK UNBOUND:                -0.744
REMARK  Name = 
REMARK  6 active torsions:
REMARK  status: ('A' for Active; 'I' for Inactive)
REMARK    1  A    between atoms: N_1  and  C_2
REMARK    2  A    between atoms: C_2  and  N_3
REMARK    3  A    between atoms: C_2  and  C_16
REMARK    4  A    between atoms: C_4  and  C_6
REMARK    5  A    between atoms: C_19  and  C_20
REMARK    6  A    between atoms: C_21  and  C_22
REMARK                            x       y       z     vdW  Elec       q    Type
REMARK                         _______ _______ _______ _____ _____    ______ ____
ROOT
ATOM      1  C   UNL     1      48.742   6.103  17.115  0.00  0.00    +0.000 C 
ENDROOT
BRANCH   1   2
ATOM      2  C   UNL     1      49.519   4.802  17.218  0.00  0.00    +0.000 A 
ATOM      3  C   UNL     1      48.898   3.576  16.952  0.00  0.00    +0.000 A 
ATOM      4  C   UNL     1      49.618   2.378  17.035  0.00  0.00    +0.000 A 
ATOM      5  C   UNL     1      50.976   2.376  17.376  0.00  0.00    +0.000 A 
ATOM      6  C   UNL     1      51.598   3.597  17.654  0.00  0.00    +0.000 A 
ATOM      7  C   UNL     1      50.882   4.794  17.572  0.00  0.00    +0.000 A 
BRANCH   5   8
ATOM      8  C   UNL     1      51.757   1.142  17.525  0.00  0.00    +0.000 C 
ATOM      9  C   UNL     1      53.092   1.087  17.667  0.00  0.00    +0.000 C 
BRANCH   9  10
ATOM     10  C   UNL     1      53.839  -0.172  17.811  0.00  0.00    +0.000 A 
ATOM     11  C   UNL     1      54.468  -0.744  16.708  0.00  0.00    +0.000 A 
ATOM     12  C   UNL     1      55.170  -1.934  16.878  0.00  0.00    +0.000 A 
ATOM     13  C   UNL     1      55.222  -2.522  18.136  0.00  0.00    +0.000 A 
ATOM     14  C   UNL     1      54.568  -1.889  19.177  0.00  0.00    +0.000 A 
ATOM     15  N   UNL     1      53.882  -0.734  19.042  0.00  0.00    +0.000 NA
ENDBRANCH   9  10
ENDBRANCH   5   8
ENDBRANCH   1   2
BRANCH   1  16
ATOM     16  N   UNL     1      47.887   6.061  15.967  0.00  0.00    +0.000 N 
ATOM     17  C   UNL     1      48.287   6.376  14.695  0.00  0.00    +0.000 C 
ATOM     18  O   UNL     1      49.454   6.625  14.408  0.00  0.00    +0.000 OA
ATOM     19  H   UNL     1      46.915   6.251  16.187  0.00  0.00    +0.000 HD
BRANCH  17  20
ATOM     20  C   UNL     1      47.248   6.257  13.663  0.00  0.00    +0.000 A 
ATOM     21  C   UNL     1      46.795   7.388  13.000  0.00  0.00    +0.000 A 
ATOM     22  S   UNL     1      45.658   7.046  11.775  0.00  0.00    +0.000 S 
ATOM     23  C   UNL     1      45.693   5.380  12.126  0.00  0.00    +0.000 A 
ATOM     24  N   UNL     1      44.918   4.499  11.440  0.00  0.00    +0.000 NA
ATOM     25  C   UNL     1      45.033   3.272  11.829  0.00  0.00    +0.000 A 
ATOM     26  N   UNL     1      45.854   2.847  12.842  0.00  0.00    +0.000 N 
ATOM     27  C   UNL     1      46.665   3.699  13.550  0.00  0.00    +0.000 A 
ATOM     28  O   UNL     1      47.408   3.292  14.434  0.00  0.00    +0.000 OA
ATOM     29  C   UNL     1      46.571   5.090  13.153  0.00  0.00    +0.000 A 
ATOM     30  H   UNL     1      45.902   1.870  13.097  0.00  0.00    +0.000 HD
ENDBRANCH  17  20
ENDBRANCH   1  16
BRANCH   1  31
ATOM     31  N   UNL     1      49.642   7.219  16.928  0.00  0.00    +0.000 NA
ATOM     32  H   UNL     1      50.584   6.825  16.898  0.00  0.00    +0.000 HD
ATOM     33  H   UNL     1      49.619   7.781  17.774  0.00  0.00    +0.000 HD
ENDBRANCH   1  31
TORSDOF 6
ENDMDL
MODEL 3
REMARK VINA RESULT:    -7.284      1.396      2.154
REMARK INTER + INTRA:         -10.369
REMARK INTER:                  -9.514
REMARK INTRA:                  -0.856
REMARK UNBOUND:                -0.744
REMARK  Name = 
REMARK  6 active torsions:
REMARK  status: ('A' for Active; 'I' for Inactive)
REMARK    1  A    between atoms: N_1  and  C_2
REMARK    2  A    between atoms: C_2  and  N_3
REMARK    3  A    between atoms: C_2  and  C_16
REMARK    4  A    between atoms: C_4  and  C_6
REMARK    5  A    between atoms: C_19  and  C_20
REMARK    6  A    between atoms: C_21  and  C_22
REMARK                            x       y       z     vdW  Elec       q    Type
REMARK                         _______ _______ _______ _____ _____    ______ ____
ROOT
ATOM      1  C   UNL     1      44.198   6.005  12.602  0.00  0.00    +0.000 C 
ENDROOT
BRANCH   1   2
ATOM      2  C   UNL     1      44.579   5.333  11.295  0.00  0.00    +0.000 A 
ATOM      3  C   UNL     1      45.554   5.894  10.461  0.00  0.00    +0.000 A 
ATOM      4  C   UNL     1      45.914   5.268   9.262  0.00  0.00    +0.000 A 
ATOM      5  C   UNL     1      45.317   4.063   8.871  0.00  0.00    +0.000 A 
ATOM      6  C   UNL     1      44.335   3.504   9.695  0.00  0.00    +0.000 A 
ATOM      7  C   UNL     1      43.973   4.127  10.892  0.00  0.00    +0.000 A 
BRANCH   5   8
ATOM      8  C   UNL     1      45.626   3.398   7.599  0.00  0.00    +0.000 C 
ATOM      9  C   UNL     1      46.404   2.310   7.466  0.00  0.00    +0.000 C 
BRANCH   9  10
ATOM     10  C   UNL     1      46.691   1.675   6.171  0.00  0.00    +0.000 A 
ATOM     11  C   UNL     1      46.676   2.431   5.001  0.00  0.00    +0.000 A 
ATOM     12  C   UNL     1      46.956   1.801   3.791  0.00  0.00    +0.000 A 
ATOM     13  C   UNL     1      47.238   0.440   3.780  0.00  0.00    +0.000 A 
ATOM     14  C   UNL     1      47.230  -0.236   4.986  0.00  0.00    +0.000 A 
ATOM     15  N   UNL     1      46.965   0.350   6.174  0.00  0.00    +0.000 NA
ENDBRANCH   9  10
ENDBRANCH   5   8
ENDBRANCH   1   2
BRANCH   1  16
ATOM     16  N   UNL     1      45.330   6.028  13.478  0.00  0.00    +0.000 N 
ATOM     17  C   UNL     1      45.966   4.909  13.948  0.00  0.00    +0.000 C 
ATOM     18  O   UNL     1      45.681   3.776  13.571  0.00  0.00    +0.000 OA
ATOM     19  H   UNL     1      45.344   6.836  14.090  0.00  0.00    +0.000 HD
BRANCH  17  20
ATOM     20  C   UNL     1      47.114   5.163  14.829  0.00  0.00    +0.000 A 
ATOM     21  C   UNL     1      47.240   4.468  16.022  0.00  0.00    +0.000 A 
ATOM     22  S   UNL     1      48.679   4.826  16.867  0.00  0.00    +0.000 S 
ATOM     23  C   UNL     1      49.155   5.961  15.691  0.00  0.00    +0.000 A 
ATOM     24  N   UNL     1      50.314   6.661  15.817  0.00  0.00    +0.000 NA
ATOM     25  C   UNL     1      50.536   7.501  14.860  0.00  0.00    +0.000 A 
ATOM     26  N   UNL     1      49.703   7.705  13.789  0.00  0.00    +0.000 N 
ATOM     27  C   UNL     1      48.533   7.009  13.614  0.00  0.00    +0.000 A 
ATOM     28  O   UNL     1      47.818   7.189  12.636  0.00  0.00    +0.000 OA
ATOM     29  C   UNL     1      48.236   6.053  14.663  0.00  0.00    +0.000 A 
ATOM     30  H   UNL     1      49.935   8.376  13.070  0.00  0.00    +0.000 HD
ENDBRANCH  17  20
ENDBRANCH   1  16
BRANCH   1  31
ATOM     31  N   UNL     1      43.161   5.255  13.276  0.00  0.00    +0.000 NA
ATOM     32  H   UNL     1      42.811   4.577  12.596  0.00  0.00    +0.000 HD
ATOM     33  H   UNL     1      42.382   5.885  13.444  0.00  0.00    +0.000 HD
ENDBRANCH   1  31
TORSDOF 6
ENDMDL
MODEL 4
REMARK VINA RESULT:    -7.137      5.122      6.522
REMARK INTER + INTRA:         -10.175
REMARK INTER:                  -9.285
REMARK INTRA:                  -0.890
REMARK UNBOUND:                -0.744
REMARK  Name = 
REMARK  6 active torsions:
REMARK  status: ('A' for Active; 'I' for Inactive)
REMARK    1  A    between atoms: N_1  and  C_2
REMARK    2  A    between atoms: C_2  and  N_3
REMARK    3  A    between atoms: C_2  and  C_16
REMARK    4  A    between atoms: C_4  and  C_6
REMARK    5  A    between atoms: C_19  and  C_20
REMARK    6  A    between atoms: C_21  and  C_22
REMARK                            x       y       z     vdW  Elec       q    Type
REMARK                         _______ _______ _______ _____ _____    ______ ____
ROOT
ATOM      1  C   UNL     1      46.514   4.173  14.516  0.00  0.00    +0.000 C 
ENDROOT
BRANCH   1   2
ATOM      2  C   UNL     1      46.060   5.371  13.700  0.00  0.00    +0.000 A 
ATOM      3  C   UNL     1      46.928   6.445  13.465  0.00  0.00    +0.000 A 
ATOM      4  C   UNL     1      46.513   7.543  12.702  0.00  0.00    +0.000 A 
ATOM      5  C   UNL     1      45.228   7.591  12.148  0.00  0.00    +0.000 A 
ATOM      6  C   UNL     1      44.354   6.526  12.390  0.00  0.00    +0.000 A 
ATOM      7  C   UNL     1      44.766   5.429  13.151  0.00  0.00    +0.000 A 
BRANCH   5   8
ATOM      8  C   UNL     1      44.733   8.744  11.385  0.00  0.00    +0.000 C 
ATOM      9  C   UNL     1      43.468   8.901  10.959  0.00  0.00    +0.000 C 
BRANCH   9  10
ATOM     10  C   UNL     1      43.012  10.071  10.194  0.00  0.00    +0.000 A 
ATOM     11  C   UNL     1      43.878  10.711   9.310  0.00  0.00    +0.000 A 
ATOM     12  C   UNL     1      43.415  11.814   8.597  0.00  0.00    +0.000 A 
ATOM     13  C   UNL     1      42.109  12.249   8.787  0.00  0.00    +0.000 A 
ATOM     14  C   UNL     1      41.317  11.558   9.686  0.00  0.00    +0.000 A 
ATOM     15  N   UNL     1      41.738  10.485  10.388  0.00  0.00    +0.000 NA
ENDBRANCH   9  10
ENDBRANCH   5   8
ENDBRANCH   1   2
BRANCH   1  16
ATOM     16  N   UNL     1      47.348   4.615  15.594  0.00  0.00    +0.000 N 
ATOM     17  C   UNL     1      47.268   4.139  16.876  0.00  0.00    +0.000 C 
ATOM     18  O   UNL     1      46.535   3.207  17.194  0.00  0.00    +0.000 OA
ATOM     19  H   UNL     1      47.651   5.577  15.495  0.00  0.00    +0.000 HD
BRANCH  17  20
ATOM     20  C   UNL     1      48.227   4.724  17.823  0.00  0.00    +0.000 A 
ATOM     21  C   UNL     1      47.864   5.820  18.591  0.00  0.00    +0.000 A 
ATOM     22  S   UNL     1      49.070   6.303  19.697  0.00  0.00    +0.000 S 
ATOM     23  C   UNL     1      50.138   5.097  19.149  0.00  0.00    +0.000 A 
ATOM     24  N   UNL     1      51.384   4.967  19.676  0.00  0.00    +0.000 NA
ATOM     25  C   UNL     1      52.091   4.022  19.149  0.00  0.00    +0.000 A 
ATOM     26  N   UNL     1      51.664   3.195  18.141  0.00  0.00    +0.000 N 
ATOM     27  C   UNL     1      50.409   3.281  17.591  0.00  0.00    +0.000 A 
ATOM     28  O   UNL     1      50.041   2.515  16.709  0.00  0.00    +0.000 OA
ATOM     29  C   UNL     1      49.575   4.328  18.147  0.00  0.00    +0.000 A 
ATOM     30  H   UNL     1      52.264   2.471  17.773  0.00  0.00    +0.000 HD
ENDBRANCH  17  20
ENDBRANCH   1  16
BRANCH   1  31
ATOM     31  N   UNL     1      47.313   3.279  13.707  0.00  0.00    +0.000 NA
ATOM     32  H   UNL     1      46.860   2.365  13.761  0.00  0.00    +0.000 HD
ATOM     33  H   UNL     1      48.208   3.157  14.171  0.00  0.00    +0.000 HD
ENDBRANCH   1  31
TORSDOF 6
ENDMDL
MODEL 5
REMARK VINA RESULT:    -6.557      2.110      3.408
REMARK INTER + INTRA:          -9.409
REMARK INTER:                  -8.265
REMARK INTRA:                  -1.145
REMARK UNBOUND:                -0.744
REMARK  Name = 
REMARK  6 active torsions:
REMARK  status: ('A' for Active; 'I' for Inactive)
REMARK    1  A    between atoms: N_1  and  C_2
REMARK    2  A    between atoms: C_2  and  N_3
REMARK    3  A    between atoms: C_2  and  C_16
REMARK    4  A    between atoms: C_4  and  C_6
REMARK    5  A    between atoms: C_19  and  C_20
REMARK    6  A    between atoms: C_21  and  C_22
REMARK                            x       y       z     vdW  Elec       q    Type
REMARK                         _______ _______ _______ _____ _____    ______ ____
ROOT
ATOM      1  C   UNL     1      45.015   5.214   9.366  0.00  0.00    +0.000 C 
ENDROOT
BRANCH   1   2
ATOM      2  C   UNL     1      45.539   4.143   8.425  0.00  0.00    +0.000 A 
ATOM      3  C   UNL     1      45.097   2.818   8.534  0.00  0.00    +0.000 A 
ATOM      4  C   UNL     1      45.571   1.834   7.659  0.00  0.00    +0.000 A 
ATOM      5  C   UNL     1      46.489   2.149   6.650  0.00  0.00    +0.000 A 
ATOM      6  C   UNL     1      46.943   3.468   6.545  0.00  0.00    +0.000 A 
ATOM      7  C   UNL     1      46.471   4.452   7.417  0.00  0.00    +0.000 A 
BRANCH   5   8
ATOM      8  C   UNL     1      47.053   1.140   5.743  0.00  0.00    +0.000 C 
ATOM      9  C   UNL     1      46.362   0.482   4.797  0.00  0.00    +0.000 C 
BRANCH   9  10
ATOM     10  C   UNL     1      46.964  -0.525   3.910  0.00  0.00    +0.000 A 
ATOM     11  C   UNL     1      46.782  -1.882   4.165  0.00  0.00    +0.000 A 
ATOM     12  C   UNL     1      47.362  -2.811   3.305  0.00  0.00    +0.000 A 
ATOM     13  C   UNL     1      48.107  -2.363   2.220  0.00  0.00    +0.000 A 
ATOM     14  C   UNL     1      48.240  -0.998   2.042  0.00  0.00    +0.000 A 
ATOM     15  N   UNL     1      47.687  -0.076   2.858  0.00  0.00    +0.000 NA
ENDBRANCH   9  10
ENDBRANCH   5   8
ENDBRANCH   1   2
BRANCH   1  16
ATOM     16  N   UNL     1      45.937   5.399  10.445  0.00  0.00    +0.000 N 
ATOM     17  C   UNL     1      45.943   6.488  11.277  0.00  0.00    +0.000 C 
ATOM     18  O   UNL     1      45.082   7.361  11.234  0.00  0.00    +0.000 OA
ATOM     19  H   UNL     1      46.837   4.962  10.280  0.00  0.00    +0.000 HD
BRANCH  17  20
ATOM     20  C   UNL     1      46.972   6.471  12.325  0.00  0.00    +0.000 A 
ATOM     21  C   UNL     1      48.058   7.329  12.247  0.00  0.00    +0.000 A 
ATOM     22  S   UNL     1      49.098   7.234  13.596  0.00  0.00    +0.000 S 
ATOM     23  C   UNL     1      48.159   6.003  14.305  0.00  0.00    +0.000 A 
ATOM     24  N   UNL     1      48.512   5.445  15.494  0.00  0.00    +0.000 NA
ATOM     25  C   UNL     1      47.718   4.509  15.900  0.00  0.00    +0.000 A 
ATOM     26  N   UNL     1      46.603   4.081  15.224  0.00  0.00    +0.000 N 
ATOM     27  C   UNL     1      46.202   4.628  14.030  0.00  0.00    +0.000 A 
ATOM     28  O   UNL     1      45.188   4.247  13.458  0.00  0.00    +0.000 OA
ATOM     29  C   UNL     1      47.061   5.682  13.530  0.00  0.00    +0.000 A 
ATOM     30  H   UNL     1      46.020   3.346  15.597  0.00  0.00    +0.000 HD
ENDBRANCH  17  20
ENDBRANCH   1  16
BRANCH   1  31
ATOM     31  N   UNL     1      43.759   4.803   9.954  0.00  0.00    +0.000 NA
ATOM     32  H   UNL     1      43.852   4.956  10.960  0.00  0.00    +0.000 HD
ATOM     33  H   UNL     1      43.680   3.797   9.847  0.00  0.00    +0.000 HD
ENDBRANCH   1  31
TORSDOF 6
ENDMDL
MODEL 6
REMARK VINA RESULT:    -6.498      4.870      6.630
REMARK INTER + INTRA:          -9.332
REMARK INTER:                  -8.263
REMARK INTRA:                  -1.069
REMARK UNBOUND:                -0.744
REMARK  Name = 
REMARK  6 active torsions:
REMARK  status: ('A' for Active; 'I' for Inactive)
REMARK    1  A    between atoms: N_1  and  C_2
REMARK    2  A    between atoms: C_2  and  N_3
REMARK    3  A    between atoms: C_2  and  C_16
REMARK    4  A    between atoms: C_4  and  C_6
REMARK    5  A    between atoms: C_19  and  C_20
REMARK    6  A    between atoms: C_21  and  C_22
REMARK                            x       y       z     vdW  Elec       q    Type
REMARK                         _______ _______ _______ _____ _____    ______ ____
ROOT
ATOM      1  C   UNL     1      46.373   4.318  14.021  0.00  0.00    +0.000 C 
ENDROOT
BRANCH   1   2
ATOM      2  C   UNL     1      45.872   5.537  13.268  0.00  0.00    +0.000 A 
ATOM      3  C   UNL     1      46.593   6.737  13.291  0.00  0.00    +0.000 A 
ATOM      4  C   UNL     1      46.137   7.857  12.586  0.00  0.00    +0.000 A 
ATOM      5  C   UNL     1      44.958   7.804  11.834  0.00  0.00    +0.000 A 
ATOM      6  C   UNL     1      44.228   6.611  11.817  0.00  0.00    +0.000 A 
ATOM      7  C   UNL     1      44.681   5.491  12.519  0.00  0.00    +0.000 A 
BRANCH   5   8
ATOM      8  C   UNL     1      44.414   8.967  11.121  0.00  0.00    +0.000 C 
ATOM      9  C   UNL     1      43.137   9.102  10.726  0.00  0.00    +0.000 C 
BRANCH   9  10
ATOM     10  C   UNL     1      42.633  10.284  10.010  0.00  0.00    +0.000 A 
ATOM     11  C   UNL     1      41.412  10.851  10.367  0.00  0.00    +0.000 A 
ATOM     12  C   UNL     1      40.964  11.972   9.673  0.00  0.00    +0.000 A 
ATOM     13  C   UNL     1      41.739  12.492   8.644  0.00  0.00    +0.000 A 
ATOM     14  C   UNL     1      42.937  11.866   8.352  0.00  0.00    +0.000 A 
ATOM     15  N   UNL     1      43.398  10.781   9.010  0.00  0.00    +0.000 NA
ENDBRANCH   9  10
ENDBRANCH   5   8
ENDBRANCH   1   2
BRANCH   1  16
ATOM     16  N   UNL     1      47.017   4.732  15.232  0.00  0.00    +0.000 N 
ATOM     17  C   UNL     1      47.809   3.921  16.002  0.00  0.00    +0.000 C 
ATOM     18  O   UNL     1      48.124   2.785  15.662  0.00  0.00    +0.000 OA
ATOM     19  H   UNL     1      46.506   5.454  15.728  0.00  0.00    +0.000 HD
BRANCH  17  20
ATOM     20  C   UNL     1      48.378   4.554  17.199  0.00  0.00    +0.000 A 
ATOM     21  C   UNL     1      48.098   4.039  18.456  0.00  0.00    +0.000 A 
ATOM     22  S   UNL     1      48.917   4.845  19.717  0.00  0.00    +0.000 S 
ATOM     23  C   UNL     1      49.633   5.942  18.630  0.00  0.00    +0.000 A 
ATOM     24  N   UNL     1      50.457   6.930  19.068  0.00  0.00    +0.000 NA
ATOM     25  C   UNL     1      50.910   7.700  18.133  0.00  0.00    +0.000 A 
ATOM     26  N   UNL     1      50.613   7.570  16.800  0.00  0.00    +0.000 N 
ATOM     27  C   UNL     1      49.799   6.577  16.313  0.00  0.00    +0.000 A 
ATOM     28  O   UNL     1      49.569   6.465  15.115  0.00  0.00    +0.000 OA
ATOM     29  C   UNL     1      49.262   5.686  17.323  0.00  0.00    +0.000 A 
ATOM     30  H   UNL     1      51.003   8.203  16.116  0.00  0.00    +0.000 HD
ENDBRANCH  17  20
ENDBRANCH   1  16
BRANCH   1  31
ATOM     31  N   UNL     1      47.364   3.609  13.241  0.00  0.00    +0.000 NA
ATOM     32  H   UNL     1      47.234   2.617  13.449  0.00  0.00    +0.000 HD
ATOM     33  H   UNL     1      48.278   3.839  13.619  0.00  0.00    +0.000 HD
ENDBRANCH   1  31
TORSDOF 6
ENDMDL
MODEL 7
REMARK VINA RESULT:    -6.358      5.150      6.525
REMARK INTER + INTRA:          -9.146
REMARK INTER:                  -8.013
REMARK INTRA:                  -1.133
REMARK UNBOUND:                -0.744
REMARK  Name = 
REMARK  6 active torsions:
REMARK  status: ('A' for Active; 'I' for Inactive)
REMARK    1  A    between atoms: N_1  and  C_2
REMARK    2  A    between atoms: C_2  and  N_3
REMARK    3  A    between atoms: C_2  and  C_16
REMARK    4  A    between atoms: C_4  and  C_6
REMARK    5  A    between atoms: C_19  and  C_20
REMARK    6  A    between atoms: C_21  and  C_22
REMARK                            x       y       z     vdW  Elec       q    Type
REMARK                         _______ _______ _______ _____ _____    ______ ____
ROOT
ATOM      1  C   UNL     1      46.751   4.340  14.553  0.00  0.00    +0.000 C 
ENDROOT
BRANCH   1   2
ATOM      2  C   UNL     1      46.208   5.493  13.727  0.00  0.00    +0.000 A 
ATOM      3  C   UNL     1      44.908   5.450  13.209  0.00  0.00    +0.000 A 
ATOM      4  C   UNL     1      44.403   6.518  12.458  0.00  0.00    +0.000 A 
ATOM      5  C   UNL     1      45.180   7.657  12.214  0.00  0.00    +0.000 A 
ATOM      6  C   UNL     1      46.484   7.699  12.719  0.00  0.00    +0.000 A 
ATOM      7  C   UNL     1      46.989   6.635  13.469  0.00  0.00    +0.000 A 
BRANCH   5   8
ATOM      8  C   UNL     1      44.712   8.779  11.389  0.00  0.00    +0.000 C 
ATOM      9  C   UNL     1      43.450   8.946  10.961  0.00  0.00    +0.000 C 
BRANCH   9  10
ATOM     10  C   UNL     1      43.021  10.084  10.132  0.00  0.00    +0.000 A 
ATOM     11  C   UNL     1      43.882  10.617   9.176  0.00  0.00    +0.000 A 
ATOM     12  C   UNL     1      43.446  11.692   8.405  0.00  0.00    +0.000 A 
ATOM     13  C   UNL     1      42.170  12.204   8.610  0.00  0.00    +0.000 A 
ATOM     14  C   UNL     1      41.381  11.617   9.581  0.00  0.00    +0.000 A 
ATOM     15  N   UNL     1      41.777  10.573  10.341  0.00  0.00    +0.000 NA
ENDBRANCH   9  10
ENDBRANCH   5   8
ENDBRANCH   1   2
BRANCH   1  16
ATOM     16  N   UNL     1      47.590   4.849  15.596  0.00  0.00    +0.000 N 
ATOM     17  C   UNL     1      48.318   4.065  16.452  0.00  0.00    +0.000 C 
ATOM     18  O   UNL     1      48.397   2.846  16.332  0.00  0.00    +0.000 OA
ATOM     19  H   UNL     1      47.268   5.735  15.970  0.00  0.00    +0.000 HD
BRANCH  17  20
ATOM     20  C   UNL     1      49.120   4.796  17.442  0.00  0.00    +0.000 A 
ATOM     21  C   UNL     1      50.502   4.822  17.335  0.00  0.00    +0.000 A 
ATOM     22  S   UNL     1      51.257   5.792  18.518  0.00  0.00    +0.000 S 
ATOM     23  C   UNL     1      49.764   6.167  19.246  0.00  0.00    +0.000 A 
ATOM     24  N   UNL     1      49.698   6.961  20.347  0.00  0.00    +0.000 NA
ATOM     25  C   UNL     1      48.502   7.143  20.803  0.00  0.00    +0.000 A 
ATOM     26  N   UNL     1      47.367   6.601  20.256  0.00  0.00    +0.000 N 
ATOM     27  C   UNL     1      47.386   5.808  19.135  0.00  0.00    +0.000 A 
ATOM     28  O   UNL     1      46.356   5.357  18.650  0.00  0.00    +0.000 OA
ATOM     29  C   UNL     1      48.706   5.572  18.585  0.00  0.00    +0.000 A 
ATOM     30  H   UNL     1      46.458   6.784  20.658  0.00  0.00    +0.000 HD
ENDBRANCH  17  20
ENDBRANCH   1  16
BRANCH   1  31
ATOM     31  N   UNL     1      47.573   3.473  13.738  0.00  0.00    +0.000 NA
ATOM     32  H   UNL     1      48.535   3.616  14.051  0.00  0.00    +0.000 HD
ATOM     33  H   UNL     1      47.551   3.828  12.787  0.00  0.00    +0.000 HD
ENDBRANCH   1  31
TORSDOF 6
ENDMDL
MODEL 8
REMARK VINA RESULT:    -6.210      5.441      7.312
REMARK INTER + INTRA:          -8.950
REMARK INTER:                  -8.015
REMARK INTRA:                  -0.935
REMARK UNBOUND:                -0.744
REMARK  Name = 
REMARK  6 active torsions:
REMARK  status: ('A' for Active; 'I' for Inactive)
REMARK    1  A    between atoms: N_1  and  C_2
REMARK    2  A    between atoms: C_2  and  N_3
REMARK    3  A    between atoms: C_2  and  C_16
REMARK    4  A    between atoms: C_4  and  C_6
REMARK    5  A    between atoms: C_19  and  C_20
REMARK    6  A    between atoms: C_21  and  C_22
REMARK                            x       y       z     vdW  Elec       q    Type
REMARK                         _______ _______ _______ _____ _____    ______ ____
ROOT
ATOM      1  C   UNL     1      49.382   7.478  12.494  0.00  0.00    +0.000 C 
ENDROOT
BRANCH   1   2
ATOM      2  C   UNL     1      48.044   8.157  12.260  0.00  0.00    +0.000 A 
ATOM      3  C   UNL     1      46.862   7.408  12.205  0.00  0.00    +0.000 A 
ATOM      4  C   UNL     1      45.628   8.035  12.002  0.00  0.00    +0.000 A 
ATOM      5  C   UNL     1      45.542   9.425  11.858  0.00  0.00    +0.000 A 
ATOM      6  C   UNL     1      46.720  10.177  11.900  0.00  0.00    +0.000 A 
ATOM      7  C   UNL     1      47.954   9.553  12.103  0.00  0.00    +0.000 A 
BRANCH   5   8
ATOM      8  C   UNL     1      44.276  10.121  11.592  0.00  0.00    +0.000 C 
ATOM      9  C   UNL     1      43.346   9.719  10.709  0.00  0.00    +0.000 C 
BRANCH   9  10
ATOM     10  C   UNL     1      42.091  10.447  10.469  0.00  0.00    +0.000 A 
ATOM     11  C   UNL     1      42.100  11.643   9.755  0.00  0.00    +0.000 A 
ATOM     12  C   UNL     1      40.895  12.307   9.541  0.00  0.00    +0.000 A 
ATOM     13  C   UNL     1      39.719  11.765  10.046  0.00  0.00    +0.000 A 
ATOM     14  C   UNL     1      39.800  10.575  10.746  0.00  0.00    +0.000 A 
ATOM     15  N   UNL     1      40.953   9.909  10.966  0.00  0.00    +0.000 NA
ENDBRANCH   9  10
ENDBRANCH   5   8
ENDBRANCH   1   2
BRANCH   1  16
ATOM     16  N   UNL     1      49.365   6.807  13.759  0.00  0.00    +0.000 N 
ATOM     17  C   UNL     1      49.301   7.445  14.970  0.00  0.00    +0.000 C 
ATOM     18  O   UNL     1      49.145   8.658  15.074  0.00  0.00    +0.000 OA
ATOM     19  H   UNL     1      49.864   5.924  13.749  0.00  0.00    +0.000 HD
BRANCH  17  20
ATOM     20  C   UNL     1      49.286   6.562  16.144  0.00  0.00    +0.000 A 
ATOM     21  C   UNL     1      50.092   6.846  17.237  0.00  0.00    +0.000 A 
ATOM     22  S   UNL     1      49.874   5.766  18.539  0.00  0.00    +0.000 S 
ATOM     23  C   UNL     1      48.734   4.851  17.666  0.00  0.00    +0.000 A 
ATOM     24  N   UNL     1      48.154   3.748  18.207  0.00  0.00    +0.000 NA
ATOM     25  C   UNL     1      47.324   3.142  17.422  0.00  0.00    +0.000 A 
ATOM     26  N   UNL     1      47.024   3.541  16.145  0.00  0.00    +0.000 N 
ATOM     27  C   UNL     1      47.573   4.658  15.565  0.00  0.00    +0.000 A 
ATOM     28  O   UNL     1      47.269   5.008  14.432  0.00  0.00    +0.000 OA
ATOM     29  C   UNL     1      48.513   5.373  16.405  0.00  0.00    +0.000 A 
ATOM     30  H   UNL     1      46.362   3.025  15.582  0.00  0.00    +0.000 HD
ENDBRANCH  17  20
ENDBRANCH   1  16
BRANCH   1  31
ATOM     31  N   UNL     1      50.446   8.456  12.551  0.00  0.00    +0.000 NA
ATOM     32  H   UNL     1      50.740   8.499  13.529  0.00  0.00    +0.000 HD
ATOM     33  H   UNL     1      50.041   9.367  12.358  0.00  0.00    +0.000 HD
ENDBRANCH   1  31
TORSDOF 6
ENDMDL
MODEL 9
REMARK VINA RESULT:    -6.110      5.299      7.192
REMARK INTER + INTRA:          -8.818
REMARK INTER:                  -7.989
REMARK INTRA:                  -0.830
REMARK UNBOUND:                -0.744
REMARK  Name = 
REMARK  6 active torsions:
REMARK  status: ('A' for Active; 'I' for Inactive)
REMARK    1  A    between atoms: N_1  and  C_2
REMARK    2  A    between atoms: C_2  and  N_3
REMARK    3  A    between atoms: C_2  and  C_16
REMARK    4  A    between atoms: C_4  and  C_6
REMARK    5  A    between atoms: C_19  and  C_20
REMARK    6  A    between atoms: C_21  and  C_22
REMARK                            x       y       z     vdW  Elec       q    Type
REMARK                         _______ _______ _______ _____ _____    ______ ____
ROOT
ATOM      1  C   UNL     1      48.248   6.439  14.054  0.00  0.00    +0.000 C 
ENDROOT
BRANCH   1   2
ATOM      2  C   UNL     1      47.167   7.174  13.281  0.00  0.00    +0.000 A 
ATOM      3  C   UNL     1      47.041   8.565  13.377  0.00  0.00    +0.000 A 
ATOM      4  C   UNL     1      46.052   9.244  12.655  0.00  0.00    +0.000 A 
ATOM      5  C   UNL     1      45.173   8.552  11.813  0.00  0.00    +0.000 A 
ATOM      6  C   UNL     1      45.287   7.161  11.723  0.00  0.00    +0.000 A 
ATOM      7  C   UNL     1      46.273   6.482  12.443  0.00  0.00    +0.000 A 
BRANCH   5   8
ATOM      8  C   UNL     1      44.089   9.215  11.077  0.00  0.00    +0.000 C 
ATOM      9  C   UNL     1      43.533  10.391  11.416  0.00  0.00    +0.000 C 
BRANCH   9  10
ATOM     10  C   UNL     1      42.445  11.020  10.653  0.00  0.00    +0.000 A 
ATOM     11  C   UNL     1      42.720  12.060   9.767  0.00  0.00    +0.000 A 
ATOM     12  C   UNL     1      41.669  12.633   9.057  0.00  0.00    +0.000 A 
ATOM     13  C   UNL     1      40.377  12.159   9.250  0.00  0.00    +0.000 A 
ATOM     14  C   UNL     1      40.191  11.125  10.150  0.00  0.00    +0.000 A 
ATOM     15  N   UNL     1      41.191  10.549  10.850  0.00  0.00    +0.000 NA
ENDBRANCH   9  10
ENDBRANCH   5   8
ENDBRANCH   1   2
BRANCH   1  16
ATOM     16  N   UNL     1      48.115   6.721  15.452  0.00  0.00    +0.000 N 
ATOM     17  C   UNL     1      48.990   6.287  16.414  0.00  0.00    +0.000 C 
ATOM     18  O   UNL     1      50.033   5.700  16.145  0.00  0.00    +0.000 OA
ATOM     19  H   UNL     1      47.151   6.832  15.747  0.00  0.00    +0.000 HD
BRANCH  17  20
ATOM     20  C   UNL     1      48.668   6.700  17.786  0.00  0.00    +0.000 A 
ATOM     21  C   UNL     1      48.388   8.029  18.065  0.00  0.00    +0.000 A 
ATOM     22  S   UNL     1      47.948   8.304  19.690  0.00  0.00    +0.000 S 
ATOM     23  C   UNL     1      48.169   6.663  20.088  0.00  0.00    +0.000 A 
ATOM     24  N   UNL     1      47.973   6.214  21.356  0.00  0.00    +0.000 NA
ATOM     25  C   UNL     1      48.198   4.951  21.515  0.00  0.00    +0.000 A 
ATOM     26  N   UNL     1      48.602   4.097  20.520  0.00  0.00    +0.000 N 
ATOM     27  C   UNL     1      48.796   4.505  19.223  0.00  0.00    +0.000 A 
ATOM     28  O   UNL     1      49.133   3.719  18.347  0.00  0.00    +0.000 OA
ATOM     29  C   UNL     1      48.558   5.916  18.992  0.00  0.00    +0.000 A 
ATOM     30  H   UNL     1      48.758   3.117  20.708  0.00  0.00    +0.000 HD
ENDBRANCH  17  20
ENDBRANCH   1  16
BRANCH   1  31
ATOM     31  N   UNL     1      49.560   6.900  13.657  0.00  0.00    +0.000 NA
ATOM     32  H   UNL     1      49.988   7.299  14.494  0.00  0.00    +0.000 HD
ATOM     33  H   UNL     1      49.435   7.685  13.025  0.00  0.00    +0.000 HD
ENDBRANCH   1  31
TORSDOF 6
ENDMDL
