MODEL 1
REMARK VINA RESULT:    -7.684      0.000      0.000
REMARK INTER + INTRA:         -10.653
REMARK INTER:                  -9.930
REMARK INTRA:                  -0.723
REMARK UNBOUND:                -0.723
REMARK  Name = 
REMARK  5 active torsions:
REMARK  status: ('A' for Active; 'I' for Inactive)
REMARK    1  A    between atoms: C_2  and  C_18
REMARK    2  A    between atoms: N_3  and  C_4
REMARK    3  A    between atoms: C_4  and  C_5
REMARK    4  A    between atoms: C_8  and  C_9
REMARK    5  A    between atoms: C_9  and  N_10
REMARK                            x       y       z     vdW  Elec       q    Type
REMARK                         _______ _______ _______ _____ _____    ______ ____
ROOT
ATOM      1  N   UNL     1      47.382   3.484  14.111  0.00  0.00    +0.000 NA
ATOM      2  C   UNL     1      47.226   4.749  14.235  0.00  0.00    +0.000 C 
ATOM      3  N   UNL     1      46.481   5.555  13.421  0.00  0.00    +0.000 N 
ATOM      4  H   UNL     1      46.859   3.154  13.305  0.00  0.00    +0.000 HD
ATOM      5  H   UNL     1      46.446   6.538  13.673  0.00  0.00    +0.000 HD
ENDROOT
BRANCH   2   6
ATOM      6  C   UNL     1      47.817   5.372  15.422  0.00  0.00    +0.000 A 
ATOM      7  C   UNL     1      48.459   6.605  15.336  0.00  0.00    +0.000 A 
ATOM      8  S   UNL     1      49.537   6.877  16.629  0.00  0.00    +0.000 S 
ATOM      9  C   UNL     1      49.057   5.434  17.396  0.00  0.00    +0.000 A 
ATOM     10  N   UNL     1      49.684   4.977  18.513  0.00  0.00    +0.000 NA
ATOM     11  C   UNL     1      49.150   3.918  19.023  0.00  0.00    +0.000 A 
ATOM     12  N   UNL     1      48.019   3.302  18.544  0.00  0.00    +0.000 N 
ATOM     13  C   UNL     1      47.354   3.729  17.423  0.00  0.00    +0.000 A 
ATOM     14  O   UNL     1      46.289   3.220  17.058  0.00  0.00    +0.000 OA
ATOM     15  C   UNL     1      47.993   4.834  16.752  0.00  0.00    +0.000 A 
ATOM     16  H   UNL     1      47.592   2.540  19.054  0.00  0.00    +0.000 HD
ENDBRANCH   2   6
BRANCH   3  17
ATOM     17  C   UNL     1      45.183   5.121  12.920  0.00  0.00    +0.000 C 
BRANCH  17  18
ATOM     18  C   UNL     1      45.229   4.637  11.470  0.00  0.00    +0.000 A 
ATOM     19  N   UNL     1      45.593   5.519  10.515  0.00  0.00    +0.000 NA
ATOM     20  C   UNL     1      45.671   5.056   9.253  0.00  0.00    +0.000 A 
ATOM     21  C   UNL     1      45.389   3.760   8.877  0.00  0.00    +0.000 A 
ATOM     22  C   UNL     1      44.963   2.954   9.920  0.00  0.00    +0.000 A 
ATOM     23  N   UNL     1      44.895   3.357  11.207  0.00  0.00    +0.000 NA
BRANCH  21  24
ATOM     24  C   UNL     1      45.456   3.284   7.460  0.00  0.00    +0.000 C 
BRANCH  24  25
ATOM     25  N   UNL     1      46.757   3.026   6.846  0.00  0.00    +0.000 NA
ATOM     26  C   UNL     1      46.889   3.258   5.406  0.00  0.00    +0.000 C 
ATOM     27  C   UNL     1      46.612   2.018   4.542  0.00  0.00    +0.000 C 
ATOM     28  O   UNL     1      47.400   0.895   4.949  0.00  0.00    +0.000 OA
ATOM     29  C   UNL     1      47.255   0.593   6.342  0.00  0.00    +0.000 C 
ATOM     30  C   UNL     1      47.486   1.818   7.240  0.00  0.00    +0.000 C 
ENDBRANCH  24  25
ENDBRANCH  21  24
ENDBRANCH  17  18
ENDBRANCH   3  17
TORSDOF 5
ENDMDL
MODEL 2
REMARK VINA RESULT:    -7.609      3.416      4.090
REMARK INTER + INTRA:         -10.557
REMARK INTER:                  -9.947
REMARK INTRA:                  -0.610
REMARK UNBOUND:                -0.723
REMARK  Name = 
REMARK  5 active torsions:
REMARK  status: ('A' for Active; 'I' for Inactive)
REMARK    1  A    between atoms: C_2  and  C_18
REMARK    2  A    between atoms: N_3  and  C_4
REMARK    3  A    between atoms: C_4  and  C_5
REMARK    4  A    between atoms: C_8  and  C_9
REMARK    5  A    between atoms: C_9  and  N_10
REMARK                            x       y       z     vdW  Elec       q    Type
REMARK                         _______ _______ _______ _____ _____    ______ ____
ROOT
ATOM      1  N   UNL     1      44.284   7.769  11.275  0.00  0.00    +0.000 NA
ATOM      2  C   UNL     1      44.503   6.967  12.249  0.00  0.00    +0.000 C 
ATOM      3  N   UNL     1      43.590   6.131  12.827  0.00  0.00    +0.000 N 
ATOM      4  H   UNL     1      43.315   7.692  10.982  0.00  0.00    +0.000 HD
ATOM      5  H   UNL     1      43.935   5.542  13.580  0.00  0.00    +0.000 HD
ENDROOT
BRANCH   2   6
ATOM      6  C   UNL     1      45.888   6.862  12.717  0.00  0.00    +0.000 A 
ATOM      7  C   UNL     1      46.436   5.627  13.053  0.00  0.00    +0.000 A 
ATOM      8  S   UNL     1      47.791   5.766  14.080  0.00  0.00    +0.000 S 
ATOM      9  C   UNL     1      47.759   7.466  13.970  0.00  0.00    +0.000 A 
ATOM     10  N   UNL     1      48.583   8.244  14.721  0.00  0.00    +0.000 NA
ATOM     11  C   UNL     1      48.499   9.507  14.462  0.00  0.00    +0.000 A 
ATOM     12  N   UNL     1      47.699  10.056  13.489  0.00  0.00    +0.000 N 
ATOM     13  C   UNL     1      46.853   9.309  12.710  0.00  0.00    +0.000 A 
ATOM     14  O   UNL     1      46.208   9.806  11.780  0.00  0.00    +0.000 OA
ATOM     15  C   UNL     1      46.826   7.909  13.054  0.00  0.00    +0.000 A 
ATOM     16  H   UNL     1      47.761  11.040  13.267  0.00  0.00    +0.000 HD
ENDBRANCH   2   6
BRANCH   3  17
ATOM     17  C   UNL     1      42.629   5.394  12.017  0.00  0.00    +0.000 C 
BRANCH  17  18
ATOM     18  C   UNL     1      43.287   4.415  11.043  0.00  0.00    +0.000 A 
ATOM     19  N   UNL     1      43.712   4.891   9.854  0.00  0.00    +0.000 NA
ATOM     20  C   UNL     1      44.331   4.020   9.033  0.00  0.00    +0.000 A 
ATOM     21  C   UNL     1      44.539   2.689   9.321  0.00  0.00    +0.000 A 
ATOM     22  C   UNL     1      44.008   2.288  10.536  0.00  0.00    +0.000 A 
ATOM     23  N   UNL     1      43.406   3.123  11.409  0.00  0.00    +0.000 NA
BRANCH  21  24
ATOM     24  C   UNL     1      45.203   1.739   8.374  0.00  0.00    +0.000 C 
BRANCH  24  25
ATOM     25  N   UNL     1      46.573   1.997   7.936  0.00  0.00    +0.000 NA
ATOM     26  C   UNL     1      46.839   3.257   7.238  0.00  0.00    +0.000 C 
ATOM     27  C   UNL     1      46.725   3.164   5.709  0.00  0.00    +0.000 C 
ATOM     28  O   UNL     1      47.531   2.109   5.175  0.00  0.00    +0.000 OA
ATOM     29  C   UNL     1      47.260   0.843   5.787  0.00  0.00    +0.000 C 
ATOM     30  C   UNL     1      47.326   0.902   7.321  0.00  0.00    +0.000 C 
ENDBRANCH  24  25
ENDBRANCH  21  24
ENDBRANCH  17  18
ENDBRANCH   3  17
TORSDOF 5
ENDMDL
MODEL 3
REMARK VINA RESULT:    -7.524      1.654      2.160
REMARK INTER + INTRA:         -10.447
REMARK INTER:                  -9.624
REMARK INTRA:                  -0.822
REMARK UNBOUND:                -0.723
REMARK  Name = 
REMARK  5 active torsions:
REMARK  status: ('A' for Active; 'I' for Inactive)
REMARK    1  A    between atoms: C_2  and  C_18
REMARK    2  A    between atoms: N_3  and  C_4
REMARK    3  A    between atoms: C_4  and  C_5
REMARK    4  A    between atoms: C_8  and  C_9
REMARK    5  A    between atoms: C_9  and  N_10
REMARK                            x       y       z     vdW  Elec       q    Type
REMARK                         _______ _______ _______ _____ _____    ______ ____
ROOT
ATOM      1  N   UNL     1      47.084   3.160  13.929  0.00  0.00    +0.000 NA
ATOM      2  C   UNL     1      46.995   4.355  14.382  0.00  0.00    +0.000 C 
ATOM      3  N   UNL     1      46.327   5.393  13.797  0.00  0.00    +0.000 N 
ATOM      4  H   UNL     1      46.573   3.089  13.055  0.00  0.00    +0.000 HD
ATOM      5  H   UNL     1      46.339   6.275  14.301  0.00  0.00    +0.000 HD
ENDROOT
BRANCH   2   6
ATOM      6  C   UNL     1      47.578   4.603  15.704  0.00  0.00    +0.000 A 
ATOM      7  C   UNL     1      47.312   3.751  16.773  0.00  0.00    +0.000 A 
ATOM      8  S   UNL     1      47.586   4.490  18.285  0.00  0.00    +0.000 S 
ATOM      9  C   UNL     1      48.204   5.892  17.543  0.00  0.00    +0.000 A 
ATOM     10  N   UNL     1      48.518   7.002  18.264  0.00  0.00    +0.000 NA
ATOM     11  C   UNL     1      49.054   7.949  17.569  0.00  0.00    +0.000 A 
ATOM     12  N   UNL     1      49.345   7.871  16.229  0.00  0.00    +0.000 N 
ATOM     13  C   UNL     1      49.046   6.772  15.464  0.00  0.00    +0.000 A 
ATOM     14  O   UNL     1      49.395   6.682  14.281  0.00  0.00    +0.000 OA
ATOM     15  C   UNL     1      48.333   5.742  16.176  0.00  0.00    +0.000 A 
ATOM     16  H   UNL     1      49.862   8.609  15.770  0.00  0.00    +0.000 HD
ENDBRANCH   2   6
BRANCH   3  17
ATOM     17  C   UNL     1      45.026   5.191  13.173  0.00  0.00    +0.000 C 
BRANCH  17  18
ATOM     18  C   UNL     1      45.120   4.675  11.737  0.00  0.00    +0.000 A 
ATOM     19  N   UNL     1      45.454   5.551  10.766  0.00  0.00    +0.000 NA
ATOM     20  C   UNL     1      45.577   5.063   9.517  0.00  0.00    +0.000 A 
ATOM     21  C   UNL     1      45.368   3.745   9.170  0.00  0.00    +0.000 A 
ATOM     22  C   UNL     1      44.967   2.944  10.226  0.00  0.00    +0.000 A 
ATOM     23  N   UNL     1      44.857   3.374  11.501  0.00  0.00    +0.000 NA
BRANCH  21  24
ATOM     24  C   UNL     1      45.483   3.239   7.766  0.00  0.00    +0.000 C 
BRANCH  24  25
ATOM     25  N   UNL     1      46.804   2.974   7.200  0.00  0.00    +0.000 NA
ATOM     26  C   UNL     1      47.051   3.395   5.819  0.00  0.00    +0.000 C 
ATOM     27  C   UNL     1      46.755   2.312   4.771  0.00  0.00    +0.000 C 
ATOM     28  O   UNL     1      47.439   1.088   5.058  0.00  0.00    +0.000 OA
ATOM     29  C   UNL     1      47.178   0.606   6.381  0.00  0.00    +0.000 C 
ATOM     30  C   UNL     1      47.425   1.673   7.458  0.00  0.00    +0.000 C 
ENDBRANCH  24  25
ENDBRANCH  21  24
ENDBRANCH  17  18
ENDBRANCH   3  17
TORSDOF 5
ENDMDL
MODEL 4
REMARK VINA RESULT:    -6.962      3.096      8.897
REMARK INTER + INTRA:          -9.720
REMARK INTER:                  -9.059
REMARK INTRA:                  -0.662
REMARK UNBOUND:                -0.723
REMARK  Name = 
REMARK  5 active torsions:
REMARK  status: ('A' for Active; 'I' for Inactive)
REMARK    1  A    between atoms: C_2  and  C_18
REMARK    2  A    between atoms: N_3  and  C_4
REMARK    3  A    between atoms: C_4  and  C_5
REMARK    4  A    between atoms: C_8  and  C_9
REMARK    5  A    between atoms: C_9  and  N_10
REMARK                            x       y       z     vdW  Elec       q    Type
REMARK                         _______ _______ _______ _____ _____    ______ ____
ROOT
ATOM      1  N   UNL     1      45.855   8.207  12.057  0.00  0.00    +0.000 NA
ATOM      2  C   UNL     1      46.104   6.998  11.716  0.00  0.00    +0.000 C 
ATOM      3  N   UNL     1      47.340   6.421  11.632  0.00  0.00    +0.000 N 
ATOM      4  H   UNL     1      46.725   8.688  12.264  0.00  0.00    +0.000 HD
ATOM      5  H   UNL     1      47.359   5.441  11.365  0.00  0.00    +0.000 HD
ENDROOT
BRANCH   2   6
ATOM      6  C   UNL     1      44.948   6.124  11.497  0.00  0.00    +0.000 A 
ATOM      7  C   UNL     1      43.849   6.167  12.351  0.00  0.00    +0.000 A 
ATOM      8  S   UNL     1      42.910   4.745  12.287  0.00  0.00    +0.000 S 
ATOM      9  C   UNL     1      43.860   4.117  11.021  0.00  0.00    +0.000 A 
ATOM     10  N   UNL     1      43.684   2.851  10.557  0.00  0.00    +0.000 NA
ATOM     11  C   UNL     1      44.422   2.553   9.540  0.00  0.00    +0.000 A 
ATOM     12  N   UNL     1      45.287   3.422   8.918  0.00  0.00    +0.000 N 
ATOM     13  C   UNL     1      45.495   4.706   9.351  0.00  0.00    +0.000 A 
ATOM     14  O   UNL     1      46.207   5.501   8.727  0.00  0.00    +0.000 OA
ATOM     15  C   UNL     1      44.782   5.036  10.560  0.00  0.00    +0.000 A 
ATOM     16  H   UNL     1      45.754   3.156   8.061  0.00  0.00    +0.000 HD
ENDBRANCH   2   6
BRANCH   3  17
ATOM     17  C   UNL     1      48.361   6.686  12.635  0.00  0.00    +0.000 C 
BRANCH  17  18
ATOM     18  C   UNL     1      48.105   5.967  13.961  0.00  0.00    +0.000 A 
ATOM     19  N   UNL     1      48.592   6.521  15.091  0.00  0.00    +0.000 NA
ATOM     20  C   UNL     1      48.313   5.895  16.249  0.00  0.00    +0.000 A 
ATOM     21  C   UNL     1      47.586   4.728  16.350  0.00  0.00    +0.000 A 
ATOM     22  C   UNL     1      47.188   4.207  15.130  0.00  0.00    +0.000 A 
ATOM     23  N   UNL     1      47.415   4.809  13.942  0.00  0.00    +0.000 NA
BRANCH  21  24
ATOM     24  C   UNL     1      47.318   4.039  17.652  0.00  0.00    +0.000 C 
BRANCH  24  25
ATOM     25  N   UNL     1      48.427   3.436  18.389  0.00  0.00    +0.000 NA
ATOM     26  C   UNL     1      48.915   4.136  19.579  0.00  0.00    +0.000 C 
ATOM     27  C   UNL     1      50.069   5.111  19.305  0.00  0.00    +0.000 C 
ATOM     28  O   UNL     1      51.149   4.479  18.610  0.00  0.00    +0.000 OA
ATOM     29  C   UNL     1      50.728   3.832  17.404  0.00  0.00    +0.000 C 
ATOM     30  C   UNL     1      49.546   2.875  17.629  0.00  0.00    +0.000 C 
ENDBRANCH  24  25
ENDBRANCH  21  24
ENDBRANCH  17  18
ENDBRANCH   3  17
TORSDOF 5
ENDMDL
MODEL 5
REMARK VINA RESULT:    -6.849      3.639      4.754
REMARK INTER + INTRA:          -9.574
REMARK INTER:                  -8.511
REMARK INTRA:                  -1.063
REMARK UNBOUND:                -0.723
REMARK  Name = 
REMARK  5 active torsions:
REMARK  status: ('A' for Active; 'I' for Inactive)
REMARK    1  A    between atoms: C_2  and  C_18
REMARK    2  A    between atoms: N_3  and  C_4
REMARK    3  A    between atoms: C_4  and  C_5
REMARK    4  A    between atoms: C_8  and  C_9
REMARK    5  A    between atoms: C_9  and  N_10
REMARK                            x       y       z     vdW  Elec       q    Type
REMARK                         _______ _______ _______ _____ _____    ______ ____
ROOT
ATOM      1  N   UNL     1      50.691   6.864  15.164  0.00  0.00    +0.000 NA
ATOM      2  C   UNL     1      49.537   7.331  15.463  0.00  0.00    +0.000 C 
ATOM      3  N   UNL     1      48.842   8.278  14.764  0.00  0.00    +0.000 N 
ATOM      4  H   UNL     1      51.025   7.303  14.311  0.00  0.00    +0.000 HD
ATOM      5  H   UNL     1      47.926   8.522  15.130  0.00  0.00    +0.000 HD
ENDROOT
BRANCH   2   6
ATOM      6  C   UNL     1      48.854   6.717  16.605  0.00  0.00    +0.000 A 
ATOM      7  C   UNL     1      48.888   7.314  17.863  0.00  0.00    +0.000 A 
ATOM      8  S   UNL     1      48.554   6.213  19.122  0.00  0.00    +0.000 S 
ATOM      9  C   UNL     1      48.213   4.969  18.010  0.00  0.00    +0.000 A 
ATOM     10  N   UNL     1      47.975   3.694  18.417  0.00  0.00    +0.000 NA
ATOM     11  C   UNL     1      47.648   2.887  17.463  0.00  0.00    +0.000 A 
ATOM     12  N   UNL     1      47.495   3.250  16.147  0.00  0.00    +0.000 N 
ATOM     13  C   UNL     1      47.725   4.523  15.693  0.00  0.00    +0.000 A 
ATOM     14  O   UNL     1      47.495   4.854  14.524  0.00  0.00    +0.000 OA
ATOM     15  C   UNL     1      48.213   5.425  16.707  0.00  0.00    +0.000 A 
ATOM     16  H   UNL     1      47.134   2.591  15.470  0.00  0.00    +0.000 HD
ENDBRANCH   2   6
BRANCH   3  17
ATOM     17  C   UNL     1      48.811   8.262  13.308  0.00  0.00    +0.000 C 
BRANCH  17  18
ATOM     18  C   UNL     1      47.463   7.818  12.738  0.00  0.00    +0.000 A 
ATOM     19  N   UNL     1      46.345   8.393  13.227  0.00  0.00    +0.000 NA
ATOM     20  C   UNL     1      45.174   8.020  12.676  0.00  0.00    +0.000 A 
ATOM     21  C   UNL     1      45.047   7.086  11.670  0.00  0.00    +0.000 A 
ATOM     22  C   UNL     1      46.246   6.509  11.285  0.00  0.00    +0.000 A 
ATOM     23  N   UNL     1      47.450   6.867  11.782  0.00  0.00    +0.000 NA
BRANCH  21  24
ATOM     24  C   UNL     1      43.728   6.669  11.099  0.00  0.00    +0.000 C 
BRANCH  24  25
ATOM     25  N   UNL     1      43.148   5.385  11.486  0.00  0.00    +0.000 NA
ATOM     26  C   UNL     1      43.091   5.065  12.914  0.00  0.00    +0.000 C 
ATOM     27  C   UNL     1      44.311   4.291  13.435  0.00  0.00    +0.000 C 
ATOM     28  O   UNL     1      44.566   3.113  12.662  0.00  0.00    +0.000 OA
ATOM     29  C   UNL     1      44.691   3.388  11.262  0.00  0.00    +0.000 C 
ATOM     30  C   UNL     1      43.507   4.196  10.709  0.00  0.00    +0.000 C 
ENDBRANCH  24  25
ENDBRANCH  21  24
ENDBRANCH  17  18
ENDBRANCH   3  17
TORSDOF 5
ENDMDL
MODEL 6
REMARK VINA RESULT:    -6.710      3.426     10.084
REMARK INTER + INTRA:          -9.394
REMARK INTER:                  -8.422
REMARK INTRA:                  -0.972
REMARK UNBOUND:                -0.723
REMARK  Name = 
REMARK  5 active torsions:
REMARK  status: ('A' for Active; 'I' for Inactive)
REMARK    1  A    between atoms: C_2  and  C_18
REMARK    2  A    between atoms: N_3  and  C_4
REMARK    3  A    between atoms: C_4  and  C_5
REMARK    4  A    between atoms: C_8  and  C_9
REMARK    5  A    between atoms: C_9  and  N_10
REMARK                            x       y       z     vdW  Elec       q    Type
REMARK                         _______ _______ _______ _____ _____    ______ ____
ROOT
ATOM      1  N   UNL     1      47.163   3.654  14.027  0.00  0.00    +0.000 NA
ATOM      2  C   UNL     1      46.428   4.637  13.663  0.00  0.00    +0.000 C 
ATOM      3  N   UNL     1      46.643   5.956  13.949  0.00  0.00    +0.000 N 
ATOM      4  H   UNL     1      47.950   3.999  14.567  0.00  0.00    +0.000 HD
ATOM      5  H   UNL     1      45.971   6.613  13.564  0.00  0.00    +0.000 HD
ENDROOT
BRANCH   2   6
ATOM      6  C   UNL     1      45.308   4.327  12.770  0.00  0.00    +0.000 A 
ATOM      7  C   UNL     1      44.255   3.523  13.198  0.00  0.00    +0.000 A 
ATOM      8  S   UNL     1      43.388   2.830  11.903  0.00  0.00    +0.000 S 
ATOM      9  C   UNL     1      44.300   3.705  10.761  0.00  0.00    +0.000 A 
ATOM     10  N   UNL     1      44.165   3.491   9.425  0.00  0.00    +0.000 NA
ATOM     11  C   UNL     1      44.862   4.291   8.688  0.00  0.00    +0.000 A 
ATOM     12  N   UNL     1      45.646   5.313   9.166  0.00  0.00    +0.000 N 
ATOM     13  C   UNL     1      45.811   5.564  10.504  0.00  0.00    +0.000 A 
ATOM     14  O   UNL     1      46.447   6.542  10.914  0.00  0.00    +0.000 OA
ATOM     15  C   UNL     1      45.148   4.614  11.362  0.00  0.00    +0.000 A 
ATOM     16  H   UNL     1      46.081   5.968   8.530  0.00  0.00    +0.000 HD
ENDBRANCH   2   6
BRANCH   3  17
ATOM     17  C   UNL     1      47.983   6.525  13.899  0.00  0.00    +0.000 C 
BRANCH  17  18
ATOM     18  C   UNL     1      48.647   6.623  15.274  0.00  0.00    +0.000 A 
ATOM     19  N   UNL     1      49.045   7.839  15.703  0.00  0.00    +0.000 NA
ATOM     20  C   UNL     1      49.583   7.906  16.936  0.00  0.00    +0.000 A 
ATOM     21  C   UNL     1      49.767   6.823  17.768  0.00  0.00    +0.000 A 
ATOM     22  C   UNL     1      49.387   5.614  17.208  0.00  0.00    +0.000 A 
ATOM     23  N   UNL     1      48.815   5.493  15.990  0.00  0.00    +0.000 NA
BRANCH  21  24
ATOM     24  C   UNL     1      50.398   6.926  19.121  0.00  0.00    +0.000 C 
BRANCH  24  25
ATOM     25  N   UNL     1      49.558   7.175  20.291  0.00  0.00    +0.000 NA
ATOM     26  C   UNL     1      49.834   6.404  21.505  0.00  0.00    +0.000 C 
ATOM     27  C   UNL     1      49.026   5.102  21.620  0.00  0.00    +0.000 C 
ATOM     28  O   UNL     1      47.621   5.330  21.473  0.00  0.00    +0.000 OA
ATOM     29  C   UNL     1      47.297   6.030  20.266  0.00  0.00    +0.000 C 
ATOM     30  C   UNL     1      48.114   7.320  20.093  0.00  0.00    +0.000 C 
ENDBRANCH  24  25
ENDBRANCH  21  24
ENDBRANCH  17  18
ENDBRANCH   3  17
TORSDOF 5
ENDMDL
MODEL 7
REMARK VINA RESULT:    -6.680      3.645      8.883
REMARK INTER + INTRA:          -9.357
REMARK INTER:                  -8.049
REMARK INTRA:                  -1.308
REMARK UNBOUND:                -0.723
REMARK  Name = 
REMARK  5 active torsions:
REMARK  status: ('A' for Active; 'I' for Inactive)
REMARK    1  A    between atoms: C_2  and  C_18
REMARK    2  A    between atoms: N_3  and  C_4
REMARK    3  A    between atoms: C_4  and  C_5
REMARK    4  A    between atoms: C_8  and  C_9
REMARK    5  A    between atoms: C_9  and  N_10
REMARK                            x       y       z     vdW  Elec       q    Type
REMARK                         _______ _______ _______ _____ _____    ______ ____
ROOT
ATOM      1  N   UNL     1      45.900   8.314  13.295  0.00  0.00    +0.000 NA
ATOM      2  C   UNL     1      46.662   7.387  12.849  0.00  0.00    +0.000 C 
ATOM      3  N   UNL     1      47.952   7.536  12.424  0.00  0.00    +0.000 N 
ATOM      4  H   UNL     1      46.400   9.197  13.292  0.00  0.00    +0.000 HD
ATOM      5  H   UNL     1      48.424   6.691  12.118  0.00  0.00    +0.000 HD
ENDROOT
BRANCH   2   6
ATOM      6  C   UNL     1      46.135   6.020  12.898  0.00  0.00    +0.000 A 
ATOM      7  C   UNL     1      46.694   5.069  13.748  0.00  0.00    +0.000 A 
ATOM      8  S   UNL     1      46.350   3.471  13.263  0.00  0.00    +0.000 S 
ATOM      9  C   UNL     1      45.334   4.018  12.011  0.00  0.00    +0.000 A 
ATOM     10  N   UNL     1      44.795   3.161  11.103  0.00  0.00    +0.000 NA
ATOM     11  C   UNL     1      43.980   3.716  10.270  0.00  0.00    +0.000 A 
ATOM     12  N   UNL     1      43.621   5.042  10.291  0.00  0.00    +0.000 N 
ATOM     13  C   UNL     1      44.138   5.942  11.188  0.00  0.00    +0.000 A 
ATOM     14  O   UNL     1      43.737   7.109  11.251  0.00  0.00    +0.000 OA
ATOM     15  C   UNL     1      45.147   5.385  12.055  0.00  0.00    +0.000 A 
ATOM     16  H   UNL     1      42.896   5.389   9.677  0.00  0.00    +0.000 HD
ENDBRANCH   2   6
BRANCH   3  17
ATOM     17  C   UNL     1      48.883   8.397  13.141  0.00  0.00    +0.000 C 
BRANCH  17  18
ATOM     18  C   UNL     1      49.044   8.017  14.613  0.00  0.00    +0.000 A 
ATOM     19  N   UNL     1      48.443   8.792  15.540  0.00  0.00    +0.000 NA
ATOM     20  C   UNL     1      48.559   8.409  16.826  0.00  0.00    +0.000 A 
ATOM     21  C   UNL     1      49.259   7.300  17.250  0.00  0.00    +0.000 A 
ATOM     22  C   UNL     1      49.891   6.611  16.228  0.00  0.00    +0.000 A 
ATOM     23  N   UNL     1      49.784   6.933  14.921  0.00  0.00    +0.000 NA
BRANCH  21  24
ATOM     24  C   UNL     1      49.396   6.919  18.691  0.00  0.00    +0.000 C 
BRANCH  24  25
ATOM     25  N   UNL     1      48.662   5.764  19.204  0.00  0.00    +0.000 NA
ATOM     26  C   UNL     1      49.391   4.501  19.346  0.00  0.00    +0.000 C 
ATOM     27  C   UNL     1      49.307   3.585  18.116  0.00  0.00    +0.000 C 
ATOM     28  O   UNL     1      47.953   3.346  17.719  0.00  0.00    +0.000 OA
ATOM     29  C   UNL     1      47.217   4.557  17.508  0.00  0.00    +0.000 C 
ATOM     30  C   UNL     1      47.308   5.520  18.702  0.00  0.00    +0.000 C 
ENDBRANCH  24  25
ENDBRANCH  21  24
ENDBRANCH  17  18
ENDBRANCH   3  17
TORSDOF 5
ENDMDL
MODEL 8
REMARK VINA RESULT:    -6.674      3.639      4.718
REMARK INTER + INTRA:          -9.348
REMARK INTER:                  -9.127
REMARK INTRA:                  -0.221
REMARK UNBOUND:                -0.723
REMARK  Name = 
REMARK  5 active torsions:
REMARK  status: ('A' for Active; 'I' for Inactive)
REMARK    1  A    between atoms: C_2  and  C_18
REMARK    2  A    between atoms: N_3  and  C_4
REMARK    3  A    between atoms: C_4  and  C_5
REMARK    4  A    between atoms: C_8  and  C_9
REMARK    5  A    between atoms: C_9  and  N_10
REMARK                            x       y       z     vdW  Elec       q    Type
REMARK                         _______ _______ _______ _____ _____    ______ ____
ROOT
ATOM      1  N   UNL     1      44.680   7.838  12.740  0.00  0.00    +0.000 NA
ATOM      2  C   UNL     1      45.729   7.118  12.884  0.00  0.00    +0.000 C 
ATOM      3  N   UNL     1      45.766   5.821  13.315  0.00  0.00    +0.000 N 
ATOM      4  H   UNL     1      43.859   7.297  12.992  0.00  0.00    +0.000 HD
ATOM      5  H   UNL     1      46.683   5.387  13.353  0.00  0.00    +0.000 HD
ENDROOT
BRANCH   2   6
ATOM      6  C   UNL     1      46.998   7.707  12.447  0.00  0.00    +0.000 A 
ATOM      7  C   UNL     1      48.128   6.914  12.267  0.00  0.00    +0.000 A 
ATOM      8  S   UNL     1      49.577   7.812  12.324  0.00  0.00    +0.000 S 
ATOM      9  C   UNL     1      48.720   9.279  12.437  0.00  0.00    +0.000 A 
ATOM     10  N   UNL     1      49.356  10.462  12.648  0.00  0.00    +0.000 NA
ATOM     11  C   UNL     1      48.577  11.492  12.624  0.00  0.00    +0.000 A 
ATOM     12  N   UNL     1      47.229  11.450  12.363  0.00  0.00    +0.000 N 
ATOM     13  C   UNL     1      46.548  10.280  12.144  0.00  0.00    +0.000 A 
ATOM     14  O   UNL     1      45.355  10.267  11.822  0.00  0.00    +0.000 OA
ATOM     15  C   UNL     1      47.360   9.097  12.287  0.00  0.00    +0.000 A 
ATOM     16  H   UNL     1      46.699  12.304  12.253  0.00  0.00    +0.000 HD
ENDBRANCH   2   6
BRANCH   3  17
ATOM     17  C   UNL     1      44.774   4.853  12.866  0.00  0.00    +0.000 C 
BRANCH  17  18
ATOM     18  C   UNL     1      44.968   4.422  11.411  0.00  0.00    +0.000 A 
ATOM     19  N   UNL     1      44.718   3.135  11.090  0.00  0.00    +0.000 NA
ATOM     20  C   UNL     1      44.849   2.792   9.795  0.00  0.00    +0.000 A 
ATOM     21  C   UNL     1      45.235   3.656   8.793  0.00  0.00    +0.000 A 
ATOM     22  C   UNL     1      45.530   4.935   9.237  0.00  0.00    +0.000 A 
ATOM     23  N   UNL     1      45.387   5.341  10.518  0.00  0.00    +0.000 NA
BRANCH  21  24
ATOM     24  C   UNL     1      45.403   3.236   7.366  0.00  0.00    +0.000 C 
BRANCH  24  25
ATOM     25  N   UNL     1      46.739   2.935   6.855  0.00  0.00    +0.000 NA
ATOM     26  C   UNL     1      46.978   3.119   5.422  0.00  0.00    +0.000 C 
ATOM     27  C   UNL     1      46.737   1.859   4.578  0.00  0.00    +0.000 C 
ATOM     28  O   UNL     1      47.471   0.735   5.073  0.00  0.00    +0.000 OA
ATOM     29  C   UNL     1      47.221   0.479   6.460  0.00  0.00    +0.000 C 
ATOM     30  C   UNL     1      47.413   1.727   7.336  0.00  0.00    +0.000 C 
ENDBRANCH  24  25
ENDBRANCH  21  24
ENDBRANCH  17  18
ENDBRANCH   3  17
TORSDOF 5
ENDMDL
MODEL 9
REMARK VINA RESULT:    -6.552      4.273      8.363
REMARK INTER + INTRA:          -9.190
REMARK INTER:                  -7.990
REMARK INTRA:                  -1.200
REMARK UNBOUND:                -0.723
REMARK  Name = 
REMARK  5 active torsions:
REMARK  status: ('A' for Active; 'I' for Inactive)
REMARK    1  A    between atoms: C_2  and  C_18
REMARK    2  A    between atoms: N_3  and  C_4
REMARK    3  A    between atoms: C_4  and  C_5
REMARK    4  A    between atoms: C_8  and  C_9
REMARK    5  A    between atoms: C_9  and  N_10
REMARK                            x       y       z     vdW  Elec       q    Type
REMARK                         _______ _______ _______ _____ _____    ______ ____
ROOT
ATOM      1  N   UNL     1      47.383   3.192  14.335  0.00  0.00    +0.000 NA
ATOM      2  C   UNL     1      46.957   4.361  14.639  0.00  0.00    +0.000 C 
ATOM      3  N   UNL     1      46.956   4.922  15.886  0.00  0.00    +0.000 N 
ATOM      4  H   UNL     1      47.734   2.730  15.169  0.00  0.00    +0.000 HD
ATOM      5  H   UNL     1      46.599   5.870  15.950  0.00  0.00    +0.000 HD
ENDROOT
BRANCH   2   6
ATOM      6  C   UNL     1      46.524   5.213  13.529  0.00  0.00    +0.000 A 
ATOM      7  C   UNL     1      47.194   6.398  13.236  0.00  0.00    +0.000 A 
ATOM      8  S   UNL     1      46.241   7.488  12.335  0.00  0.00    +0.000 S 
ATOM      9  C   UNL     1      44.985   6.346  12.193  0.00  0.00    +0.000 A 
ATOM     10  N   UNL     1      43.787   6.669  11.636  0.00  0.00    +0.000 NA
ATOM     11  C   UNL     1      42.972   5.674  11.523  0.00  0.00    +0.000 A 
ATOM     12  N   UNL     1      43.263   4.378  11.874  0.00  0.00    +0.000 N 
ATOM     13  C   UNL     1      44.457   4.008  12.438  0.00  0.00    +0.000 A 
ATOM     14  O   UNL     1      44.736   2.825  12.665  0.00  0.00    +0.000 OA
ATOM     15  C   UNL     1      45.347   5.112  12.696  0.00  0.00    +0.000 A 
ATOM     16  H   UNL     1      42.618   3.629  11.660  0.00  0.00    +0.000 HD
ENDBRANCH   2   6
BRANCH   3  17
ATOM     17  C   UNL     1      48.090   4.752  16.785  0.00  0.00    +0.000 C 
BRANCH  17  18
ATOM     18  C   UNL     1      49.136   5.860  16.651  0.00  0.00    +0.000 A 
ATOM     19  N   UNL     1      50.439   5.510  16.659  0.00  0.00    +0.000 NA
ATOM     20  C   UNL     1      51.339   6.498  16.491  0.00  0.00    +0.000 A 
ATOM     21  C   UNL     1      51.017   7.828  16.332  0.00  0.00    +0.000 A 
ATOM     22  C   UNL     1      49.658   8.090  16.404  0.00  0.00    +0.000 A 
ATOM     23  N   UNL     1      48.712   7.136  16.540  0.00  0.00    +0.000 NA
BRANCH  21  24
ATOM     24  C   UNL     1      52.043   8.908  16.179  0.00  0.00    +0.000 C 
BRANCH  24  25
ATOM     25  N   UNL     1      52.302   9.474  14.857  0.00  0.00    +0.000 NA
ATOM     26  C   UNL     1      51.659  10.746  14.522  0.00  0.00    +0.000 C 
ATOM     27  C   UNL     1      50.300  10.598  13.822  0.00  0.00    +0.000 C 
ATOM     28  O   UNL     1      50.381   9.753  12.670  0.00  0.00    +0.000 OA
ATOM     29  C   UNL     1      50.949   8.471  12.964  0.00  0.00    +0.000 C 
ATOM     30  C   UNL     1      52.294   8.576  13.700  0.00  0.00    +0.000 C 
ENDBRANCH  24  25
ENDBRANCH  21  24
ENDBRANCH  17  18
ENDBRANCH   3  17
TORSDOF 5
ENDMDL
