MODEL 1
REMARK VINA RESULT:    -8.116      0.000      0.000
REMARK INTER + INTRA:         -11.277
REMARK INTER:                 -10.488
REMARK INTRA:                  -0.788
REMARK UNBOUND:                -0.788
REMARK  Name = 
REMARK  5 active torsions:
REMARK  status: ('A' for Active; 'I' for Inactive)
REMARK    1  A    between atoms: C_2  and  C_4
REMARK    2  A    between atoms: C_8  and  N_9
REMARK    3  A    between atoms: N_9  and  C_10
REMARK    4  A    between atoms: C_10  and  C_11
REMARK    5  A    between atoms: C_16  and  C_17
REMARK                            x       y       z     vdW  Elec       q    Type
REMARK                         _______ _______ _______ _____ _____    ______ ____
ROOT
ATOM      1  C   UNL     1      43.925   4.684  10.812  0.00  0.00    +0.000 C 
ENDROOT
BRANCH   1   2
ATOM      2  C   UNL     1      45.128   5.004  11.663  0.00  0.00    +0.000 A 
ATOM      3  C   UNL     1      45.555   4.114  12.651  0.00  0.00    +0.000 A 
ATOM      4  C   UNL     1      46.657   4.434  13.430  0.00  0.00    +0.000 A 
ATOM      5  F   UNL     1      47.057   3.581  14.382  0.00  0.00    +0.000 F 
ATOM      6  C   UNL     1      47.353   5.627  13.246  0.00  0.00    +0.000 A 
ATOM      7  C   UNL     1      46.973   6.538  12.246  0.00  0.00    +0.000 A 
ATOM      8  C   UNL     1      45.855   6.193  11.456  0.00  0.00    +0.000 A 
BRANCH   7   9
ATOM      9  C   UNL     1      47.710   7.804  12.033  0.00  0.00    +0.000 A 
ATOM     10  C   UNL     1      49.055   7.833  11.634  0.00  0.00    +0.000 A 
ATOM     11  C   UNL     1      49.720   9.046  11.446  0.00  0.00    +0.000 A 
ATOM     12  C   UNL     1      49.019  10.218  11.651  0.00  0.00    +0.000 A 
ATOM     13  N   UNL     1      47.727  10.253  12.030  0.00  0.00    +0.000 NA
ATOM     14  C   UNL     1      47.114   9.057  12.213  0.00  0.00    +0.000 A 
ENDBRANCH   7   9
ENDBRANCH   1   2
BRANCH   1  15
ATOM     15  N   UNL     1      44.298   4.725   9.408  0.00  0.00    +0.000 N 
ATOM     16  H   UNL     1      44.678   5.624   9.114  0.00  0.00    +0.000 HD
BRANCH  15  21
ATOM     17  C   UNL     1      46.521   2.637   7.262  0.00  0.00    +0.000 A 
ATOM     18  C   UNL     1      46.276   1.409   7.858  0.00  0.00    +0.000 A 
ATOM     19  N   UNL     1      45.442   1.246   8.908  0.00  0.00    +0.000 NA
ATOM     20  C   UNL     1      44.816   2.360   9.359  0.00  0.00    +0.000 A 
ATOM     21  C   UNL     1      44.943   3.643   8.809  0.00  0.00    +0.000 A 
ATOM     22  C   UNL     1      45.846   3.762   7.750  0.00  0.00    +0.000 A 
BRANCH  17  24
ATOM     23  N   UNL     1      48.797   2.593   6.409  0.00  0.00    +0.000 N 
ATOM     24  C   UNL     1      47.464   2.705   6.127  0.00  0.00    +0.000 C 
ATOM     25  O   UNL     1      47.069   2.826   4.975  0.00  0.00    +0.000 OA
ATOM     26  H   UNL     1      49.415   2.532   5.609  0.00  0.00    +0.000 HD
ATOM     27  H   UNL     1      49.136   2.222   7.286  0.00  0.00    +0.000 HD
ENDBRANCH  17  24
ENDBRANCH  15  21
ENDBRANCH   1  15
TORSDOF 5
ENDMDL
MODEL 2
REMARK VINA RESULT:    -7.921      3.115      7.085
REMARK INTER + INTRA:         -11.025
REMARK INTER:                 -10.332
REMARK INTRA:                  -0.693
REMARK UNBOUND:                -0.788
REMARK  Name = 
REMARK  5 active torsions:
REMARK  status: ('A' for Active; 'I' for Inactive)
REMARK    1  A    between atoms: C_2  and  C_4
REMARK    2  A    between atoms: C_8  and  N_9
REMARK    3  A    between atoms: N_9  and  C_10
REMARK    4  A    between atoms: C_10  and  C_11
REMARK    5  A    between atoms: C_16  and  C_17
REMARK                            x       y       z     vdW  Elec       q    Type
REMARK                         _______ _______ _______ _____ _____    ______ ____
ROOT
ATOM      1  C   UNL     1      44.699   6.612  10.746  0.00  0.00    +0.000 C 
ENDROOT
BRANCH   1   2
ATOM      2  C   UNL     1      44.593   5.140  10.438  0.00  0.00    +0.000 A 
ATOM      3  C   UNL     1      43.770   4.311  11.206  0.00  0.00    +0.000 A 
ATOM      4  C   UNL     1      43.697   2.958  10.912  0.00  0.00    +0.000 A 
ATOM      5  F   UNL     1      42.914   2.168  11.656  0.00  0.00    +0.000 F 
ATOM      6  C   UNL     1      44.426   2.404   9.862  0.00  0.00    +0.000 A 
ATOM      7  C   UNL     1      45.245   3.206   9.049  0.00  0.00    +0.000 A 
ATOM      8  C   UNL     1      45.302   4.582   9.355  0.00  0.00    +0.000 A 
BRANCH   7   9
ATOM      9  C   UNL     1      46.017   2.632   7.923  0.00  0.00    +0.000 A 
ATOM     10  C   UNL     1      46.317   3.366   6.766  0.00  0.00    +0.000 A 
ATOM     11  C   UNL     1      47.044   2.792   5.722  0.00  0.00    +0.000 A 
ATOM     12  C   UNL     1      47.471   1.485   5.860  0.00  0.00    +0.000 A 
ATOM     13  N   UNL     1      47.217   0.733   6.948  0.00  0.00    +0.000 NA
ATOM     14  C   UNL     1      46.500   1.319   7.939  0.00  0.00    +0.000 A 
ENDBRANCH   7   9
ENDBRANCH   1   2
BRANCH   1  15
ATOM     15  N   UNL     1      44.604   6.817  12.182  0.00  0.00    +0.000 N 
ATOM     16  H   UNL     1      43.736   6.470  12.586  0.00  0.00    +0.000 HD
BRANCH  15  21
ATOM     17  C   UNL     1      47.126   5.240  14.432  0.00  0.00    +0.000 A 
ATOM     18  C   UNL     1      48.045   6.278  14.459  0.00  0.00    +0.000 A 
ATOM     19  N   UNL     1      47.879   7.435  13.782  0.00  0.00    +0.000 NA
ATOM     20  C   UNL     1      46.732   7.557  13.070  0.00  0.00    +0.000 A 
ATOM     21  C   UNL     1      45.708   6.602  13.007  0.00  0.00    +0.000 A 
ATOM     22  C   UNL     1      45.948   5.410  13.695  0.00  0.00    +0.000 A 
BRANCH  17  24
ATOM     23  N   UNL     1      47.541   4.130  16.554  0.00  0.00    +0.000 N 
ATOM     24  C   UNL     1      47.414   4.011  15.199  0.00  0.00    +0.000 C 
ATOM     25  O   UNL     1      47.507   2.921  14.648  0.00  0.00    +0.000 OA
ATOM     26  H   UNL     1      47.628   3.262  17.070  0.00  0.00    +0.000 HD
ATOM     27  H   UNL     1      47.204   4.937  17.061  0.00  0.00    +0.000 HD
ENDBRANCH  17  24
ENDBRANCH  15  21
ENDBRANCH   1  15
TORSDOF 5
ENDMDL
MODEL 3
REMARK VINA RESULT:    -7.771      2.423      3.730
REMARK INTER + INTRA:         -10.831
REMARK INTER:                 -10.050
REMARK INTRA:                  -0.781
REMARK UNBOUND:                -0.788
REMARK  Name = 
REMARK  5 active torsions:
REMARK  status: ('A' for Active; 'I' for Inactive)
REMARK    1  A    between atoms: C_2  and  C_4
REMARK    2  A    between atoms: C_8  and  N_9
REMARK    3  A    between atoms: N_9  and  C_10
REMARK    4  A    between atoms: C_10  and  C_11
REMARK    5  A    between atoms: C_16  and  C_17
REMARK                            x       y       z     vdW  Elec       q    Type
REMARK                         _______ _______ _______ _____ _____    ______ ____
ROOT
ATOM      1  C   UNL     1      44.425   5.131  11.154  0.00  0.00    +0.000 C 
ENDROOT
BRANCH   1   2
ATOM      2  C   UNL     1      45.688   5.598  11.833  0.00  0.00    +0.000 A 
ATOM      3  C   UNL     1      46.511   6.550  11.226  0.00  0.00    +0.000 A 
ATOM      4  C   UNL     1      47.672   6.956  11.864  0.00  0.00    +0.000 A 
ATOM      5  F   UNL     1      48.462   7.862  11.272  0.00  0.00    +0.000 F 
ATOM      6  C   UNL     1      48.038   6.438  13.104  0.00  0.00    +0.000 A 
ATOM      7  C   UNL     1      47.226   5.498  13.762  0.00  0.00    +0.000 A 
ATOM      8  C   UNL     1      46.043   5.102  13.104  0.00  0.00    +0.000 A 
BRANCH   7   9
ATOM      9  C   UNL     1      47.598   4.946  15.085  0.00  0.00    +0.000 A 
ATOM     10  C   UNL     1      47.366   3.607  15.433  0.00  0.00    +0.000 A 
ATOM     11  C   UNL     1      47.726   3.121  16.690  0.00  0.00    +0.000 A 
ATOM     12  C   UNL     1      48.326   3.988  17.582  0.00  0.00    +0.000 A 
ATOM     13  N   UNL     1      48.577   5.282  17.304  0.00  0.00    +0.000 NA
ATOM     14  C   UNL     1      48.206   5.723  16.076  0.00  0.00    +0.000 A 
ENDBRANCH   7   9
ENDBRANCH   1   2
BRANCH   1  15
ATOM     15  N   UNL     1      44.624   5.117   9.714  0.00  0.00    +0.000 N 
ATOM     16  H   UNL     1      45.041   5.973   9.353  0.00  0.00    +0.000 HD
BRANCH  15  21
ATOM     17  C   UNL     1      46.451   2.803   7.430  0.00  0.00    +0.000 A 
ATOM     18  C   UNL     1      46.086   1.605   8.026  0.00  0.00    +0.000 A 
ATOM     19  N   UNL     1      45.296   1.530   9.120  0.00  0.00    +0.000 NA
ATOM     20  C   UNL     1      44.839   2.706   9.614  0.00  0.00    +0.000 A 
ATOM     21  C   UNL     1      45.096   3.973   9.071  0.00  0.00    +0.000 A 
ATOM     22  C   UNL     1      45.949   3.996   7.964  0.00  0.00    +0.000 A 
BRANCH  17  24
ATOM     23  N   UNL     1      48.650   2.472   6.450  0.00  0.00    +0.000 N 
ATOM     24  C   UNL     1      47.333   2.772   6.245  0.00  0.00    +0.000 C 
ATOM     25  O   UNL     1      46.898   2.976   5.119  0.00  0.00    +0.000 OA
ATOM     26  H   UNL     1      49.212   2.348   5.616  0.00  0.00    +0.000 HD
ATOM     27  H   UNL     1      48.981   2.035   7.299  0.00  0.00    +0.000 HD
ENDBRANCH  17  24
ENDBRANCH  15  21
ENDBRANCH   1  15
TORSDOF 5
ENDMDL
MODEL 4
REMARK VINA RESULT:    -7.322      2.148      2.600
REMARK INTER + INTRA:         -10.251
REMARK INTER:                  -9.581
REMARK INTRA:                  -0.669
REMARK UNBOUND:                -0.788
REMARK  Name = 
REMARK  5 active torsions:
REMARK  status: ('A' for Active; 'I' for Inactive)
REMARK    1  A    between atoms: C_2  and  C_4
REMARK    2  A    between atoms: C_8  and  N_9
REMARK    3  A    between atoms: N_9  and  C_10
REMARK    4  A    between atoms: C_10  and  C_11
REMARK    5  A    between atoms: C_16  and  C_17
REMARK                            x       y       z     vdW  Elec       q    Type
REMARK                         _______ _______ _______ _____ _____    ______ ____
ROOT
ATOM      1  C   UNL     1      45.335   5.568   9.418  0.00  0.00    +0.000 C 
ENDROOT
BRANCH   1   2
ATOM      2  C   UNL     1      45.272   5.331  10.906  0.00  0.00    +0.000 A 
ATOM      3  C   UNL     1      44.175   4.680  11.476  0.00  0.00    +0.000 A 
ATOM      4  C   UNL     1      44.133   4.484  12.848  0.00  0.00    +0.000 A 
ATOM      5  F   UNL     1      43.075   3.867  13.389  0.00  0.00    +0.000 F 
ATOM      6  C   UNL     1      45.166   4.920  13.674  0.00  0.00    +0.000 A 
ATOM      7  C   UNL     1      46.299   5.556  13.140  0.00  0.00    +0.000 A 
ATOM      8  C   UNL     1      46.331   5.740  11.742  0.00  0.00    +0.000 A 
BRANCH   7   9
ATOM      9  C   UNL     1      47.409   6.016  14.006  0.00  0.00    +0.000 A 
ATOM     10  C   UNL     1      48.144   7.179  13.732  0.00  0.00    +0.000 A 
ATOM     11  C   UNL     1      49.186   7.581  14.568  0.00  0.00    +0.000 A 
ATOM     12  C   UNL     1      49.471   6.812  15.679  0.00  0.00    +0.000 A 
ATOM     13  N   UNL     1      48.797   5.689  15.996  0.00  0.00    +0.000 NA
ATOM     14  C   UNL     1      47.797   5.322  15.156  0.00  0.00    +0.000 A 
ENDBRANCH   7   9
ENDBRANCH   1   2
BRANCH   1  15
ATOM     15  N   UNL     1      44.601   4.520   8.728  0.00  0.00    +0.000 N 
ATOM     16  H   UNL     1      43.960   4.872   8.019  0.00  0.00    +0.000 HD
BRANCH  15  21
ATOM     17  C   UNL     1      46.931   2.068   7.156  0.00  0.00    +0.000 A 
ATOM     18  C   UNL     1      46.509   0.932   7.832  0.00  0.00    +0.000 A 
ATOM     19  N   UNL     1      45.527   0.941   8.760  0.00  0.00    +0.000 NA
ATOM     20  C   UNL     1      44.934   2.137   8.997  0.00  0.00    +0.000 A 
ATOM     21  C   UNL     1      45.236   3.339   8.344  0.00  0.00    +0.000 A 
ATOM     22  C   UNL     1      46.284   3.281   7.421  0.00  0.00    +0.000 A 
BRANCH  17  24
ATOM     23  N   UNL     1      49.095   2.785   6.315  0.00  0.00    +0.000 N 
ATOM     24  C   UNL     1      48.024   1.948   6.171  0.00  0.00    +0.000 C 
ATOM     25  O   UNL     1      47.990   1.113   5.276  0.00  0.00    +0.000 OA
ATOM     26  H   UNL     1      49.879   2.612   5.697  0.00  0.00    +0.000 HD
ATOM     27  H   UNL     1      49.284   3.279   7.176  0.00  0.00    +0.000 HD
ENDBRANCH  17  24
ENDBRANCH  15  21
ENDBRANCH   1  15
TORSDOF 5
ENDMDL
MODEL 5
REMARK VINA RESULT:    -7.189      2.827      6.751
REMARK INTER + INTRA:         -10.079
REMARK INTER:                  -9.252
REMARK INTRA:                  -0.827
REMARK UNBOUND:                -0.788
REMARK  Name = 
REMARK  5 active torsions:
REMARK  status: ('A' for Active; 'I' for Inactive)
REMARK    1  A    between atoms: C_2  and  C_4
REMARK    2  A    between atoms: C_8  and  N_9
REMARK    3  A    between atoms: N_9  and  C_10
REMARK    4  A    between atoms: C_10  and  C_11
REMARK    5  A    between atoms: C_16  and  C_17
REMARK                            x       y       z     vdW  Elec       q    Type
REMARK                         _______ _______ _______ _____ _____    ______ ____
ROOT
ATOM      1  C   UNL     1      44.611   6.627  10.794  0.00  0.00    +0.000 C 
ENDROOT
BRANCH   1   2
ATOM      2  C   UNL     1      44.544   5.152  10.489  0.00  0.00    +0.000 A 
ATOM      3  C   UNL     1      43.767   4.298  11.276  0.00  0.00    +0.000 A 
ATOM      4  C   UNL     1      43.730   2.943  10.983  0.00  0.00    +0.000 A 
ATOM      5  F   UNL     1      42.990   2.129  11.746  0.00  0.00    +0.000 F 
ATOM      6  C   UNL     1      44.451   2.412   9.916  0.00  0.00    +0.000 A 
ATOM      7  C   UNL     1      45.225   3.239   9.084  0.00  0.00    +0.000 A 
ATOM      8  C   UNL     1      45.245   4.616   9.389  0.00  0.00    +0.000 A 
BRANCH   7   9
ATOM      9  C   UNL     1      45.988   2.689   7.940  0.00  0.00    +0.000 A 
ATOM     10  C   UNL     1      46.558   1.407   7.964  0.00  0.00    +0.000 A 
ATOM     11  C   UNL     1      47.274   0.921   6.869  0.00  0.00    +0.000 A 
ATOM     12  C   UNL     1      47.400   1.729   5.756  0.00  0.00    +0.000 A 
ATOM     13  N   UNL     1      46.871   2.966   5.674  0.00  0.00    +0.000 NA
ATOM     14  C   UNL     1      46.190   3.410   6.760  0.00  0.00    +0.000 A 
ENDBRANCH   7   9
ENDBRANCH   1   2
BRANCH   1  15
ATOM     15  N   UNL     1      45.028   6.820  12.173  0.00  0.00    +0.000 N 
ATOM     16  H   UNL     1      44.410   6.377  12.851  0.00  0.00    +0.000 HD
BRANCH  15  21
ATOM     17  C   UNL     1      48.676   7.505  12.541  0.00  0.00    +0.000 A 
ATOM     18  C   UNL     1      48.968   6.529  13.482  0.00  0.00    +0.000 A 
ATOM     19  N   UNL     1      48.042   5.687  13.991  0.00  0.00    +0.000 NA
ATOM     20  C   UNL     1      46.780   5.820  13.515  0.00  0.00    +0.000 A 
ATOM     21  C   UNL     1      46.374   6.732  12.530  0.00  0.00    +0.000 A 
ATOM     22  C   UNL     1      47.362   7.603  12.066  0.00  0.00    +0.000 A 
BRANCH  17  24
ATOM     23  N   UNL     1      51.035   8.084  12.461  0.00  0.00    +0.000 N 
ATOM     24  C   UNL     1      49.762   8.384  12.063  0.00  0.00    +0.000 C 
ATOM     25  O   UNL     1      49.539   9.327  11.315  0.00  0.00    +0.000 OA
ATOM     26  H   UNL     1      51.773   8.631  12.035  0.00  0.00    +0.000 HD
ATOM     27  H   UNL     1      51.286   7.181  12.837  0.00  0.00    +0.000 HD
ENDBRANCH  17  24
ENDBRANCH  15  21
ENDBRANCH   1  15
TORSDOF 5
ENDMDL
MODEL 6
REMARK VINA RESULT:    -7.113      1.989      2.550
REMARK INTER + INTRA:          -9.980
REMARK INTER:                  -9.372
REMARK INTRA:                  -0.608
REMARK UNBOUND:                -0.788
REMARK  Name = 
REMARK  5 active torsions:
REMARK  status: ('A' for Active; 'I' for Inactive)
REMARK    1  A    between atoms: C_2  and  C_4
REMARK    2  A    between atoms: C_8  and  N_9
REMARK    3  A    between atoms: N_9  and  C_10
REMARK    4  A    between atoms: C_10  and  C_11
REMARK    5  A    between atoms: C_16  and  C_17
REMARK                            x       y       z     vdW  Elec       q    Type
REMARK                         _______ _______ _______ _____ _____    ______ ____
ROOT
ATOM      1  C   UNL     1      45.041   5.322  11.125  0.00  0.00    +0.000 C 
ENDROOT
BRANCH   1   2
ATOM      2  C   UNL     1      45.598   6.667  11.517  0.00  0.00    +0.000 A 
ATOM      3  C   UNL     1      44.747   7.755  11.727  0.00  0.00    +0.000 A 
ATOM      4  C   UNL     1      45.283   8.985  12.075  0.00  0.00    +0.000 A 
ATOM      5  F   UNL     1      44.463  10.026  12.266  0.00  0.00    +0.000 F 
ATOM      6  C   UNL     1      46.657   9.162  12.223  0.00  0.00    +0.000 A 
ATOM      7  C   UNL     1      47.546   8.088  12.047  0.00  0.00    +0.000 A 
ATOM      8  C   UNL     1      46.985   6.841  11.702  0.00  0.00    +0.000 A 
BRANCH   7   9
ATOM      9  C   UNL     1      49.008   8.259  12.212  0.00  0.00    +0.000 A 
ATOM     10  C   UNL     1      49.923   7.926  11.202  0.00  0.00    +0.000 A 
ATOM     11  C   UNL     1      51.295   8.097  11.393  0.00  0.00    +0.000 A 
ATOM     12  C   UNL     1      51.731   8.612  12.598  0.00  0.00    +0.000 A 
ATOM     13  N   UNL     1      50.900   8.954  13.603  0.00  0.00    +0.000 NA
ATOM     14  C   UNL     1      49.574   8.765  13.387  0.00  0.00    +0.000 A 
ENDBRANCH   7   9
ENDBRANCH   1   2
BRANCH   1  15
ATOM     15  N   UNL     1      44.974   5.226   9.676  0.00  0.00    +0.000 N 
ATOM     16  H   UNL     1      45.287   6.069   9.199  0.00  0.00    +0.000 HD
BRANCH  15  21
ATOM     17  C   UNL     1      46.581   2.816   7.328  0.00  0.00    +0.000 A 
ATOM     18  C   UNL     1      46.187   1.640   7.948  0.00  0.00    +0.000 A 
ATOM     19  N   UNL     1      45.444   1.609   9.077  0.00  0.00    +0.000 NA
ATOM     20  C   UNL     1      45.068   2.808   9.584  0.00  0.00    +0.000 A 
ATOM     21  C   UNL     1      45.360   4.058   9.021  0.00  0.00    +0.000 A 
ATOM     22  C   UNL     1      46.162   4.034   7.876  0.00  0.00    +0.000 A 
BRANCH  17  24
ATOM     23  N   UNL     1      48.752   2.562   6.264  0.00  0.00    +0.000 N 
ATOM     24  C   UNL     1      47.406   2.736   6.105  0.00  0.00    +0.000 C 
ATOM     25  O   UNL     1      46.903   2.793   4.990  0.00  0.00    +0.000 OA
ATOM     26  H   UNL     1      49.282   2.401   5.416  0.00  0.00    +0.000 HD
ATOM     27  H   UNL     1      49.158   2.239   7.131  0.00  0.00    +0.000 HD
ENDBRANCH  17  24
ENDBRANCH  15  21
ENDBRANCH   1  15
TORSDOF 5
ENDMDL
MODEL 7
REMARK VINA RESULT:    -7.106      3.638      7.412
REMARK INTER + INTRA:          -9.972
REMARK INTER:                  -9.149
REMARK INTRA:                  -0.822
REMARK UNBOUND:                -0.788
REMARK  Name = 
REMARK  5 active torsions:
REMARK  status: ('A' for Active; 'I' for Inactive)
REMARK    1  A    between atoms: C_2  and  C_4
REMARK    2  A    between atoms: C_8  and  N_9
REMARK    3  A    between atoms: N_9  and  C_10
REMARK    4  A    between atoms: C_10  and  C_11
REMARK    5  A    between atoms: C_16  and  C_17
REMARK                            x       y       z     vdW  Elec       q    Type
REMARK                         _______ _______ _______ _____ _____    ______ ____
ROOT
ATOM      1  C   UNL     1      46.132   7.621  12.026  0.00  0.00    +0.000 C 
ENDROOT
BRANCH   1   2
ATOM      2  C   UNL     1      45.251   6.558  11.420  0.00  0.00    +0.000 A 
ATOM      3  C   UNL     1      43.894   6.490  11.746  0.00  0.00    +0.000 A 
ATOM      4  C   UNL     1      43.105   5.497  11.185  0.00  0.00    +0.000 A 
ATOM      5  F   UNL     1      41.807   5.431  11.508  0.00  0.00    +0.000 F 
ATOM      6  C   UNL     1      43.636   4.564  10.298  0.00  0.00    +0.000 A 
ATOM      7  C   UNL     1      44.990   4.612   9.923  0.00  0.00    +0.000 A 
ATOM      8  C   UNL     1      45.777   5.634  10.495  0.00  0.00    +0.000 A 
BRANCH   7   9
ATOM      9  C   UNL     1      45.565   3.633   8.972  0.00  0.00    +0.000 A 
ATOM     10  C   UNL     1      46.221   4.024   7.795  0.00  0.00    +0.000 A 
ATOM     11  C   UNL     1      46.749   3.074   6.920  0.00  0.00    +0.000 A 
ATOM     12  C   UNL     1      46.618   1.738   7.245  0.00  0.00    +0.000 A 
ATOM     13  N   UNL     1      46.003   1.303   8.361  0.00  0.00    +0.000 NA
ATOM     14  C   UNL     1      45.493   2.253   9.185  0.00  0.00    +0.000 A 
ENDBRANCH   7   9
ENDBRANCH   1   2
BRANCH   1  15
ATOM     15  N   UNL     1      47.456   7.073  12.271  0.00  0.00    +0.000 N 
ATOM     16  H   UNL     1      48.182   7.490  11.690  0.00  0.00    +0.000 HD
BRANCH  15  21
ATOM     17  C   UNL     1      48.093   5.418  15.552  0.00  0.00    +0.000 A 
ATOM     18  C   UNL     1      48.983   6.344  16.072  0.00  0.00    +0.000 A 
ATOM     19  N   UNL     1      49.377   7.452  15.406  0.00  0.00    +0.000 NA
ATOM     20  C   UNL     1      48.834   7.642  14.179  0.00  0.00    +0.000 A 
ATOM     21  C   UNL     1      47.889   6.806  13.570  0.00  0.00    +0.000 A 
ATOM     22  C   UNL     1      47.545   5.657  14.285  0.00  0.00    +0.000 A 
BRANCH  17  24
ATOM     23  N   UNL     1      48.627   3.845  17.326  0.00  0.00    +0.000 N 
ATOM     24  C   UNL     1      47.741   4.233  16.360  0.00  0.00    +0.000 C 
ATOM     25  O   UNL     1      46.685   3.636  16.194  0.00  0.00    +0.000 OA
ATOM     26  H   UNL     1      48.317   3.100  17.939  0.00  0.00    +0.000 HD
ATOM     27  H   UNL     1      49.353   4.456  17.672  0.00  0.00    +0.000 HD
ENDBRANCH  17  24
ENDBRANCH  15  21
ENDBRANCH   1  15
TORSDOF 5
ENDMDL
MODEL 8
REMARK VINA RESULT:    -6.916      4.639      8.009
REMARK INTER + INTRA:          -9.726
REMARK INTER:                  -9.011
REMARK INTRA:                  -0.715
REMARK UNBOUND:                -0.788
REMARK  Name = 
REMARK  5 active torsions:
REMARK  status: ('A' for Active; 'I' for Inactive)
REMARK    1  A    between atoms: C_2  and  C_4
REMARK    2  A    between atoms: C_8  and  N_9
REMARK    3  A    between atoms: N_9  and  C_10
REMARK    4  A    between atoms: C_10  and  C_11
REMARK    5  A    between atoms: C_16  and  C_17
REMARK                            x       y       z     vdW  Elec       q    Type
REMARK                         _______ _______ _______ _____ _____    ______ ____
ROOT
ATOM      1  C   UNL     1      48.832   7.155  13.662  0.00  0.00    +0.000 C 
ENDROOT
BRANCH   1   2
ATOM      2  C   UNL     1      47.494   7.247  12.974  0.00  0.00    +0.000 A 
ATOM      3  C   UNL     1      46.699   8.387  13.115  0.00  0.00    +0.000 A 
ATOM      4  C   UNL     1      45.467   8.444  12.482  0.00  0.00    +0.000 A 
ATOM      5  F   UNL     1      44.706   9.536  12.628  0.00  0.00    +0.000 F 
ATOM      6  C   UNL     1      45.002   7.388  11.702  0.00  0.00    +0.000 A 
ATOM      7  C   UNL     1      45.781   6.233  11.512  0.00  0.00    +0.000 A 
ATOM      8  C   UNL     1      47.036   6.194  12.156  0.00  0.00    +0.000 A 
BRANCH   7   9
ATOM      9  C   UNL     1      45.304   5.107  10.678  0.00  0.00    +0.000 A 
ATOM     10  C   UNL     1      45.540   5.043   9.296  0.00  0.00    +0.000 A 
ATOM     11  C   UNL     1      45.073   3.968   8.539  0.00  0.00    +0.000 A 
ATOM     12  C   UNL     1      44.381   2.962   9.184  0.00  0.00    +0.000 A 
ATOM     13  N   UNL     1      44.127   2.966  10.507  0.00  0.00    +0.000 NA
ATOM     14  C   UNL     1      44.587   4.031  11.211  0.00  0.00    +0.000 A 
ENDBRANCH   7   9
ENDBRANCH   1   2
BRANCH   1  15
ATOM     15  N   UNL     1      48.663   7.390  15.087  0.00  0.00    +0.000 N 
ATOM     16  H   UNL     1      47.788   7.855  15.321  0.00  0.00    +0.000 HD
BRANCH  15  21
ATOM     17  C   UNL     1      48.624   4.428  17.352  0.00  0.00    +0.000 A 
ATOM     18  C   UNL     1      49.958   4.450  17.731  0.00  0.00    +0.000 A 
ATOM     19  N   UNL     1      50.844   5.365  17.279  0.00  0.00    +0.000 NA
ATOM     20  C   UNL     1      50.359   6.305  16.433  0.00  0.00    +0.000 A 
ATOM     21  C   UNL     1      49.025   6.418  16.018  0.00  0.00    +0.000 A 
ATOM     22  C   UNL     1      48.160   5.425  16.485  0.00  0.00    +0.000 A 
BRANCH  17  24
ATOM     23  N   UNL     1      48.134   2.766  19.056  0.00  0.00    +0.000 N 
ATOM     24  C   UNL     1      47.745   3.373  17.895  0.00  0.00    +0.000 C 
ATOM     25  O   UNL     1      46.693   3.073  17.346  0.00  0.00    +0.000 OA
ATOM     26  H   UNL     1      47.465   2.125  19.467  0.00  0.00    +0.000 HD
ATOM     27  H   UNL     1      48.829   3.166  19.670  0.00  0.00    +0.000 HD
ENDBRANCH  17  24
ENDBRANCH  15  21
ENDBRANCH   1  15
TORSDOF 5
ENDMDL
MODEL 9
REMARK VINA RESULT:    -6.791      2.627      4.178
REMARK INTER + INTRA:          -9.565
REMARK INTER:                  -8.804
REMARK INTRA:                  -0.761
REMARK UNBOUND:                -0.788
REMARK  Name = 
REMARK  5 active torsions:
REMARK  status: ('A' for Active; 'I' for Inactive)
REMARK    1  A    between atoms: C_2  and  C_4
REMARK    2  A    between atoms: C_8  and  N_9
REMARK    3  A    between atoms: N_9  and  C_10
REMARK    4  A    between atoms: C_10  and  C_11
REMARK    5  A    between atoms: C_16  and  C_17
REMARK                            x       y       z     vdW  Elec       q    Type
REMARK                         _______ _______ _______ _____ _____    ______ ____
ROOT
ATOM      1  C   UNL     1      47.189   5.654  13.664  0.00  0.00    +0.000 C 
ENDROOT
BRANCH   1   2
ATOM      2  C   UNL     1      47.737   6.875  12.968  0.00  0.00    +0.000 A 
ATOM      3  C   UNL     1      49.056   6.899  12.510  0.00  0.00    +0.000 A 
ATOM      4  C   UNL     1      49.542   8.036  11.883  0.00  0.00    +0.000 A 
ATOM      5  F   UNL     1      50.810   8.057  11.454  0.00  0.00    +0.000 F 
ATOM      6  C   UNL     1      48.740   9.160  11.698  0.00  0.00    +0.000 A 
ATOM      7  C   UNL     1      47.400   9.169  12.121  0.00  0.00    +0.000 A 
ATOM      8  C   UNL     1      46.918   8.000  12.747  0.00  0.00    +0.000 A 
BRANCH   7   9
ATOM      9  C   UNL     1      46.533  10.353  11.920  0.00  0.00    +0.000 A 
ATOM     10  C   UNL     1      47.054  11.634  11.679  0.00  0.00    +0.000 A 
ATOM     11  C   UNL     1      46.207  12.728  11.498  0.00  0.00    +0.000 A 
ATOM     12  C   UNL     1      44.843  12.519  11.551  0.00  0.00    +0.000 A 
ATOM     13  N   UNL     1      44.286  11.313  11.775  0.00  0.00    +0.000 NA
ATOM     14  C   UNL     1      45.138  10.273  11.956  0.00  0.00    +0.000 A 
ENDBRANCH   7   9
ENDBRANCH   1   2
BRANCH   1  15
ATOM     15  N   UNL     1      45.737   5.673  13.608  0.00  0.00    +0.000 N 
ATOM     16  H   UNL     1      45.335   6.588  13.806  0.00  0.00    +0.000 HD
BRANCH  15  21
ATOM     17  C   UNL     1      44.726   4.233  10.319  0.00  0.00    +0.000 A 
ATOM     18  C   UNL     1      43.698   3.418  10.767  0.00  0.00    +0.000 A 
ATOM     19  N   UNL     1      43.340   3.319  12.066  0.00  0.00    +0.000 NA
ATOM     20  C   UNL     1      44.031   4.089  12.942  0.00  0.00    +0.000 A 
ATOM     21  C   UNL     1      45.053   4.987  12.605  0.00  0.00    +0.000 A 
ATOM     22  C   UNL     1      45.408   5.022  11.254  0.00  0.00    +0.000 A 
BRANCH  17  24
ATOM     23  N   UNL     1      44.361   3.389   8.070  0.00  0.00    +0.000 N 
ATOM     24  C   UNL     1      45.044   4.255   8.878  0.00  0.00    +0.000 C 
ATOM     25  O   UNL     1      45.865   5.036   8.416  0.00  0.00    +0.000 OA
ATOM     26  H   UNL     1      44.515   3.497   7.074  0.00  0.00    +0.000 HD
ATOM     27  H   UNL     1      43.504   2.940   8.360  0.00  0.00    +0.000 HD
ENDBRANCH  17  24
ENDBRANCH  15  21
ENDBRANCH   1  15
TORSDOF 5
ENDMDL
