MODEL 1
REMARK VINA RESULT:    -7.209      0.000      0.000
REMARK INTER + INTRA:          -8.943
REMARK INTER:                  -8.474
REMARK INTRA:                  -0.469
REMARK UNBOUND:                -0.469
REMARK  Name = 
REMARK  3 active torsions:
REMARK  status: ('A' for Active; 'I' for Inactive)
REMARK    1  A    between atoms: C_2  and  C_11
REMARK    2  A    between atoms: N_3  and  C_4
REMARK    3  A    between atoms: C_4  and  C_5
REMARK                            x       y       z     vdW  Elec       q    Type
REMARK                         _______ _______ _______ _____ _____    ______ ____
ROOT
ATOM      1  O   UNL     1      43.856   4.657  10.925  0.00  0.00    +0.000 OA
ATOM      2  C   UNL     1      44.998   5.029  10.671  0.00  0.00    +0.000 C 
ATOM      3  N   UNL     1      45.541   4.898   9.422  0.00  0.00    +0.000 N 
ATOM      4  H   UNL     1      46.510   5.146   9.252  0.00  0.00    +0.000 HD
ENDROOT
BRANCH   2   5
ATOM      5  C   UNL     1      45.832   5.680  11.689  0.00  0.00    +0.000 A 
ATOM      6  C   UNL     1      46.124   7.033  11.578  0.00  0.00    +0.000 A 
ATOM      7  S   UNL     1      47.099   7.630  12.842  0.00  0.00    +0.000 S 
ATOM      8  C   UNL     1      47.127   6.112  13.609  0.00  0.00    +0.000 A 
ATOM      9  N   UNL     1      47.776   5.942  14.792  0.00  0.00    +0.000 NA
ATOM     10  C   UNL     1      47.686   4.750  15.283  0.00  0.00    +0.000 A 
ATOM     11  N   UNL     1      47.014   3.712  14.691  0.00  0.00    +0.000 N 
ATOM     12  C   UNL     1      46.391   3.826  13.470  0.00  0.00    +0.000 A 
ATOM     13  O   UNL     1      45.877   2.853  12.928  0.00  0.00    +0.000 OA
ATOM     14  C   UNL     1      46.429   5.156  12.894  0.00  0.00    +0.000 A 
ATOM     15  H   UNL     1      47.001   2.795  15.117  0.00  0.00    +0.000 HD
ENDBRANCH   2   5
BRANCH   3  16
ATOM     16  C   UNL     1      44.863   4.209   8.345  0.00  0.00    +0.000 C 
BRANCH  16  17
ATOM     17  C   UNL     1      45.677   3.072   7.789  0.00  0.00    +0.000 A 
ATOM     18  C   UNL     1      45.762   1.862   8.472  0.00  0.00    +0.000 A 
ATOM     19  N   UNL     1      46.512   0.821   8.033  0.00  0.00    +0.000 NA
ATOM     20  C   UNL     1      47.168   1.031   6.871  0.00  0.00    +0.000 A 
ATOM     21  C   UNL     1      47.072   2.221   6.172  0.00  0.00    +0.000 A 
ATOM     22  N   UNL     1      46.327   3.262   6.609  0.00  0.00    +0.000 NA
ENDBRANCH  16  17
ENDBRANCH   3  16
TORSDOF 3
ENDMDL
MODEL 2
REMARK VINA RESULT:    -6.898      3.964      7.092
REMARK INTER + INTRA:          -8.577
REMARK INTER:                  -8.131
REMARK INTRA:                  -0.446
REMARK UNBOUND:                -0.469
REMARK  Name = 
REMARK  3 active torsions:
REMARK  status: ('A' for Active; 'I' for Inactive)
REMARK    1  A    between atoms: C_2  and  C_11
REMARK    2  A    between atoms: N_3  and  C_4
REMARK    3  A    between atoms: C_4  and  C_5
REMARK                            x       y       z     vdW  Elec       q    Type
REMARK                         _______ _______ _______ _____ _____    ______ ____
ROOT
ATOM      1  O   UNL     1      47.295   3.133  14.003  0.00  0.00    +0.000 OA
ATOM      2  C   UNL     1      46.865   4.183  14.472  0.00  0.00    +0.000 C 
ATOM      3  N   UNL     1      46.866   4.426  15.819  0.00  0.00    +0.000 N 
ATOM      4  H   UNL     1      46.442   5.270  16.190  0.00  0.00    +0.000 HD
ENDROOT
BRANCH   2   5
ATOM      5  C   UNL     1      46.368   5.259  13.607  0.00  0.00    +0.000 A 
ATOM      6  C   UNL     1      47.172   6.360  13.346  0.00  0.00    +0.000 A 
ATOM      7  S   UNL     1      46.445   7.513  12.322  0.00  0.00    +0.000 S 
ATOM      8  C   UNL     1      45.047   6.558  12.152  0.00  0.00    +0.000 A 
ATOM      9  N   UNL     1      44.021   6.963  11.355  0.00  0.00    +0.000 NA
ATOM     10  C   UNL     1      43.039   6.127  11.287  0.00  0.00    +0.000 A 
ATOM     11  N   UNL     1      42.987   4.929  11.952  0.00  0.00    +0.000 N 
ATOM     12  C   UNL     1      43.976   4.508  12.809  0.00  0.00    +0.000 A 
ATOM     13  O   UNL     1      43.855   3.474  13.458  0.00  0.00    +0.000 OA
ATOM     14  C   UNL     1      45.122   5.393  12.892  0.00  0.00    +0.000 A 
ATOM     15  H   UNL     1      42.176   4.329  11.875  0.00  0.00    +0.000 HD
ENDBRANCH   2   5
BRANCH   3  16
ATOM     16  C   UNL     1      47.256   3.429  16.792  0.00  0.00    +0.000 C 
BRANCH  16  17
ATOM     17  C   UNL     1      48.725   3.485  17.113  0.00  0.00    +0.000 A 
ATOM     18  C   UNL     1      49.315   4.674  17.532  0.00  0.00    +0.000 A 
ATOM     19  N   UNL     1      50.640   4.785  17.796  0.00  0.00    +0.000 NA
ATOM     20  C   UNL     1      51.358   3.652  17.637  0.00  0.00    +0.000 A 
ATOM     21  C   UNL     1      50.779   2.458  17.243  0.00  0.00    +0.000 A 
ATOM     22  N   UNL     1      49.458   2.345  16.976  0.00  0.00    +0.000 NA
ENDBRANCH  16  17
ENDBRANCH   3  16
TORSDOF 3
ENDMDL
MODEL 3
REMARK VINA RESULT:    -6.819      3.437      6.848
REMARK INTER + INTRA:          -8.484
REMARK INTER:                  -7.937
REMARK INTRA:                  -0.546
REMARK UNBOUND:                -0.469
REMARK  Name = 
REMARK  3 active torsions:
REMARK  status: ('A' for Active; 'I' for Inactive)
REMARK    1  A    between atoms: C_2  and  C_11
REMARK    2  A    between atoms: N_3  and  C_4
REMARK    3  A    between atoms: C_4  and  C_5
REMARK                            x       y       z     vdW  Elec       q    Type
REMARK                         _______ _______ _______ _____ _____    ______ ____
ROOT
ATOM      1  O   UNL     1      48.801   6.117  12.940  0.00  0.00    +0.000 OA
ATOM      2  C   UNL     1      47.716   6.224  13.507  0.00  0.00    +0.000 C 
ATOM      3  N   UNL     1      47.624   6.473  14.849  0.00  0.00    +0.000 N 
ATOM      4  H   UNL     1      46.720   6.487  15.309  0.00  0.00    +0.000 HD
ENDROOT
BRANCH   2   5
ATOM      5  C   UNL     1      46.454   6.135  12.763  0.00  0.00    +0.000 A 
ATOM      6  C   UNL     1      45.930   7.269  12.158  0.00  0.00    +0.000 A 
ATOM      7  S   UNL     1      44.464   6.991  11.334  0.00  0.00    +0.000 S 
ATOM      8  C   UNL     1      44.502   5.334  11.716  0.00  0.00    +0.000 A 
ATOM      9  N   UNL     1      43.529   4.494  11.269  0.00  0.00    +0.000 NA
ATOM     10  C   UNL     1      43.700   3.257  11.600  0.00  0.00    +0.000 A 
ATOM     11  N   UNL     1      44.750   2.788  12.346  0.00  0.00    +0.000 N 
ATOM     12  C   UNL     1      45.724   3.609  12.864  0.00  0.00    +0.000 A 
ATOM     13  O   UNL     1      46.598   3.168  13.603  0.00  0.00    +0.000 OA
ATOM     14  C   UNL     1      45.600   5.004  12.489  0.00  0.00    +0.000 A 
ATOM     15  H   UNL     1      44.813   1.808  12.592  0.00  0.00    +0.000 HD
ENDBRANCH   2   5
BRANCH   3  16
ATOM     16  C   UNL     1      48.781   6.511  15.717  0.00  0.00    +0.000 C 
BRANCH  16  17
ATOM     17  C   UNL     1      48.920   5.259  16.542  0.00  0.00    +0.000 A 
ATOM     18  C   UNL     1      47.811   4.463  16.813  0.00  0.00    +0.000 A 
ATOM     19  N   UNL     1      47.876   3.347  17.582  0.00  0.00    +0.000 NA
ATOM     20  C   UNL     1      49.102   3.049  18.062  0.00  0.00    +0.000 A 
ATOM     21  C   UNL     1      50.216   3.820  17.781  0.00  0.00    +0.000 A 
ATOM     22  N   UNL     1      50.153   4.934  17.016  0.00  0.00    +0.000 NA
ENDBRANCH  16  17
ENDBRANCH   3  16
TORSDOF 3
ENDMDL
MODEL 4
REMARK VINA RESULT:    -6.453      3.375      4.663
REMARK INTER + INTRA:          -8.054
REMARK INTER:                  -7.417
REMARK INTRA:                  -0.637
REMARK UNBOUND:                -0.469
REMARK  Name = 
REMARK  3 active torsions:
REMARK  status: ('A' for Active; 'I' for Inactive)
REMARK    1  A    between atoms: C_2  and  C_11
REMARK    2  A    between atoms: N_3  and  C_4
REMARK    3  A    between atoms: C_4  and  C_5
REMARK                            x       y       z     vdW  Elec       q    Type
REMARK                         _______ _______ _______ _____ _____    ______ ____
ROOT
ATOM      1  O   UNL     1      48.811   6.320  13.073  0.00  0.00    +0.000 OA
ATOM      2  C   UNL     1      47.979   6.169  13.962  0.00  0.00    +0.000 C 
ATOM      3  N   UNL     1      46.646   6.025  13.688  0.00  0.00    +0.000 N 
ATOM      4  H   UNL     1      45.967   5.972  14.440  0.00  0.00    +0.000 HD
ENDROOT
BRANCH   2   5
ATOM      5  C   UNL     1      48.375   6.089  15.373  0.00  0.00    +0.000 A 
ATOM      6  C   UNL     1      48.894   7.209  16.008  0.00  0.00    +0.000 A 
ATOM      7  S   UNL     1      49.298   6.946  17.642  0.00  0.00    +0.000 S 
ATOM      8  C   UNL     1      48.749   5.337  17.575  0.00  0.00    +0.000 A 
ATOM      9  N   UNL     1      48.781   4.544  18.679  0.00  0.00    +0.000 NA
ATOM     10  C   UNL     1      48.299   3.359  18.498  0.00  0.00    +0.000 A 
ATOM     11  N   UNL     1      47.799   2.894  17.309  0.00  0.00    +0.000 N 
ATOM     12  C   UNL     1      47.799   3.643  16.155  0.00  0.00    +0.000 A 
ATOM     13  O   UNL     1      47.429   3.164  15.089  0.00  0.00    +0.000 OA
ATOM     14  C   UNL     1      48.294   4.997  16.314  0.00  0.00    +0.000 A 
ATOM     15  H   UNL     1      47.458   1.945  17.226  0.00  0.00    +0.000 HD
ENDBRANCH   2   5
BRANCH   3  16
ATOM     16  C   UNL     1      46.106   6.157  12.352  0.00  0.00    +0.000 C 
BRANCH  16  17
ATOM     17  C   UNL     1      45.150   5.047  12.007  0.00  0.00    +0.000 A 
ATOM     18  C   UNL     1      44.676   4.187  12.994  0.00  0.00    +0.000 A 
ATOM     19  N   UNL     1      43.845   3.149  12.729  0.00  0.00    +0.000 NA
ATOM     20  C   UNL     1      43.493   3.009  11.432  0.00  0.00    +0.000 A 
ATOM     21  C   UNL     1      43.939   3.870  10.446  0.00  0.00    +0.000 A 
ATOM     22  N   UNL     1      44.770   4.905  10.707  0.00  0.00    +0.000 NA
ENDBRANCH  16  17
ENDBRANCH   3  16
TORSDOF 3
ENDMDL
MODEL 5
REMARK VINA RESULT:    -6.171      3.316      8.245
REMARK INTER + INTRA:          -7.723
REMARK INTER:                  -7.105
REMARK INTRA:                  -0.618
REMARK UNBOUND:                -0.469
REMARK  Name = 
REMARK  3 active torsions:
REMARK  status: ('A' for Active; 'I' for Inactive)
REMARK    1  A    between atoms: C_2  and  C_11
REMARK    2  A    between atoms: N_3  and  C_4
REMARK    3  A    between atoms: C_4  and  C_5
REMARK                            x       y       z     vdW  Elec       q    Type
REMARK                         _______ _______ _______ _____ _____    ______ ____
ROOT
ATOM      1  O   UNL     1      49.368   6.795  14.440  0.00  0.00    +0.000 OA
ATOM      2  C   UNL     1      48.285   6.263  14.668  0.00  0.00    +0.000 C 
ATOM      3  N   UNL     1      47.982   5.739  15.895  0.00  0.00    +0.000 N 
ATOM      4  H   UNL     1      47.111   5.241  16.042  0.00  0.00    +0.000 HD
ENDROOT
BRANCH   2   5
ATOM      5  C   UNL     1      47.234   6.200  13.646  0.00  0.00    +0.000 A 
ATOM      6  C   UNL     1      46.835   7.360  12.996  0.00  0.00    +0.000 A 
ATOM      7  S   UNL     1      45.610   7.111  11.837  0.00  0.00    +0.000 S 
ATOM      8  C   UNL     1      45.602   5.434  12.128  0.00  0.00    +0.000 A 
ATOM      9  N   UNL     1      44.784   4.609  11.421  0.00  0.00    +0.000 NA
ATOM     10  C   UNL     1      44.907   3.357  11.717  0.00  0.00    +0.000 A 
ATOM     11  N   UNL     1      45.766   2.860  12.662  0.00  0.00    +0.000 N 
ATOM     12  C   UNL     1      46.569   3.663  13.437  0.00  0.00    +0.000 A 
ATOM     13  O   UNL     1      47.258   3.192  14.336  0.00  0.00    +0.000 OA
ATOM     14  C   UNL     1      46.499   5.076  13.119  0.00  0.00    +0.000 A 
ATOM     15  H   UNL     1      45.796   1.869  12.863  0.00  0.00    +0.000 HD
ENDBRANCH   2   5
BRANCH   3  16
ATOM     16  C   UNL     1      48.946   5.664  16.971  0.00  0.00    +0.000 C 
BRANCH  16  17
ATOM     17  C   UNL     1      48.463   6.346  18.223  0.00  0.00    +0.000 A 
ATOM     18  C   UNL     1      48.327   7.731  18.268  0.00  0.00    +0.000 A 
ATOM     19  N   UNL     1      47.932   8.396  19.382  0.00  0.00    +0.000 NA
ATOM     20  C   UNL     1      47.664   7.619  20.453  0.00  0.00    +0.000 A 
ATOM     21  C   UNL     1      47.774   6.240  20.414  0.00  0.00    +0.000 A 
ATOM     22  N   UNL     1      48.170   5.575  19.305  0.00  0.00    +0.000 NA
ENDBRANCH  16  17
ENDBRANCH   3  16
TORSDOF 3
ENDMDL
MODEL 6
REMARK VINA RESULT:    -6.162      1.603      2.486
REMARK INTER + INTRA:          -7.712
REMARK INTER:                  -7.116
REMARK INTRA:                  -0.595
REMARK UNBOUND:                -0.469
REMARK  Name = 
REMARK  3 active torsions:
REMARK  status: ('A' for Active; 'I' for Inactive)
REMARK    1  A    between atoms: C_2  and  C_11
REMARK    2  A    between atoms: N_3  and  C_4
REMARK    3  A    between atoms: C_4  and  C_5
REMARK                            x       y       z     vdW  Elec       q    Type
REMARK                         _______ _______ _______ _____ _____    ______ ____
ROOT
ATOM      1  O   UNL     1      43.809   4.036  11.463  0.00  0.00    +0.000 OA
ATOM      2  C   UNL     1      44.902   4.549  11.241  0.00  0.00    +0.000 C 
ATOM      3  N   UNL     1      45.381   4.708   9.969  0.00  0.00    +0.000 N 
ATOM      4  H   UNL     1      46.315   5.069   9.811  0.00  0.00    +0.000 HD
ENDROOT
BRANCH   2   5
ATOM      5  C   UNL     1      45.739   5.066  12.330  0.00  0.00    +0.000 A 
ATOM      6  C   UNL     1      46.295   4.185  13.249  0.00  0.00    +0.000 A 
ATOM      7  S   UNL     1      47.240   4.948  14.445  0.00  0.00    +0.000 S 
ATOM      8  C   UNL     1      46.980   6.479  13.750  0.00  0.00    +0.000 A 
ATOM      9  N   UNL     1      47.557   7.591  14.280  0.00  0.00    +0.000 NA
ATOM     10  C   UNL     1      47.307   8.681  13.633  0.00  0.00    +0.000 A 
ATOM     11  N   UNL     1      46.524   8.758  12.510  0.00  0.00    +0.000 N 
ATOM     12  C   UNL     1      45.878   7.669  11.973  0.00  0.00    +0.000 A 
ATOM     13  O   UNL     1      45.113   7.791  11.023  0.00  0.00    +0.000 OA
ATOM     14  C   UNL     1      46.157   6.412  12.640  0.00  0.00    +0.000 A 
ATOM     15  H   UNL     1      46.348   9.648  12.063  0.00  0.00    +0.000 HD
ENDBRANCH   2   5
BRANCH   3  16
ATOM     16  C   UNL     1      44.699   4.180   8.807  0.00  0.00    +0.000 C 
BRANCH  16  17
ATOM     17  C   UNL     1      45.535   3.178   8.057  0.00  0.00    +0.000 A 
ATOM     18  C   UNL     1      45.722   1.893   8.559  0.00  0.00    +0.000 A 
ATOM     19  N   UNL     1      46.496   0.967   7.941  0.00  0.00    +0.000 NA
ATOM     20  C   UNL     1      47.070   1.372   6.788  0.00  0.00    +0.000 A 
ATOM     21  C   UNL     1      46.873   2.639   6.267  0.00  0.00    +0.000 A 
ATOM     22  N   UNL     1      46.104   3.565   6.882  0.00  0.00    +0.000 NA
ENDBRANCH  16  17
ENDBRANCH   3  16
TORSDOF 3
ENDMDL
MODEL 7
REMARK VINA RESULT:    -6.037      4.401      7.031
REMARK INTER + INTRA:          -7.565
REMARK INTER:                  -7.009
REMARK INTRA:                  -0.555
REMARK UNBOUND:                -0.469
REMARK  Name = 
REMARK  3 active torsions:
REMARK  status: ('A' for Active; 'I' for Inactive)
REMARK    1  A    between atoms: C_2  and  C_11
REMARK    2  A    between atoms: N_3  and  C_4
REMARK    3  A    between atoms: C_4  and  C_5
REMARK                            x       y       z     vdW  Elec       q    Type
REMARK                         _______ _______ _______ _____ _____    ______ ____
ROOT
ATOM      1  O   UNL     1      45.426   9.549  12.573  0.00  0.00    +0.000 OA
ATOM      2  C   UNL     1      45.044   8.570  11.938  0.00  0.00    +0.000 C 
ATOM      3  N   UNL     1      44.351   8.695  10.766  0.00  0.00    +0.000 N 
ATOM      4  H   UNL     1      43.983   7.875  10.294  0.00  0.00    +0.000 HD
ENDROOT
BRANCH   2   5
ATOM      5  C   UNL     1      45.350   7.205  12.382  0.00  0.00    +0.000 A 
ATOM      6  C   UNL     1      46.563   6.938  13.003  0.00  0.00    +0.000 A 
ATOM      7  S   UNL     1      46.757   5.307  13.457  0.00  0.00    +0.000 S 
ATOM      8  C   UNL     1      45.206   4.907  12.883  0.00  0.00    +0.000 A 
ATOM      9  N   UNL     1      44.724   3.641  13.005  0.00  0.00    +0.000 NA
ATOM     10  C   UNL     1      43.521   3.484  12.562  0.00  0.00    +0.000 A 
ATOM     11  N   UNL     1      42.761   4.478  12.000  0.00  0.00    +0.000 N 
ATOM     12  C   UNL     1      43.229   5.757  11.808  0.00  0.00    +0.000 A 
ATOM     13  O   UNL     1      42.556   6.596  11.219  0.00  0.00    +0.000 OA
ATOM     14  C   UNL     1      44.564   5.996  12.324  0.00  0.00    +0.000 A 
ATOM     15  H   UNL     1      41.832   4.284  11.651  0.00  0.00    +0.000 HD
ENDBRANCH   2   5
BRANCH   3  16
ATOM     16  C   UNL     1      43.915   9.974  10.249  0.00  0.00    +0.000 C 
BRANCH  16  17
ATOM     17  C   UNL     1      42.655  10.462  10.913  0.00  0.00    +0.000 A 
ATOM     18  C   UNL     1      42.682  11.566  11.760  0.00  0.00    +0.000 A 
ATOM     19  N   UNL     1      41.582  12.021  12.411  0.00  0.00    +0.000 NA
ATOM     20  C   UNL     1      40.444  11.334  12.172  0.00  0.00    +0.000 A 
ATOM     21  C   UNL     1      40.400  10.249  11.314  0.00  0.00    +0.000 A 
ATOM     22  N   UNL     1      41.496   9.792  10.665  0.00  0.00    +0.000 NA
ENDBRANCH  16  17
ENDBRANCH   3  16
TORSDOF 3
ENDMDL
MODEL 8
REMARK VINA RESULT:    -5.921      3.833      6.701
REMARK INTER + INTRA:          -7.429
REMARK INTER:                  -6.788
REMARK INTRA:                  -0.641
REMARK UNBOUND:                -0.469
REMARK  Name = 
REMARK  3 active torsions:
REMARK  status: ('A' for Active; 'I' for Inactive)
REMARK    1  A    between atoms: C_2  and  C_11
REMARK    2  A    between atoms: N_3  and  C_4
REMARK    3  A    between atoms: C_4  and  C_5
REMARK                            x       y       z     vdW  Elec       q    Type
REMARK                         _______ _______ _______ _____ _____    ______ ____
ROOT
ATOM      1  O   UNL     1      47.351   7.018  11.482  0.00  0.00    +0.000 OA
ATOM      2  C   UNL     1      46.139   6.822  11.481  0.00  0.00    +0.000 C 
ATOM      3  N   UNL     1      45.264   7.701  12.058  0.00  0.00    +0.000 N 
ATOM      4  H   UNL     1      44.274   7.486  12.108  0.00  0.00    +0.000 HD
ENDROOT
BRANCH   2   5
ATOM      5  C   UNL     1      45.555   5.650  10.817  0.00  0.00    +0.000 A 
ATOM      6  C   UNL     1      45.789   5.437   9.465  0.00  0.00    +0.000 A 
ATOM      7  S   UNL     1      45.043   4.032   8.853  0.00  0.00    +0.000 S 
ATOM      8  C   UNL     1      44.420   3.632  10.385  0.00  0.00    +0.000 A 
ATOM      9  N   UNL     1      43.697   2.494  10.566  0.00  0.00    +0.000 NA
ATOM     10  C   UNL     1      43.317   2.293  11.784  0.00  0.00    +0.000 A 
ATOM     11  N   UNL     1      43.587   3.133  12.834  0.00  0.00    +0.000 N 
ATOM     12  C   UNL     1      44.266   4.319  12.685  0.00  0.00    +0.000 A 
ATOM     13  O   UNL     1      44.410   5.090  13.628  0.00  0.00    +0.000 OA
ATOM     14  C   UNL     1      44.750   4.574  11.341  0.00  0.00    +0.000 A 
ATOM     15  H   UNL     1      43.239   2.930  13.762  0.00  0.00    +0.000 HD
ENDBRANCH   2   5
BRANCH   3  16
ATOM     16  C   UNL     1      45.702   8.857  12.811  0.00  0.00    +0.000 C 
BRANCH  16  17
ATOM     17  C   UNL     1      45.700  10.115  11.984  0.00  0.00    +0.000 A 
ATOM     18  C   UNL     1      46.836  10.916  11.912  0.00  0.00    +0.000 A 
ATOM     19  N   UNL     1      46.874  12.077  11.212  0.00  0.00    +0.000 NA
ATOM     20  C   UNL     1      45.730  12.403  10.572  0.00  0.00    +0.000 A 
ATOM     21  C   UNL     1      44.602  11.603  10.618  0.00  0.00    +0.000 A 
ATOM     22  N   UNL     1      44.561  10.446  11.317  0.00  0.00    +0.000 NA
ENDBRANCH  16  17
ENDBRANCH   3  16
TORSDOF 3
ENDMDL
MODEL 9
REMARK VINA RESULT:    -5.289      3.715      5.916
REMARK INTER + INTRA:          -6.686
REMARK INTER:                  -6.033
REMARK INTRA:                  -0.653
REMARK UNBOUND:                -0.469
REMARK  Name = 
REMARK  3 active torsions:
REMARK  status: ('A' for Active; 'I' for Inactive)
REMARK    1  A    between atoms: C_2  and  C_11
REMARK    2  A    between atoms: N_3  and  C_4
REMARK    3  A    between atoms: C_4  and  C_5
REMARK                            x       y       z     vdW  Elec       q    Type
REMARK                         _______ _______ _______ _____ _____    ______ ____
ROOT
ATOM      1  O   UNL     1      47.974   6.972  11.757  0.00  0.00    +0.000 OA
ATOM      2  C   UNL     1      47.184   7.610  12.448  0.00  0.00    +0.000 C 
ATOM      3  N   UNL     1      46.406   7.008  13.398  0.00  0.00    +0.000 N 
ATOM      4  H   UNL     1      45.709   7.541  13.908  0.00  0.00    +0.000 HD
ENDROOT
BRANCH   2   5
ATOM      5  C   UNL     1      47.064   9.068  12.323  0.00  0.00    +0.000 A 
ATOM      6  C   UNL     1      48.140   9.878  12.658  0.00  0.00    +0.000 A 
ATOM      7  S   UNL     1      47.836  11.543  12.452  0.00  0.00    +0.000 S 
ATOM      8  C   UNL     1      46.270  11.237  11.861  0.00  0.00    +0.000 A 
ATOM      9  N   UNL     1      45.467  12.258  11.457  0.00  0.00    +0.000 NA
ATOM     10  C   UNL     1      44.320  11.883  10.996  0.00  0.00    +0.000 A 
ATOM     11  N   UNL     1      43.901  10.580  10.913  0.00  0.00    +0.000 N 
ATOM     12  C   UNL     1      44.658   9.523  11.361  0.00  0.00    +0.000 A 
ATOM     13  O   UNL     1      44.215   8.379  11.356  0.00  0.00    +0.000 OA
ATOM     14  C   UNL     1      45.973   9.886  11.853  0.00  0.00    +0.000 A 
ATOM     15  H   UNL     1      42.979  10.354  10.564  0.00  0.00    +0.000 HD
ENDBRANCH   2   5
BRANCH   3  16
ATOM     16  C   UNL     1      46.365   5.573  13.579  0.00  0.00    +0.000 C 
BRANCH  16  17
ATOM     17  C   UNL     1      45.209   4.936  12.856  0.00  0.00    +0.000 A 
ATOM     18  C   UNL     1      43.924   5.461  12.973  0.00  0.00    +0.000 A 
ATOM     19  N   UNL     1      42.844   4.902  12.372  0.00  0.00    +0.000 NA
ATOM     20  C   UNL     1      43.099   3.800  11.635  0.00  0.00    +0.000 A 
ATOM     21  C   UNL     1      44.375   3.282  11.493  0.00  0.00    +0.000 A 
ATOM     22  N   UNL     1      45.453   3.836  12.092  0.00  0.00    +0.000 NA
ENDBRANCH  16  17
ENDBRANCH   3  16
TORSDOF 3
ENDMDL
