MODEL 1
REMARK VINA RESULT:    -8.758      0.000      0.000
REMARK INTER + INTRA:         -13.090
REMARK INTER:                 -12.085
REMARK INTRA:                  -1.005
REMARK UNBOUND:                -1.005
REMARK  Name = 
REMARK  8 active torsions:
REMARK  status: ('A' for Active; 'I' for Inactive)
REMARK    1  A    between atoms: C_1  and  C_2
REMARK    2  A    between atoms: C_2  and  C_3
REMARK    3  A    between atoms: C_2  and  N_19
REMARK    4  A    between atoms: C_3  and  C_4
REMARK    5  A    between atoms: C_8  and  C_9
REMARK    6  A    between atoms: C_12  and  C_13
REMARK    7  A    between atoms: C_13  and  O_15
REMARK    8  A    between atoms: C_23  and  C_24
REMARK                            x       y       z     vdW  Elec       q    Type
REMARK                         _______ _______ _______ _____ _____    ______ ____
ROOT
ATOM      1  C   UNL     1      45.019   6.261  11.775  0.00  0.00    +0.000 A 
ATOM      2  C   UNL     1      43.629   6.175  11.936  0.00  0.00    +0.000 A 
ATOM      3  C   UNL     1      42.902   5.136  11.372  0.00  0.00    +0.000 A 
ATOM      4  C   UNL     1      43.539   4.219  10.549  0.00  0.00    +0.000 A 
ATOM      5  C   UNL     1      44.901   4.353  10.226  0.00  0.00    +0.000 A 
ATOM      6  C   UNL     1      45.640   5.346  10.902  0.00  0.00    +0.000 A 
ENDROOT
BRANCH   5   7
ATOM      7  C   UNL     1      45.470   3.563   9.112  0.00  0.00    +0.000 A 
ATOM      8  C   UNL     1      46.086   4.242   8.039  0.00  0.00    +0.000 A 
ATOM      9  C   UNL     1      46.727   3.566   7.003  0.00  0.00    +0.000 A 
ATOM     10  C   UNL     1      46.758   2.173   7.007  0.00  0.00    +0.000 A 
ATOM     11  C   UNL     1      46.161   1.473   8.063  0.00  0.00    +0.000 A 
ATOM     12  C   UNL     1      45.515   2.162   9.100  0.00  0.00    +0.000 A 
BRANCH  10  13
ATOM     13  C   UNL     1      47.475   1.412   5.957  0.00  0.00    +0.000 C 
ATOM     14  O   UNL     1      47.099   0.322   5.564  0.00  0.00    +0.000 OA
BRANCH  13  15
ATOM     15  O   UNL     1      48.560   2.042   5.460  0.00  0.00    +0.000 OA
ATOM     16  H   UNL     1      48.381   2.653   4.723  0.00  0.00    +0.000 HD
ENDBRANCH  13  15
ENDBRANCH  10  13
ENDBRANCH   5   7
BRANCH   1  17
ATOM     17  C   UNL     1      45.871   7.307  12.484  0.00  0.00    +0.000 C 
BRANCH  17  19
ATOM     18  C   UNL     1      48.238   7.834  11.648  0.00  0.00    +0.000 C 
ATOM     19  C   UNL     1      47.384   6.993  12.613  0.00  0.00    +0.000 C 
BRANCH  19  20
ATOM     20  N   UNL     1      47.862   7.270  13.982  0.00  0.00    +0.000 N 
ATOM     21  C   UNL     1      47.915   6.155  14.836  0.00  0.00    +0.000 A 
ATOM     22  C   UNL     1      48.473   6.281  16.111  0.00  0.00    +0.000 A 
ATOM     23  N   UNL     1      48.537   5.268  17.015  0.00  0.00    +0.000 NA
ATOM     24  C   UNL     1      48.022   4.075  16.605  0.00  0.00    +0.000 A 
ATOM     25  C   UNL     1      47.489   3.939  15.331  0.00  0.00    +0.000 A 
ATOM     26  N   UNL     1      47.436   4.957  14.441  0.00  0.00    +0.000 NA
ATOM     27  H   UNL     1      47.357   8.020  14.446  0.00  0.00    +0.000 HD
BRANCH  24  28
ATOM     28  C   UNL     1      47.994   2.869  17.516  0.00  0.00    +0.000 C 
ATOM     29  F   UNL     1      46.754   2.346  17.726  0.00  0.00    +0.000 F 
ATOM     30  F   UNL     1      48.754   1.840  17.036  0.00  0.00    +0.000 F 
ATOM     31  F   UNL     1      48.499   3.139  18.755  0.00  0.00    +0.000 F 
ENDBRANCH  24  28
ENDBRANCH  19  20
ENDBRANCH  17  19
ENDBRANCH   1  17
TORSDOF 7
ENDMDL
MODEL 2
REMARK VINA RESULT:    -7.014      3.389      5.090
REMARK INTER + INTRA:         -10.684
REMARK INTER:                  -9.261
REMARK INTRA:                  -1.423
REMARK UNBOUND:                -1.005
REMARK  Name = 
REMARK  8 active torsions:
REMARK  status: ('A' for Active; 'I' for Inactive)
REMARK    1  A    between atoms: C_1  and  C_2
REMARK    2  A    between atoms: C_2  and  C_3
REMARK    3  A    between atoms: C_2  and  N_19
REMARK    4  A    between atoms: C_3  and  C_4
REMARK    5  A    between atoms: C_8  and  C_9
REMARK    6  A    between atoms: C_12  and  C_13
REMARK    7  A    between atoms: C_13  and  O_15
REMARK    8  A    between atoms: C_23  and  C_24
REMARK                            x       y       z     vdW  Elec       q    Type
REMARK                         _______ _______ _______ _____ _____    ______ ____
ROOT
ATOM      1  C   UNL     1      48.865   9.165  14.280  0.00  0.00    +0.000 A 
ATOM      2  C   UNL     1      49.935   9.283  13.382  0.00  0.00    +0.000 A 
ATOM      3  C   UNL     1      49.886   8.697  12.124  0.00  0.00    +0.000 A 
ATOM      4  C   UNL     1      48.808   7.896  11.780  0.00  0.00    +0.000 A 
ATOM      5  C   UNL     1      47.785   7.615  12.703  0.00  0.00    +0.000 A 
ATOM      6  C   UNL     1      47.799   8.313  13.929  0.00  0.00    +0.000 A 
ENDROOT
BRANCH   5   7
ATOM      7  C   UNL     1      46.830   6.519  12.427  0.00  0.00    +0.000 A 
ATOM      8  C   UNL     1      46.539   5.593  13.450  0.00  0.00    +0.000 A 
ATOM      9  C   UNL     1      45.580   4.593  13.296  0.00  0.00    +0.000 A 
ATOM     10  C   UNL     1      44.887   4.486  12.092  0.00  0.00    +0.000 A 
ATOM     11  C   UNL     1      45.151   5.396  11.061  0.00  0.00    +0.000 A 
ATOM     12  C   UNL     1      46.119   6.398  11.224  0.00  0.00    +0.000 A 
BRANCH  10  13
ATOM     13  C   UNL     1      43.820   3.475  11.901  0.00  0.00    +0.000 C 
ATOM     14  O   UNL     1      42.860   3.663  11.174  0.00  0.00    +0.000 OA
BRANCH  13  15
ATOM     15  O   UNL     1      44.020   2.326  12.579  0.00  0.00    +0.000 OA
ATOM     16  H   UNL     1      43.476   2.218  13.379  0.00  0.00    +0.000 HD
ENDBRANCH  13  15
ENDBRANCH  10  13
ENDBRANCH   5   7
BRANCH   1  17
ATOM     17  C   UNL     1      48.820   9.899  15.615  0.00  0.00    +0.000 C 
BRANCH  17  19
ATOM     18  C   UNL     1      50.433  10.268  17.575  0.00  0.00    +0.000 C 
ATOM     19  C   UNL     1      49.595   9.245  16.788  0.00  0.00    +0.000 C 
BRANCH  19  20
ATOM     20  N   UNL     1      48.664   8.610  17.741  0.00  0.00    +0.000 N 
ATOM     21  C   UNL     1      48.513   7.220  17.597  0.00  0.00    +0.000 A 
ATOM     22  C   UNL     1      47.758   6.501  18.527  0.00  0.00    +0.000 A 
ATOM     23  N   UNL     1      47.531   5.163  18.449  0.00  0.00    +0.000 NA
ATOM     24  C   UNL     1      48.102   4.526  17.389  0.00  0.00    +0.000 A 
ATOM     25  C   UNL     1      48.874   5.231  16.477  0.00  0.00    +0.000 A 
ATOM     26  N   UNL     1      49.094   6.564  16.570  0.00  0.00    +0.000 NA
ATOM     27  H   UNL     1      47.745   9.043  17.764  0.00  0.00    +0.000 HD
BRANCH  24  28
ATOM     28  C   UNL     1      47.908   3.045  17.155  0.00  0.00    +0.000 C 
ATOM     29  F   UNL     1      46.831   2.507  17.791  0.00  0.00    +0.000 F 
ATOM     30  F   UNL     1      47.744   2.748  15.832  0.00  0.00    +0.000 F 
ATOM     31  F   UNL     1      48.984   2.308  17.557  0.00  0.00    +0.000 F 
ENDBRANCH  24  28
ENDBRANCH  19  20
ENDBRANCH  17  19
ENDBRANCH   1  17
TORSDOF 7
ENDMDL
MODEL 3
REMARK VINA RESULT:    -6.969      2.640      4.123
REMARK INTER + INTRA:         -10.622
REMARK INTER:                  -9.504
REMARK INTRA:                  -1.118
REMARK UNBOUND:                -1.005
REMARK  Name = 
REMARK  8 active torsions:
REMARK  status: ('A' for Active; 'I' for Inactive)
REMARK    1  A    between atoms: C_1  and  C_2
REMARK    2  A    between atoms: C_2  and  C_3
REMARK    3  A    between atoms: C_2  and  N_19
REMARK    4  A    between atoms: C_3  and  C_4
REMARK    5  A    between atoms: C_8  and  C_9
REMARK    6  A    between atoms: C_12  and  C_13
REMARK    7  A    between atoms: C_13  and  O_15
REMARK    8  A    between atoms: C_23  and  C_24
REMARK                            x       y       z     vdW  Elec       q    Type
REMARK                         _______ _______ _______ _____ _____    ______ ____
ROOT
ATOM      1  C   UNL     1      47.793   9.427  12.514  0.00  0.00    +0.000 A 
ATOM      2  C   UNL     1      47.049  10.538  12.093  0.00  0.00    +0.000 A 
ATOM      3  C   UNL     1      45.694  10.431  11.809  0.00  0.00    +0.000 A 
ATOM      4  C   UNL     1      45.081   9.188  11.842  0.00  0.00    +0.000 A 
ATOM      5  C   UNL     1      45.817   8.019  12.102  0.00  0.00    +0.000 A 
ATOM      6  C   UNL     1      47.162   8.167  12.500  0.00  0.00    +0.000 A 
ENDROOT
BRANCH   5   7
ATOM      7  C   UNL     1      45.216   6.697  11.819  0.00  0.00    +0.000 A 
ATOM      8  C   UNL     1      45.519   6.056  10.599  0.00  0.00    +0.000 A 
ATOM      9  C   UNL     1      45.068   4.770  10.304  0.00  0.00    +0.000 A 
ATOM     10  C   UNL     1      44.282   4.089  11.230  0.00  0.00    +0.000 A 
ATOM     11  C   UNL     1      43.971   4.698  12.452  0.00  0.00    +0.000 A 
ATOM     12  C   UNL     1      44.427   5.993  12.740  0.00  0.00    +0.000 A 
BRANCH  10  13
ATOM     13  C   UNL     1      43.827   2.700  10.985  0.00  0.00    +0.000 C 
ATOM     14  O   UNL     1      42.948   2.171  11.644  0.00  0.00    +0.000 OA
BRANCH  13  15
ATOM     15  O   UNL     1      44.448   2.088   9.955  0.00  0.00    +0.000 OA
ATOM     16  H   UNL     1      45.079   2.643   9.464  0.00  0.00    +0.000 HD
ENDBRANCH  13  15
ENDBRANCH  10  13
ENDBRANCH   5   7
BRANCH   1  17
ATOM     17  C   UNL     1      49.246   9.526  12.962  0.00  0.00    +0.000 C 
BRANCH  17  19
ATOM     18  C   UNL     1      51.231   8.186  12.044  0.00  0.00    +0.000 C 
ATOM     19  C   UNL     1      50.042   8.197  13.021  0.00  0.00    +0.000 C 
BRANCH  19  20
ATOM     20  N   UNL     1      50.582   7.968  14.376  0.00  0.00    +0.000 N 
ATOM     21  C   UNL     1      49.874   7.036  15.154  0.00  0.00    +0.000 A 
ATOM     22  C   UNL     1      50.371   6.649  16.401  0.00  0.00    +0.000 A 
ATOM     23  N   UNL     1      49.740   5.781  17.235  0.00  0.00    +0.000 NA
ATOM     24  C   UNL     1      48.559   5.276  16.780  0.00  0.00    +0.000 A 
ATOM     25  C   UNL     1      48.073   5.638  15.531  0.00  0.00    +0.000 A 
ATOM     26  N   UNL     1      48.716   6.501  14.711  0.00  0.00    +0.000 NA
ATOM     27  H   UNL     1      50.708   8.821  14.914  0.00  0.00    +0.000 HD
BRANCH  24  28
ATOM     28  C   UNL     1      47.729   4.326  17.613  0.00  0.00    +0.000 C 
ATOM     29  F   UNL     1      47.281   3.228  16.944  0.00  0.00    +0.000 F 
ATOM     30  F   UNL     1      48.418   3.847  18.691  0.00  0.00    +0.000 F 
ATOM     31  F   UNL     1      46.618   4.923  18.134  0.00  0.00    +0.000 F 
ENDBRANCH  24  28
ENDBRANCH  19  20
ENDBRANCH  17  19
ENDBRANCH   1  17
TORSDOF 7
ENDMDL
MODEL 4
REMARK VINA RESULT:    -6.721      5.737      8.476
REMARK INTER + INTRA:         -10.279
REMARK INTER:                  -9.391
REMARK INTRA:                  -0.888
REMARK UNBOUND:                -1.005
REMARK  Name = 
REMARK  8 active torsions:
REMARK  status: ('A' for Active; 'I' for Inactive)
REMARK    1  A    between atoms: C_1  and  C_2
REMARK    2  A    between atoms: C_2  and  C_3
REMARK    3  A    between atoms: C_2  and  N_19
REMARK    4  A    between atoms: C_3  and  C_4
REMARK    5  A    between atoms: C_8  and  C_9
REMARK    6  A    between atoms: C_12  and  C_13
REMARK    7  A    between atoms: C_13  and  O_15
REMARK    8  A    between atoms: C_23  and  C_24
REMARK                            x       y       z     vdW  Elec       q    Type
REMARK                         _______ _______ _______ _____ _____    ______ ____
ROOT
ATOM      1  C   UNL     1      45.725   5.400  12.680  0.00  0.00    +0.000 A 
ATOM      2  C   UNL     1      44.781   6.429  12.812  0.00  0.00    +0.000 A 
ATOM      3  C   UNL     1      45.141   7.760  12.648  0.00  0.00    +0.000 A 
ATOM      4  C   UNL     1      46.472   8.093  12.451  0.00  0.00    +0.000 A 
ATOM      5  C   UNL     1      47.479   7.112  12.470  0.00  0.00    +0.000 A 
ATOM      6  C   UNL     1      47.077   5.761  12.521  0.00  0.00    +0.000 A 
ENDROOT
BRANCH   5   7
ATOM      7  C   UNL     1      48.897   7.521  12.577  0.00  0.00    +0.000 A 
ATOM      8  C   UNL     1      49.658   7.664  11.398  0.00  0.00    +0.000 A 
ATOM      9  C   UNL     1      50.969   8.136  11.413  0.00  0.00    +0.000 A 
ATOM     10  C   UNL     1      51.565   8.471  12.626  0.00  0.00    +0.000 A 
ATOM     11  C   UNL     1      50.832   8.345  13.813  0.00  0.00    +0.000 A 
ATOM     12  C   UNL     1      49.513   7.866  13.789  0.00  0.00    +0.000 A 
BRANCH  10  13
ATOM     13  C   UNL     1      52.936   9.029  12.687  0.00  0.00    +0.000 C 
ATOM     14  O   UNL     1      53.931   8.325  12.719  0.00  0.00    +0.000 OA
BRANCH  13  15
ATOM     15  O   UNL     1      52.986  10.377  12.677  0.00  0.00    +0.000 OA
ATOM     16  H   UNL     1      52.451  10.815  13.362  0.00  0.00    +0.000 HD
ENDBRANCH  13  15
ENDBRANCH  10  13
ENDBRANCH   5   7
BRANCH   1  17
ATOM     17  C   UNL     1      45.350   3.924  12.721  0.00  0.00    +0.000 C 
BRANCH  17  19
ATOM     18  C   UNL     1      43.216   3.151  11.524  0.00  0.00    +0.000 C 
ATOM     19  C   UNL     1      44.742   3.330  11.424  0.00  0.00    +0.000 C 
BRANCH  19  20
ATOM     20  N   UNL     1      45.008   4.209  10.269  0.00  0.00    +0.000 N 
ATOM     21  C   UNL     1      45.501   3.561   9.123  0.00  0.00    +0.000 A 
ATOM     22  C   UNL     1      45.664   4.277   7.934  0.00  0.00    +0.000 A 
ATOM     23  N   UNL     1      46.163   3.743   6.788  0.00  0.00    +0.000 NA
ATOM     24  C   UNL     1      46.502   2.425   6.848  0.00  0.00    +0.000 A 
ATOM     25  C   UNL     1      46.318   1.703   8.019  0.00  0.00    +0.000 A 
ATOM     26  N   UNL     1      45.816   2.249   9.151  0.00  0.00    +0.000 NA
ATOM     27  H   UNL     1      45.609   4.999  10.488  0.00  0.00    +0.000 HD
BRANCH  24  28
ATOM     28  C   UNL     1      47.101   1.706   5.661  0.00  0.00    +0.000 C 
ATOM     29  F   UNL     1      47.080   0.348   5.751  0.00  0.00    +0.000 F 
ATOM     30  F   UNL     1      46.460   2.011   4.494  0.00  0.00    +0.000 F 
ATOM     31  F   UNL     1      48.407   2.044   5.451  0.00  0.00    +0.000 F 
ENDBRANCH  24  28
ENDBRANCH  19  20
ENDBRANCH  17  19
ENDBRANCH   1  17
TORSDOF 7
ENDMDL
MODEL 5
REMARK VINA RESULT:    -6.410      3.883      4.656
REMARK INTER + INTRA:          -9.851
REMARK INTER:                  -9.318
REMARK INTRA:                  -0.533
REMARK UNBOUND:                -1.005
REMARK  Name = 
REMARK  8 active torsions:
REMARK  status: ('A' for Active; 'I' for Inactive)
REMARK    1  A    between atoms: C_1  and  C_2
REMARK    2  A    between atoms: C_2  and  C_3
REMARK    3  A    between atoms: C_2  and  N_19
REMARK    4  A    between atoms: C_3  and  C_4
REMARK    5  A    between atoms: C_8  and  C_9
REMARK    6  A    between atoms: C_12  and  C_13
REMARK    7  A    between atoms: C_13  and  O_15
REMARK    8  A    between atoms: C_23  and  C_24
REMARK                            x       y       z     vdW  Elec       q    Type
REMARK                         _______ _______ _______ _____ _____    ______ ____
ROOT
ATOM      1  C   UNL     1      44.570   6.137  12.037  0.00  0.00    +0.000 A 
ATOM      2  C   UNL     1      43.214   5.794  12.134  0.00  0.00    +0.000 A 
ATOM      3  C   UNL     1      42.707   4.676  11.485  0.00  0.00    +0.000 A 
ATOM      4  C   UNL     1      43.526   3.939  10.643  0.00  0.00    +0.000 A 
ATOM      5  C   UNL     1      44.851   4.334  10.386  0.00  0.00    +0.000 A 
ATOM      6  C   UNL     1      45.375   5.402  11.145  0.00  0.00    +0.000 A 
ENDROOT
BRANCH   5   7
ATOM      7  C   UNL     1      45.590   3.728   9.257  0.00  0.00    +0.000 A 
ATOM      8  C   UNL     1      45.628   2.323   9.142  0.00  0.00    +0.000 A 
ATOM      9  C   UNL     1      46.223   1.683   8.055  0.00  0.00    +0.000 A 
ATOM     10  C   UNL     1      46.812   2.444   7.049  0.00  0.00    +0.000 A 
ATOM     11  C   UNL     1      46.784   3.841   7.133  0.00  0.00    +0.000 A 
ATOM     12  C   UNL     1      46.186   4.477   8.232  0.00  0.00    +0.000 A 
BRANCH  10  13
ATOM     13  C   UNL     1      47.407   1.810   5.848  0.00  0.00    +0.000 C 
ATOM     14  O   UNL     1      47.186   0.652   5.540  0.00  0.00    +0.000 OA
BRANCH  13  15
ATOM     15  O   UNL     1      48.186   2.633   5.117  0.00  0.00    +0.000 OA
ATOM     16  H   UNL     1      49.011   2.235   4.786  0.00  0.00    +0.000 HD
ENDBRANCH  13  15
ENDBRANCH  10  13
ENDBRANCH   5   7
BRANCH   1  17
ATOM     17  C   UNL     1      45.194   7.275  12.836  0.00  0.00    +0.000 C 
BRANCH  17  19
ATOM     18  C   UNL     1      46.427   9.321  11.900  0.00  0.00    +0.000 C 
ATOM     19  C   UNL     1      46.536   7.839  12.302  0.00  0.00    +0.000 C 
BRANCH  19  20
ATOM     20  N   UNL     1      47.593   7.736  13.327  0.00  0.00    +0.000 N 
ATOM     21  C   UNL     1      48.901   7.966  12.865  0.00  0.00    +0.000 A 
ATOM     22  C   UNL     1      49.961   8.021  13.773  0.00  0.00    +0.000 A 
ATOM     23  N   UNL     1      51.259   8.206  13.416  0.00  0.00    +0.000 NA
ATOM     24  C   UNL     1      51.490   8.352  12.081  0.00  0.00    +0.000 A 
ATOM     25  C   UNL     1      50.437   8.323  11.177  0.00  0.00    +0.000 A 
ATOM     26  N   UNL     1      49.149   8.141  11.550  0.00  0.00    +0.000 NA
ATOM     27  H   UNL     1      47.574   6.862  13.846  0.00  0.00    +0.000 HD
BRANCH  24  28
ATOM     28  C   UNL     1      52.888   8.531  11.534  0.00  0.00    +0.000 C 
ATOM     29  F   UNL     1      52.947   8.750  10.191  0.00  0.00    +0.000 F 
ATOM     30  F   UNL     1      53.538   9.584  12.110  0.00  0.00    +0.000 F 
ATOM     31  F   UNL     1      53.683   7.446  11.769  0.00  0.00    +0.000 F 
ENDBRANCH  24  28
ENDBRANCH  19  20
ENDBRANCH  17  19
ENDBRANCH   1  17
TORSDOF 7
ENDMDL
MODEL 6
REMARK VINA RESULT:    -5.903      5.581      8.365
REMARK INTER + INTRA:          -9.152
REMARK INTER:                  -8.618
REMARK INTRA:                  -0.534
REMARK UNBOUND:                -1.005
REMARK  Name = 
REMARK  8 active torsions:
REMARK  status: ('A' for Active; 'I' for Inactive)
REMARK    1  A    between atoms: C_1  and  C_2
REMARK    2  A    between atoms: C_2  and  C_3
REMARK    3  A    between atoms: C_2  and  N_19
REMARK    4  A    between atoms: C_3  and  C_4
REMARK    5  A    between atoms: C_8  and  C_9
REMARK    6  A    between atoms: C_12  and  C_13
REMARK    7  A    between atoms: C_13  and  O_15
REMARK    8  A    between atoms: C_23  and  C_24
REMARK                            x       y       z     vdW  Elec       q    Type
REMARK                         _______ _______ _______ _____ _____    ______ ____
ROOT
ATOM      1  C   UNL     1      44.197   7.428  11.332  0.00  0.00    +0.000 A 
ATOM      2  C   UNL     1      43.681   8.712  11.107  0.00  0.00    +0.000 A 
ATOM      3  C   UNL     1      44.482   9.840  11.225  0.00  0.00    +0.000 A 
ATOM      4  C   UNL     1      45.789   9.712  11.671  0.00  0.00    +0.000 A 
ATOM      5  C   UNL     1      46.306   8.464  12.063  0.00  0.00    +0.000 A 
ATOM      6  C   UNL     1      45.513   7.322  11.825  0.00  0.00    +0.000 A 
ENDROOT
BRANCH   5   7
ATOM      7  C   UNL     1      47.573   8.403  12.825  0.00  0.00    +0.000 A 
ATOM      8  C   UNL     1      47.583   8.836  14.168  0.00  0.00    +0.000 A 
ATOM      9  C   UNL     1      48.713   8.720  14.977  0.00  0.00    +0.000 A 
ATOM     10  C   UNL     1      49.880   8.172  14.451  0.00  0.00    +0.000 A 
ATOM     11  C   UNL     1      49.897   7.727  13.123  0.00  0.00    +0.000 A 
ATOM     12  C   UNL     1      48.756   7.851  12.316  0.00  0.00    +0.000 A 
BRANCH  10  13
ATOM     13  C   UNL     1      51.088   7.977  15.288  0.00  0.00    +0.000 C 
ATOM     14  O   UNL     1      51.708   8.907  15.773  0.00  0.00    +0.000 OA
BRANCH  13  15
ATOM     15  O   UNL     1      51.422   6.685  15.485  0.00  0.00    +0.000 OA
ATOM     16  H   UNL     1      50.823   6.188  16.070  0.00  0.00    +0.000 HD
ENDBRANCH  13  15
ENDBRANCH  10  13
ENDBRANCH   5   7
BRANCH   1  17
ATOM     17  C   UNL     1      43.392   6.158  11.086  0.00  0.00    +0.000 C 
BRANCH  17  19
ATOM     18  C   UNL     1      42.957   4.797  13.217  0.00  0.00    +0.000 C 
ATOM     19  C   UNL     1      43.787   4.916  11.926  0.00  0.00    +0.000 C 
BRANCH  19  20
ATOM     20  N   UNL     1      43.583   3.675  11.154  0.00  0.00    +0.000 N 
ATOM     21  C   UNL     1      44.422   3.519  10.036  0.00  0.00    +0.000 A 
ATOM     22  C   UNL     1      44.403   2.324   9.312  0.00  0.00    +0.000 A 
ATOM     23  N   UNL     1      45.152   2.096   8.202  0.00  0.00    +0.000 NA
ATOM     24  C   UNL     1      45.964   3.120   7.815  0.00  0.00    +0.000 A 
ATOM     25  C   UNL     1      46.005   4.300   8.546  0.00  0.00    +0.000 A 
ATOM     26  N   UNL     1      45.254   4.509   9.652  0.00  0.00    +0.000 NA
ATOM     27  H   UNL     1      42.620   3.526  10.869  0.00  0.00    +0.000 HD
BRANCH  24  28
ATOM     28  C   UNL     1      46.829   3.023   6.580  0.00  0.00    +0.000 C 
ATOM     29  F   UNL     1      46.764   4.105   5.755  0.00  0.00    +0.000 F 
ATOM     30  F   UNL     1      48.151   2.868   6.886  0.00  0.00    +0.000 F 
ATOM     31  F   UNL     1      46.512   1.945   5.805  0.00  0.00    +0.000 F 
ENDBRANCH  24  28
ENDBRANCH  19  20
ENDBRANCH  17  19
ENDBRANCH   1  17
TORSDOF 7
ENDMDL
MODEL 7
REMARK VINA RESULT:    -5.850      4.651      6.876
REMARK INTER + INTRA:          -9.078
REMARK INTER:                  -8.207
REMARK INTRA:                  -0.871
REMARK UNBOUND:                -1.005
REMARK  Name = 
REMARK  8 active torsions:
REMARK  status: ('A' for Active; 'I' for Inactive)
REMARK    1  A    between atoms: C_1  and  C_2
REMARK    2  A    between atoms: C_2  and  C_3
REMARK    3  A    between atoms: C_2  and  N_19
REMARK    4  A    between atoms: C_3  and  C_4
REMARK    5  A    between atoms: C_8  and  C_9
REMARK    6  A    between atoms: C_12  and  C_13
REMARK    7  A    between atoms: C_13  and  O_15
REMARK    8  A    between atoms: C_23  and  C_24
REMARK                            x       y       z     vdW  Elec       q    Type
REMARK                         _______ _______ _______ _____ _____    ______ ____
ROOT
ATOM      1  C   UNL     1      50.771   8.966  12.266  0.00  0.00    +0.000 A 
ATOM      2  C   UNL     1      51.719   8.992  13.299  0.00  0.00    +0.000 A 
ATOM      3  C   UNL     1      53.034   8.605  13.079  0.00  0.00    +0.000 A 
ATOM      4  C   UNL     1      53.401   8.088  11.846  0.00  0.00    +0.000 A 
ATOM      5  C   UNL     1      52.453   7.891  10.827  0.00  0.00    +0.000 A 
ATOM      6  C   UNL     1      51.153   8.398  11.035  0.00  0.00    +0.000 A 
ENDROOT
BRANCH   5   7
ATOM      7  C   UNL     1      52.798   7.055   9.656  0.00  0.00    +0.000 A 
ATOM      8  C   UNL     1      53.645   5.942   9.839  0.00  0.00    +0.000 A 
ATOM      9  C   UNL     1      53.938   5.054   8.805  0.00  0.00    +0.000 A 
ATOM     10  C   UNL     1      53.392   5.267   7.541  0.00  0.00    +0.000 A 
ATOM     11  C   UNL     1      52.542   6.361   7.332  0.00  0.00    +0.000 A 
ATOM     12  C   UNL     1      52.255   7.251   8.378  0.00  0.00    +0.000 A 
BRANCH  10  13
ATOM     13  C   UNL     1      53.630   4.321   6.426  0.00  0.00    +0.000 C 
ATOM     14  O   UNL     1      54.058   4.677   5.342  0.00  0.00    +0.000 OA
BRANCH  13  15
ATOM     15  O   UNL     1      53.357   3.034   6.725  0.00  0.00    +0.000 OA
ATOM     16  H   UNL     1      53.425   2.413   5.978  0.00  0.00    +0.000 HD
ENDBRANCH  13  15
ENDBRANCH  10  13
ENDBRANCH   5   7
BRANCH   1  17
ATOM     17  C   UNL     1      49.355   9.505  12.429  0.00  0.00    +0.000 C 
BRANCH  17  19
ATOM     18  C   UNL     1      48.145   8.869  14.600  0.00  0.00    +0.000 C 
ATOM     19  C   UNL     1      48.330   8.557  13.104  0.00  0.00    +0.000 C 
BRANCH  19  20
ATOM     20  N   UNL     1      47.006   8.674  12.462  0.00  0.00    +0.000 N 
ATOM     21  C   UNL     1      46.286   7.472  12.349  0.00  0.00    +0.000 A 
ATOM     22  C   UNL     1      44.971   7.490  11.876  0.00  0.00    +0.000 A 
ATOM     23  N   UNL     1      44.211   6.376  11.703  0.00  0.00    +0.000 NA
ATOM     24  C   UNL     1      44.806   5.196  12.034  0.00  0.00    +0.000 A 
ATOM     25  C   UNL     1      46.103   5.176  12.529  0.00  0.00    +0.000 A 
ATOM     26  N   UNL     1      46.846   6.295  12.698  0.00  0.00    +0.000 NA
ATOM     27  H   UNL     1      47.032   9.131  11.555  0.00  0.00    +0.000 HD
BRANCH  24  28
ATOM     28  C   UNL     1      44.095   3.874  11.863  0.00  0.00    +0.000 C 
ATOM     29  F   UNL     1      43.440   3.434  12.973  0.00  0.00    +0.000 F 
ATOM     30  F   UNL     1      43.156   3.917  10.871  0.00  0.00    +0.000 F 
ATOM     31  F   UNL     1      44.944   2.866  11.508  0.00  0.00    +0.000 F 
ENDBRANCH  24  28
ENDBRANCH  19  20
ENDBRANCH  17  19
ENDBRANCH   1  17
TORSDOF 7
ENDMDL
MODEL 8
REMARK VINA RESULT:    -5.806      3.816      5.462
REMARK INTER + INTRA:          -9.017
REMARK INTER:                  -7.865
REMARK INTRA:                  -1.152
REMARK UNBOUND:                -1.005
REMARK  Name = 
REMARK  8 active torsions:
REMARK  status: ('A' for Active; 'I' for Inactive)
REMARK    1  A    between atoms: C_1  and  C_2
REMARK    2  A    between atoms: C_2  and  C_3
REMARK    3  A    between atoms: C_2  and  N_19
REMARK    4  A    between atoms: C_3  and  C_4
REMARK    5  A    between atoms: C_8  and  C_9
REMARK    6  A    between atoms: C_12  and  C_13
REMARK    7  A    between atoms: C_13  and  O_15
REMARK    8  A    between atoms: C_23  and  C_24
REMARK                            x       y       z     vdW  Elec       q    Type
REMARK                         _______ _______ _______ _____ _____    ______ ____
ROOT
ATOM      1  C   UNL     1      48.867   9.211  13.854  0.00  0.00    +0.000 A 
ATOM      2  C   UNL     1      49.971   9.214  12.990  0.00  0.00    +0.000 A 
ATOM      3  C   UNL     1      49.955   8.501  11.799  0.00  0.00    +0.000 A 
ATOM      4  C   UNL     1      48.873   7.687  11.500  0.00  0.00    +0.000 A 
ATOM      5  C   UNL     1      47.812   7.523  12.407  0.00  0.00    +0.000 A 
ATOM      6  C   UNL     1      47.796   8.345  13.553  0.00  0.00    +0.000 A 
ENDROOT
BRANCH   5   7
ATOM      7  C   UNL     1      46.844   6.421  12.210  0.00  0.00    +0.000 A 
ATOM      8  C   UNL     1      46.483   5.624  13.317  0.00  0.00    +0.000 A 
ATOM      9  C   UNL     1      45.508   4.631  13.230  0.00  0.00    +0.000 A 
ATOM     10  C   UNL     1      44.869   4.400  12.014  0.00  0.00    +0.000 A 
ATOM     11  C   UNL     1      45.202   5.182  10.900  0.00  0.00    +0.000 A 
ATOM     12  C   UNL     1      46.187   6.177  10.996  0.00  0.00    +0.000 A 
BRANCH  10  13
ATOM     13  C   UNL     1      43.788   3.395  11.886  0.00  0.00    +0.000 C 
ATOM     14  O   UNL     1      42.837   3.545  11.140  0.00  0.00    +0.000 OA
BRANCH  13  15
ATOM     15  O   UNL     1      43.964   2.294  12.646  0.00  0.00    +0.000 OA
ATOM     16  H   UNL     1      43.704   2.390  13.579  0.00  0.00    +0.000 HD
ENDBRANCH  13  15
ENDBRANCH  10  13
ENDBRANCH   5   7
BRANCH   1  17
ATOM     17  C   UNL     1      48.790  10.081  15.102  0.00  0.00    +0.000 C 
BRANCH  17  19
ATOM     18  C   UNL     1      50.512  11.461  16.410  0.00  0.00    +0.000 C 
ATOM     19  C   UNL     1      50.022  10.049  16.044  0.00  0.00    +0.000 C 
BRANCH  19  20
ATOM     20  N   UNL     1      49.700   9.351  17.304  0.00  0.00    +0.000 N 
ATOM     21  C   UNL     1      50.279   8.078  17.450  0.00  0.00    +0.000 A 
ATOM     22  C   UNL     1      50.146   7.387  18.656  0.00  0.00    +0.000 A 
ATOM     23  N   UNL     1      50.643   6.141  18.877  0.00  0.00    +0.000 NA
ATOM     24  C   UNL     1      51.311   5.577  17.832  0.00  0.00    +0.000 A 
ATOM     25  C   UNL     1      51.468   6.270  16.640  0.00  0.00    +0.000 A 
ATOM     26  N   UNL     1      50.970   7.512  16.438  0.00  0.00    +0.000 NA
ATOM     27  H   UNL     1      48.704   9.286  17.491  0.00  0.00    +0.000 HD
BRANCH  24  28
ATOM     28  C   UNL     1      51.889   4.183  17.921  0.00  0.00    +0.000 C 
ATOM     29  F   UNL     1      52.028   3.706  19.189  0.00  0.00    +0.000 F 
ATOM     30  F   UNL     1      51.124   3.264  17.261  0.00  0.00    +0.000 F 
ATOM     31  F   UNL     1      53.126   4.094  17.352  0.00  0.00    +0.000 F 
ENDBRANCH  24  28
ENDBRANCH  19  20
ENDBRANCH  17  19
ENDBRANCH   1  17
TORSDOF 7
ENDMDL
