MODEL 1
REMARK VINA RESULT:    -8.302      0.000      0.000
REMARK INTER + INTRA:         -11.187
REMARK INTER:                 -11.213
REMARK INTRA:                   0.027
REMARK UNBOUND:                 0.027
REMARK  Name = 
REMARK  8 active torsions:
REMARK  status: ('A' for Active; 'I' for Inactive)
REMARK    1  A    between atoms: C_1  and  C_2
REMARK    2  A    between atoms: C_2  and  N_3
REMARK    3  A    between atoms: C_2  and  C_19
REMARK    4  A    between atoms: N_3  and  C_4
REMARK    5  A    between atoms: C_7  and  C_8
REMARK    6  A    between atoms: C_8  and  C_9
REMARK    7  A    between atoms: C_8  and  N_10
REMARK    8  A    between atoms: C_19  and  C_21
REMARK                            x       y       z     vdW  Elec       q    Type
REMARK                         _______ _______ _______ _____ _____    ______ ____
ROOT
ATOM      1  N   UNL     1      47.354   6.788  14.336  0.00  0.00    +0.000 N 
ATOM      2  H   UNL     1      46.967   7.713  14.538  0.00  0.00    +0.000 HD
ENDROOT
BRANCH   1   3
ATOM      3  C   UNL     1      46.695   6.140  13.299  0.00  0.00    +0.000 A 
ATOM      4  C   UNL     1      46.335   6.782  12.114  0.00  0.00    +0.000 A 
ATOM      5  C   UNL     1      45.518   6.143  11.178  0.00  0.00    +0.000 A 
ATOM      6  C   UNL     1      45.038   4.849  11.419  0.00  0.00    +0.000 A 
ATOM      7  C   UNL     1      45.575   4.132  12.493  0.00  0.00    +0.000 A 
ATOM      8  C   UNL     1      46.396   4.777  13.423  0.00  0.00    +0.000 A 
BRANCH   6   9
ATOM      9  C   UNL     1      43.814   4.358  10.659  0.00  0.00    +0.000 C 
ATOM     10  C   UNL     1      43.641   2.859  10.965  0.00  0.00    +0.000 C 
BRANCH   9  11
ATOM     11  N   UNL     1      43.909   4.554   9.218  0.00  0.00    +0.000 N 
ATOM     12  C   UNL     1      44.867   3.719   8.640  0.00  0.00    +0.000 A 
ATOM     13  N   UNL     1      44.927   2.422   8.969  0.00  0.00    +0.000 NA
ATOM     14  C   UNL     1      45.900   1.687   8.405  0.00  0.00    +0.000 A 
ATOM     15  C   UNL     1      46.832   2.202   7.540  0.00  0.00    +0.000 A 
ATOM     16  C   UNL     1      46.696   3.542   7.272  0.00  0.00    +0.000 A 
ATOM     17  N   UNL     1      45.730   4.317   7.805  0.00  0.00    +0.000 NA
ATOM     18  H   UNL     1      44.236   5.480   8.960  0.00  0.00    +0.000 HD
ENDBRANCH   9  11
ENDBRANCH   6   9
ENDBRANCH   1   3
BRANCH   1  20
ATOM     19  C   UNL     1      49.484   7.889  13.534  0.00  0.00    +0.000 C 
ATOM     20  C   UNL     1      48.835   6.821  14.415  0.00  0.00    +0.000 C 
BRANCH  20  21
ATOM     21  C   UNL     1      49.200   7.182  15.868  0.00  0.00    +0.000 C 
ATOM     22  O   UNL     1      48.704   8.189  16.386  0.00  0.00    +0.000 OA
BRANCH  21  23
ATOM     23  C   UNL     1      50.077   6.313  16.657  0.00  0.00    +0.000 A 
ATOM     24  C   UNL     1      51.338   6.655  17.110  0.00  0.00    +0.000 A 
ATOM     25  S   UNL     1      52.223   5.297  17.672  0.00  0.00    +0.000 S 
ATOM     26  C   UNL     1      50.907   4.253  17.393  0.00  0.00    +0.000 A 
ATOM     27  N   UNL     1      51.006   2.907  17.565  0.00  0.00    +0.000 NA
ATOM     28  C   UNL     1      49.908   2.265  17.332  0.00  0.00    +0.000 A 
ATOM     29  N   UNL     1      48.710   2.845  16.991  0.00  0.00    +0.000 N 
ATOM     30  C   UNL     1      48.541   4.207  16.902  0.00  0.00    +0.000 A 
ATOM     31  O   UNL     1      47.426   4.717  16.866  0.00  0.00    +0.000 OA
ATOM     32  C   UNL     1      49.787   4.947  16.993  0.00  0.00    +0.000 A 
ATOM     33  H   UNL     1      47.864   2.295  16.950  0.00  0.00    +0.000 HD
ENDBRANCH  21  23
ENDBRANCH  20  21
ENDBRANCH   1  20
TORSDOF 6
ENDMDL
MODEL 2
REMARK VINA RESULT:    -8.247      1.651      1.844
REMARK INTER + INTRA:         -11.113
REMARK INTER:                 -11.149
REMARK INTRA:                   0.036
REMARK UNBOUND:                 0.027
REMARK  Name = 
REMARK  8 active torsions:
REMARK  status: ('A' for Active; 'I' for Inactive)
REMARK    1  A    between atoms: C_1  and  C_2
REMARK    2  A    between atoms: C_2  and  N_3
REMARK    3  A    between atoms: C_2  and  C_19
REMARK    4  A    between atoms: N_3  and  C_4
REMARK    5  A    between atoms: C_7  and  C_8
REMARK    6  A    between atoms: C_8  and  C_9
REMARK    7  A    between atoms: C_8  and  N_10
REMARK    8  A    between atoms: C_19  and  C_21
REMARK                            x       y       z     vdW  Elec       q    Type
REMARK                         _______ _______ _______ _____ _____    ______ ____
ROOT
ATOM      1  N   UNL     1      47.631   6.405  14.405  0.00  0.00    +0.000 N 
ATOM      2  H   UNL     1      47.074   6.987  15.036  0.00  0.00    +0.000 HD
ENDROOT
BRANCH   1   3
ATOM      3  C   UNL     1      46.879   5.847  13.378  0.00  0.00    +0.000 A 
ATOM      4  C   UNL     1      46.505   6.562  12.240  0.00  0.00    +0.000 A 
ATOM      5  C   UNL     1      45.601   6.020  11.323  0.00  0.00    +0.000 A 
ATOM      6  C   UNL     1      45.047   4.751  11.536  0.00  0.00    +0.000 A 
ATOM      7  C   UNL     1      45.588   3.954  12.551  0.00  0.00    +0.000 A 
ATOM      8  C   UNL     1      46.495   4.503  13.462  0.00  0.00    +0.000 A 
BRANCH   6   9
ATOM      9  C   UNL     1      43.757   4.375  10.822  0.00  0.00    +0.000 C 
ATOM     10  C   UNL     1      43.467   2.893  11.125  0.00  0.00    +0.000 C 
BRANCH   9  11
ATOM     11  N   UNL     1      43.813   4.575   9.380  0.00  0.00    +0.000 N 
ATOM     12  C   UNL     1      44.756   3.744   8.773  0.00  0.00    +0.000 A 
ATOM     13  N   UNL     1      44.827   2.446   9.097  0.00  0.00    +0.000 NA
ATOM     14  C   UNL     1      45.786   1.714   8.504  0.00  0.00    +0.000 A 
ATOM     15  C   UNL     1      46.693   2.233   7.616  0.00  0.00    +0.000 A 
ATOM     16  C   UNL     1      46.548   3.574   7.356  0.00  0.00    +0.000 A 
ATOM     17  N   UNL     1      45.595   4.346   7.917  0.00  0.00    +0.000 NA
ATOM     18  H   UNL     1      44.131   5.503   9.116  0.00  0.00    +0.000 HD
ENDBRANCH   9  11
ENDBRANCH   6   9
ENDBRANCH   1   3
BRANCH   1  20
ATOM     19  C   UNL     1      48.864   8.502  13.717  0.00  0.00    +0.000 C 
ATOM     20  C   UNL     1      48.948   7.037  14.149  0.00  0.00    +0.000 C 
BRANCH  20  21
ATOM     21  C   UNL     1      49.720   7.025  15.482  0.00  0.00    +0.000 C 
ATOM     22  O   UNL     1      50.955   7.000  15.468  0.00  0.00    +0.000 OA
BRANCH  21  23
ATOM     23  C   UNL     1      49.006   7.105  16.759  0.00  0.00    +0.000 A 
ATOM     24  C   UNL     1      48.561   8.273  17.351  0.00  0.00    +0.000 A 
ATOM     25  S   UNL     1      48.104   8.045  18.989  0.00  0.00    +0.000 S 
ATOM     26  C   UNL     1      48.418   6.373  18.902  0.00  0.00    +0.000 A 
ATOM     27  N   UNL     1      48.332   5.566  19.995  0.00  0.00    +0.000 NA
ATOM     28  C   UNL     1      48.580   4.321  19.749  0.00  0.00    +0.000 A 
ATOM     29  N   UNL     1      48.857   3.799  18.509  0.00  0.00    +0.000 N 
ATOM     30  C   UNL     1      48.858   4.562  17.364  0.00  0.00    +0.000 A 
ATOM     31  O   UNL     1      48.837   4.050  16.250  0.00  0.00    +0.000 OA
ATOM     32  C   UNL     1      48.750   5.986  17.623  0.00  0.00    +0.000 A 
ATOM     33  H   UNL     1      48.913   2.801  18.371  0.00  0.00    +0.000 HD
ENDBRANCH  21  23
ENDBRANCH  20  21
ENDBRANCH   1  20
TORSDOF 6
ENDMDL
MODEL 3
REMARK VINA RESULT:    -7.786      2.671      3.979
REMARK INTER + INTRA:         -10.490
REMARK INTER:                  -8.654
REMARK INTRA:                  -1.837
REMARK UNBOUND:                 0.027
REMARK  Name = 
REMARK  8 active torsions:
REMARK  status: ('A' for Active; 'I' for Inactive)
REMARK    1  A    between atoms: C_1  and  C_2
REMARK    2  A    between atoms: C_2  and  N_3
REMARK    3  A    between atoms: C_2  and  C_19
REMARK    4  A    between atoms: N_3  and  C_4
REMARK    5  A    between atoms: C_7  and  C_8
REMARK    6  A    between atoms: C_8  and  C_9
REMARK    7  A    between atoms: C_8  and  N_10
REMARK    8  A    between atoms: C_19  and  C_21
REMARK                            x       y       z     vdW  Elec       q    Type
REMARK                         _______ _______ _______ _____ _____    ______ ____
ROOT
ATOM      1  N   UNL     1      50.400   7.918  16.011  0.00  0.00    +0.000 N 
ATOM      2  H   UNL     1      50.773   8.830  16.287  0.00  0.00    +0.000 HD
ENDROOT
BRANCH   1   3
ATOM      3  C   UNL     1      49.435   8.009  15.014  0.00  0.00    +0.000 A 
ATOM      4  C   UNL     1      48.353   8.886  15.087  0.00  0.00    +0.000 A 
ATOM      5  C   UNL     1      47.316   8.815  14.154  0.00  0.00    +0.000 A 
ATOM      6  C   UNL     1      47.341   7.854  13.134  0.00  0.00    +0.000 A 
ATOM      7  C   UNL     1      48.521   7.131  12.934  0.00  0.00    +0.000 A 
ATOM      8  C   UNL     1      49.556   7.210  13.870  0.00  0.00    +0.000 A 
BRANCH   6   9
ATOM      9  C   UNL     1      46.041   7.478  12.437  0.00  0.00    +0.000 C 
ATOM     10  C   UNL     1      45.470   8.753  11.789  0.00  0.00    +0.000 C 
BRANCH   9  11
ATOM     11  N   UNL     1      45.049   6.902  13.335  0.00  0.00    +0.000 N 
ATOM     12  C   UNL     1      44.723   5.592  12.982  0.00  0.00    +0.000 A 
ATOM     13  N   UNL     1      45.685   4.711  12.675  0.00  0.00    +0.000 NA
ATOM     14  C   UNL     1      45.296   3.479  12.304  0.00  0.00    +0.000 A 
ATOM     15  C   UNL     1      43.982   3.097  12.206  0.00  0.00    +0.000 A 
ATOM     16  C   UNL     1      43.070   4.071  12.530  0.00  0.00    +0.000 A 
ATOM     17  N   UNL     1      43.412   5.316  12.918  0.00  0.00    +0.000 NA
ATOM     18  H   UNL     1      44.150   7.374  13.295  0.00  0.00    +0.000 HD
ENDBRANCH   9  11
ENDBRANCH   6   9
ENDBRANCH   1   3
BRANCH   1  20
ATOM     19  C   UNL     1      52.878   7.508  15.726  0.00  0.00    +0.000 C 
ATOM     20  C   UNL     1      51.488   6.912  15.951  0.00  0.00    +0.000 C 
BRANCH  20  21
ATOM     21  C   UNL     1      51.535   6.218  17.326  0.00  0.00    +0.000 C 
ATOM     22  O   UNL     1      52.031   6.812  18.289  0.00  0.00    +0.000 OA
BRANCH  21  23
ATOM     23  C   UNL     1      50.944   4.891  17.513  0.00  0.00    +0.000 A 
ATOM     24  C   UNL     1      51.654   3.705  17.575  0.00  0.00    +0.000 A 
ATOM     25  S   UNL     1      50.642   2.328  17.430  0.00  0.00    +0.000 S 
ATOM     26  C   UNL     1      49.241   3.293  17.366  0.00  0.00    +0.000 A 
ATOM     27  N   UNL     1      48.009   2.761  17.144  0.00  0.00    +0.000 NA
ATOM     28  C   UNL     1      47.052   3.632  17.148  0.00  0.00    +0.000 A 
ATOM     29  N   UNL     1      47.204   4.973  17.402  0.00  0.00    +0.000 N 
ATOM     30  C   UNL     1      48.416   5.536  17.727  0.00  0.00    +0.000 A 
ATOM     31  O   UNL     1      48.494   6.661  18.210  0.00  0.00    +0.000 OA
ATOM     32  C   UNL     1      49.534   4.624  17.568  0.00  0.00    +0.000 A 
ATOM     33  H   UNL     1      46.398   5.570  17.516  0.00  0.00    +0.000 HD
ENDBRANCH  21  23
ENDBRANCH  20  21
ENDBRANCH   1  20
TORSDOF 6
ENDMDL
MODEL 4
REMARK VINA RESULT:    -7.753      3.020      8.316
REMARK INTER + INTRA:         -10.445
REMARK INTER:                  -9.658
REMARK INTRA:                  -0.788
REMARK UNBOUND:                 0.027
REMARK  Name = 
REMARK  8 active torsions:
REMARK  status: ('A' for Active; 'I' for Inactive)
REMARK    1  A    between atoms: C_1  and  C_2
REMARK    2  A    between atoms: C_2  and  N_3
REMARK    3  A    between atoms: C_2  and  C_19
REMARK    4  A    between atoms: N_3  and  C_4
REMARK    5  A    between atoms: C_7  and  C_8
REMARK    6  A    between atoms: C_8  and  C_9
REMARK    7  A    between atoms: C_8  and  N_10
REMARK    8  A    between atoms: C_19  and  C_21
REMARK                            x       y       z     vdW  Elec       q    Type
REMARK                         _______ _______ _______ _____ _____    ______ ____
ROOT
ATOM      1  N   UNL     1      47.287   5.699  13.384  0.00  0.00    +0.000 N 
ATOM      2  H   UNL     1      47.820   5.104  12.744  0.00  0.00    +0.000 HD
ENDROOT
BRANCH   1   3
ATOM      3  C   UNL     1      47.772   5.664  14.686  0.00  0.00    +0.000 A 
ATOM      4  C   UNL     1      48.628   6.638  15.201  0.00  0.00    +0.000 A 
ATOM      5  C   UNL     1      49.231   6.467  16.449  0.00  0.00    +0.000 A 
ATOM      6  C   UNL     1      48.995   5.309  17.201  0.00  0.00    +0.000 A 
ATOM      7  C   UNL     1      47.975   4.446  16.786  0.00  0.00    +0.000 A 
ATOM      8  C   UNL     1      47.373   4.626  15.537  0.00  0.00    +0.000 A 
BRANCH   6   9
ATOM      9  C   UNL     1      49.981   4.919  18.293  0.00  0.00    +0.000 C 
ATOM     10  C   UNL     1      49.914   5.997  19.391  0.00  0.00    +0.000 C 
BRANCH   9  11
ATOM     11  N   UNL     1      51.352   4.793  17.817  0.00  0.00    +0.000 N 
ATOM     12  C   UNL     1      51.763   3.461  17.752  0.00  0.00    +0.000 A 
ATOM     13  N   UNL     1      50.965   2.528  17.216  0.00  0.00    +0.000 NA
ATOM     14  C   UNL     1      51.407   1.259  17.226  0.00  0.00    +0.000 A 
ATOM     15  C   UNL     1      52.608   0.881  17.769  0.00  0.00    +0.000 A 
ATOM     16  C   UNL     1      53.351   1.904  18.304  0.00  0.00    +0.000 A 
ATOM     17  N   UNL     1      52.954   3.193  18.308  0.00  0.00    +0.000 NA
ATOM     18  H   UNL     1      52.035   5.207  18.445  0.00  0.00    +0.000 HD
ENDBRANCH   9  11
ENDBRANCH   6   9
ENDBRANCH   1   3
BRANCH   1  20
ATOM     19  C   UNL     1      47.953   7.451  11.686  0.00  0.00    +0.000 C 
ATOM     20  C   UNL     1      46.931   6.978  12.722  0.00  0.00    +0.000 C 
BRANCH  20  21
ATOM     21  C   UNL     1      45.619   6.735  11.951  0.00  0.00    +0.000 C 
ATOM     22  O   UNL     1      44.689   7.541  12.068  0.00  0.00    +0.000 OA
BRANCH  21  23
ATOM     23  C   UNL     1      45.487   5.597  11.039  0.00  0.00    +0.000 A 
ATOM     24  C   UNL     1      45.861   5.596   9.708  0.00  0.00    +0.000 A 
ATOM     25  S   UNL     1      45.236   4.247   8.853  0.00  0.00    +0.000 S 
ATOM     26  C   UNL     1      44.530   3.607  10.265  0.00  0.00    +0.000 A 
ATOM     27  N   UNL     1      43.744   2.497  10.238  0.00  0.00    +0.000 NA
ATOM     28  C   UNL     1      43.307   2.134  11.400  0.00  0.00    +0.000 A 
ATOM     29  N   UNL     1      43.621   2.746  12.589  0.00  0.00    +0.000 N 
ATOM     30  C   UNL     1      44.489   3.810  12.672  0.00  0.00    +0.000 A 
ATOM     31  O   UNL     1      44.966   4.169  13.744  0.00  0.00    +0.000 OA
ATOM     32  C   UNL     1      44.865   4.347  11.377  0.00  0.00    +0.000 A 
ATOM     33  H   UNL     1      43.349   2.332  13.469  0.00  0.00    +0.000 HD
ENDBRANCH  21  23
ENDBRANCH  20  21
ENDBRANCH   1  20
TORSDOF 6
ENDMDL
MODEL 5
REMARK VINA RESULT:    -7.667      2.336      2.841
REMARK INTER + INTRA:         -10.329
REMARK INTER:                 -10.790
REMARK INTRA:                   0.461
REMARK UNBOUND:                 0.027
REMARK  Name = 
REMARK  8 active torsions:
REMARK  status: ('A' for Active; 'I' for Inactive)
REMARK    1  A    between atoms: C_1  and  C_2
REMARK    2  A    between atoms: C_2  and  N_3
REMARK    3  A    between atoms: C_2  and  C_19
REMARK    4  A    between atoms: N_3  and  C_4
REMARK    5  A    between atoms: C_7  and  C_8
REMARK    6  A    between atoms: C_8  and  C_9
REMARK    7  A    between atoms: C_8  and  N_10
REMARK    8  A    between atoms: C_19  and  C_21
REMARK                            x       y       z     vdW  Elec       q    Type
REMARK                         _______ _______ _______ _____ _____    ______ ____
ROOT
ATOM      1  N   UNL     1      47.824   5.550  14.877  0.00  0.00    +0.000 N 
ATOM      2  H   UNL     1      48.819   5.474  14.650  0.00  0.00    +0.000 HD
ENDROOT
BRANCH   1   3
ATOM      3  C   UNL     1      46.999   5.258  13.797  0.00  0.00    +0.000 A 
ATOM      4  C   UNL     1      46.568   6.227  12.891  0.00  0.00    +0.000 A 
ATOM      5  C   UNL     1      45.599   5.923  11.931  0.00  0.00    +0.000 A 
ATOM      6  C   UNL     1      45.038   4.641  11.868  0.00  0.00    +0.000 A 
ATOM      7  C   UNL     1      45.626   3.622  12.625  0.00  0.00    +0.000 A 
ATOM      8  C   UNL     1      46.598   3.934  13.580  0.00  0.00    +0.000 A 
BRANCH   6   9
ATOM      9  C   UNL     1      43.699   4.451  11.170  0.00  0.00    +0.000 C 
ATOM     10  C   UNL     1      43.261   2.990  11.385  0.00  0.00    +0.000 C 
BRANCH   9  11
ATOM     11  N   UNL     1      43.744   4.740   9.743  0.00  0.00    +0.000 N 
ATOM     12  C   UNL     1      44.623   3.895   9.065  0.00  0.00    +0.000 A 
ATOM     13  N   UNL     1      44.619   2.577   9.303  0.00  0.00    +0.000 NA
ATOM     14  C   UNL     1      45.521   1.829   8.646  0.00  0.00    +0.000 A 
ATOM     15  C   UNL     1      46.444   2.349   7.774  0.00  0.00    +0.000 A 
ATOM     16  C   UNL     1      46.377   3.709   7.603  0.00  0.00    +0.000 A 
ATOM     17  N   UNL     1      45.483   4.499   8.232  0.00  0.00    +0.000 NA
ATOM     18  H   UNL     1      44.113   5.663   9.532  0.00  0.00    +0.000 HD
ENDBRANCH   9  11
ENDBRANCH   6   9
ENDBRANCH   1   3
BRANCH   1  20
ATOM     19  C   UNL     1      47.926   3.523  16.385  0.00  0.00    +0.000 C 
ATOM     20  C   UNL     1      47.559   5.000  16.228  0.00  0.00    +0.000 C 
BRANCH  20  21
ATOM     21  C   UNL     1      48.457   5.773  17.213  0.00  0.00    +0.000 C 
ATOM     22  O   UNL     1      49.302   6.561  16.773  0.00  0.00    +0.000 OA
BRANCH  21  23
ATOM     23  C   UNL     1      48.278   5.629  18.660  0.00  0.00    +0.000 A 
ATOM     24  C   UNL     1      47.149   6.006  19.363  0.00  0.00    +0.000 A 
ATOM     25  S   UNL     1      47.414   6.040  21.058  0.00  0.00    +0.000 S 
ATOM     26  C   UNL     1      49.010   5.473  20.877  0.00  0.00    +0.000 A 
ATOM     27  N   UNL     1      49.860   5.363  21.933  0.00  0.00    +0.000 NA
ATOM     28  C   UNL     1      51.026   4.896  21.624  0.00  0.00    +0.000 A 
ATOM     29  N   UNL     1      51.405   4.484  20.370  0.00  0.00    +0.000 N 
ATOM     30  C   UNL     1      50.547   4.486  19.294  0.00  0.00    +0.000 A 
ATOM     31  O   UNL     1      50.805   3.873  18.263  0.00  0.00    +0.000 OA
ATOM     32  C   UNL     1      49.289   5.157  19.565  0.00  0.00    +0.000 A 
ATOM     33  H   UNL     1      52.285   4.011  20.227  0.00  0.00    +0.000 HD
ENDBRANCH  21  23
ENDBRANCH  20  21
ENDBRANCH   1  20
TORSDOF 6
ENDMDL
MODEL 6
REMARK VINA RESULT:    -7.534      2.096      2.936
REMARK INTER + INTRA:         -10.149
REMARK INTER:                 -10.433
REMARK INTRA:                   0.284
REMARK UNBOUND:                 0.027
REMARK  Name = 
REMARK  8 active torsions:
REMARK  status: ('A' for Active; 'I' for Inactive)
REMARK    1  A    between atoms: C_1  and  C_2
REMARK    2  A    between atoms: C_2  and  N_3
REMARK    3  A    between atoms: C_2  and  C_19
REMARK    4  A    between atoms: N_3  and  C_4
REMARK    5  A    between atoms: C_7  and  C_8
REMARK    6  A    between atoms: C_8  and  C_9
REMARK    7  A    between atoms: C_8  and  N_10
REMARK    8  A    between atoms: C_19  and  C_21
REMARK                            x       y       z     vdW  Elec       q    Type
REMARK                         _______ _______ _______ _____ _____    ______ ____
ROOT
ATOM      1  N   UNL     1      47.727   6.787  14.248  0.00  0.00    +0.000 N 
ATOM      2  H   UNL     1      47.181   7.428  14.830  0.00  0.00    +0.000 HD
ENDROOT
BRANCH   1   3
ATOM      3  C   UNL     1      46.956   6.135  13.293  0.00  0.00    +0.000 A 
ATOM      4  C   UNL     1      46.620   6.712  12.068  0.00  0.00    +0.000 A 
ATOM      5  C   UNL     1      45.698   6.096  11.219  0.00  0.00    +0.000 A 
ATOM      6  C   UNL     1      45.087   4.890  11.588  0.00  0.00    +0.000 A 
ATOM      7  C   UNL     1      45.586   4.208  12.703  0.00  0.00    +0.000 A 
ATOM      8  C   UNL     1      46.512   4.831  13.546  0.00  0.00    +0.000 A 
BRANCH   6   9
ATOM      9  C   UNL     1      43.786   4.481  10.914  0.00  0.00    +0.000 C 
ATOM     10  C   UNL     1      43.524   3.003  11.257  0.00  0.00    +0.000 C 
BRANCH   9  11
ATOM     11  N   UNL     1      43.805   4.650   9.467  0.00  0.00    +0.000 N 
ATOM     12  C   UNL     1      44.716   3.790   8.853  0.00  0.00    +0.000 A 
ATOM     13  N   UNL     1      44.775   2.498   9.202  0.00  0.00    +0.000 NA
ATOM     14  C   UNL     1      45.705   1.738   8.599  0.00  0.00    +0.000 A 
ATOM     15  C   UNL     1      46.595   2.223   7.674  0.00  0.00    +0.000 A 
ATOM     16  C   UNL     1      46.464   3.559   7.390  0.00  0.00    +0.000 A 
ATOM     17  N   UNL     1      45.540   4.359   7.960  0.00  0.00    +0.000 NA
ATOM     18  H   UNL     1      44.130   5.566   9.174  0.00  0.00    +0.000 HD
ENDBRANCH   9  11
ENDBRANCH   6   9
ENDBRANCH   1   3
BRANCH   1  20
ATOM     19  C   UNL     1      48.989   8.902  13.675  0.00  0.00    +0.000 C 
ATOM     20  C   UNL     1      49.038   7.391  13.908  0.00  0.00    +0.000 C 
BRANCH  20  21
ATOM     21  C   UNL     1      49.962   7.172  15.121  0.00  0.00    +0.000 C 
ATOM     22  O   UNL     1      51.172   7.398  15.011  0.00  0.00    +0.000 OA
BRANCH  21  23
ATOM     23  C   UNL     1      49.412   6.761  16.415  0.00  0.00    +0.000 A 
ATOM     24  C   UNL     1      49.240   5.452  16.827  0.00  0.00    +0.000 A 
ATOM     25  S   UNL     1      48.245   5.328  18.218  0.00  0.00    +0.000 S 
ATOM     26  C   UNL     1      48.100   7.021  18.335  0.00  0.00    +0.000 A 
ATOM     27  N   UNL     1      47.293   7.614  19.256  0.00  0.00    +0.000 NA
ATOM     28  C   UNL     1      47.318   8.906  19.223  0.00  0.00    +0.000 A 
ATOM     29  N   UNL     1      48.107   9.661  18.389  0.00  0.00    +0.000 N 
ATOM     30  C   UNL     1      49.008   9.104  17.511  0.00  0.00    +0.000 A 
ATOM     31  O   UNL     1      49.886   9.774  16.978  0.00  0.00    +0.000 OA
ATOM     32  C   UNL     1      48.888   7.661  17.404  0.00  0.00    +0.000 A 
ATOM     33  H   UNL     1      48.171  10.662  18.506  0.00  0.00    +0.000 HD
ENDBRANCH  21  23
ENDBRANCH  20  21
ENDBRANCH   1  20
TORSDOF 6
ENDMDL
MODEL 7
REMARK VINA RESULT:    -7.495      1.742      2.596
REMARK INTER + INTRA:         -10.097
REMARK INTER:                 -10.386
REMARK INTRA:                   0.289
REMARK UNBOUND:                 0.027
REMARK  Name = 
REMARK  8 active torsions:
REMARK  status: ('A' for Active; 'I' for Inactive)
REMARK    1  A    between atoms: C_1  and  C_2
REMARK    2  A    between atoms: C_2  and  N_3
REMARK    3  A    between atoms: C_2  and  C_19
REMARK    4  A    between atoms: N_3  and  C_4
REMARK    5  A    between atoms: C_7  and  C_8
REMARK    6  A    between atoms: C_8  and  C_9
REMARK    7  A    between atoms: C_8  and  N_10
REMARK    8  A    between atoms: C_19  and  C_21
REMARK                            x       y       z     vdW  Elec       q    Type
REMARK                         _______ _______ _______ _____ _____    ______ ____
ROOT
ATOM      1  N   UNL     1      47.737   5.183  15.142  0.00  0.00    +0.000 N 
ATOM      2  H   UNL     1      48.735   5.099  14.929  0.00  0.00    +0.000 HD
ENDROOT
BRANCH   1   3
ATOM      3  C   UNL     1      46.929   5.010  14.024  0.00  0.00    +0.000 A 
ATOM      4  C   UNL     1      46.436   6.078  13.275  0.00  0.00    +0.000 A 
ATOM      5  C   UNL     1      45.486   5.866  12.273  0.00  0.00    +0.000 A 
ATOM      6  C   UNL     1      45.004   4.577  12.010  0.00  0.00    +0.000 A 
ATOM      7  C   UNL     1      45.657   3.492  12.606  0.00  0.00    +0.000 A 
ATOM      8  C   UNL     1      46.610   3.712  13.604  0.00  0.00    +0.000 A 
BRANCH   6   9
ATOM      9  C   UNL     1      43.678   4.414  11.282  0.00  0.00    +0.000 C 
ATOM     10  C   UNL     1      43.250   2.940  11.411  0.00  0.00    +0.000 C 
BRANCH   9  11
ATOM     11  N   UNL     1      43.742   4.781   9.874  0.00  0.00    +0.000 N 
ATOM     12  C   UNL     1      44.607   3.954   9.156  0.00  0.00    +0.000 A 
ATOM     13  N   UNL     1      44.570   2.625   9.321  0.00  0.00    +0.000 NA
ATOM     14  C   UNL     1      45.460   1.893   8.629  0.00  0.00    +0.000 A 
ATOM     15  C   UNL     1      46.401   2.438   7.794  0.00  0.00    +0.000 A 
ATOM     16  C   UNL     1      46.368   3.807   7.699  0.00  0.00    +0.000 A 
ATOM     17  N   UNL     1      45.488   4.582   8.364  0.00  0.00    +0.000 NA
ATOM     18  H   UNL     1      44.135   5.705   9.717  0.00  0.00    +0.000 HD
ENDBRANCH   9  11
ENDBRANCH   6   9
ENDBRANCH   1   3
BRANCH   1  20
ATOM     19  C   UNL     1      48.112   3.168  16.622  0.00  0.00    +0.000 C 
ATOM     20  C   UNL     1      47.429   4.523  16.433  0.00  0.00    +0.000 C 
BRANCH  20  21
ATOM     21  C   UNL     1      47.974   5.438  17.548  0.00  0.00    +0.000 C 
ATOM     22  O   UNL     1      47.554   5.303  18.702  0.00  0.00    +0.000 OA
BRANCH  21  23
ATOM     23  C   UNL     1      49.023   6.419  17.263  0.00  0.00    +0.000 A 
ATOM     24  C   UNL     1      48.806   7.718  16.843  0.00  0.00    +0.000 A 
ATOM     25  S   UNL     1      50.234   8.464  16.254  0.00  0.00    +0.000 S 
ATOM     26  C   UNL     1      51.172   7.093  16.628  0.00  0.00    +0.000 A 
ATOM     27  N   UNL     1      52.488   7.006  16.292  0.00  0.00    +0.000 NA
ATOM     28  C   UNL     1      53.056   5.908  16.670  0.00  0.00    +0.000 A 
ATOM     29  N   UNL     1      52.447   4.911  17.394  0.00  0.00    +0.000 N 
ATOM     30  C   UNL     1      51.148   5.001  17.838  0.00  0.00    +0.000 A 
ATOM     31  O   UNL     1      50.708   4.245  18.698  0.00  0.00    +0.000 OA
ATOM     32  C   UNL     1      50.432   6.140  17.292  0.00  0.00    +0.000 A 
ATOM     33  H   UNL     1      52.985   4.142  17.765  0.00  0.00    +0.000 HD
ENDBRANCH  21  23
ENDBRANCH  20  21
ENDBRANCH   1  20
TORSDOF 6
ENDMDL
MODEL 8
REMARK VINA RESULT:    -7.265      2.369      4.162
REMARK INTER + INTRA:          -9.787
REMARK INTER:                  -7.857
REMARK INTRA:                  -1.930
REMARK UNBOUND:                 0.027
REMARK  Name = 
REMARK  8 active torsions:
REMARK  status: ('A' for Active; 'I' for Inactive)
REMARK    1  A    between atoms: C_1  and  C_2
REMARK    2  A    between atoms: C_2  and  N_3
REMARK    3  A    between atoms: C_2  and  C_19
REMARK    4  A    between atoms: N_3  and  C_4
REMARK    5  A    between atoms: C_7  and  C_8
REMARK    6  A    between atoms: C_8  and  C_9
REMARK    7  A    between atoms: C_8  and  N_10
REMARK    8  A    between atoms: C_19  and  C_21
REMARK                            x       y       z     vdW  Elec       q    Type
REMARK                         _______ _______ _______ _____ _____    ______ ____
ROOT
ATOM      1  N   UNL     1      51.322   9.417  13.385  0.00  0.00    +0.000 N 
ATOM      2  H   UNL     1      51.942   9.925  12.748  0.00  0.00    +0.000 HD
ENDROOT
BRANCH   1   3
ATOM      3  C   UNL     1      50.065   9.181  12.842  0.00  0.00    +0.000 A 
ATOM      4  C   UNL     1      49.090  10.173  12.733  0.00  0.00    +0.000 A 
ATOM      5  C   UNL     1      47.786   9.851  12.350  0.00  0.00    +0.000 A 
ATOM      6  C   UNL     1      47.432   8.523  12.079  0.00  0.00    +0.000 A 
ATOM      7  C   UNL     1      48.454   7.573  11.975  0.00  0.00    +0.000 A 
ATOM      8  C   UNL     1      49.757   7.904  12.356  0.00  0.00    +0.000 A 
BRANCH   6   9
ATOM      9  C   UNL     1      45.965   8.121  12.127  0.00  0.00    +0.000 C 
ATOM     10  C   UNL     1      45.150   9.370  12.513  0.00  0.00    +0.000 C 
BRANCH   9  11
ATOM     11  N   UNL     1      45.689   7.047  13.071  0.00  0.00    +0.000 N 
ATOM     12  C   UNL     1      44.900   6.044  12.507  0.00  0.00    +0.000 A 
ATOM     13  N   UNL     1      45.174   5.570  11.284  0.00  0.00    +0.000 NA
ATOM     14  C   UNL     1      44.348   4.635  10.786  0.00  0.00    +0.000 A 
ATOM     15  C   UNL     1      43.244   4.168  11.453  0.00  0.00    +0.000 A 
ATOM     16  C   UNL     1      43.039   4.721  12.693  0.00  0.00    +0.000 A 
ATOM     17  N   UNL     1      43.846   5.653  13.239  0.00  0.00    +0.000 NA
ATOM     18  H   UNL     1      45.133   7.346  13.868  0.00  0.00    +0.000 HD
ENDBRANCH   9  11
ENDBRANCH   6   9
ENDBRANCH   1   3
BRANCH   1  20
ATOM     19  C   UNL     1      53.594   8.486  13.990  0.00  0.00    +0.000 C 
ATOM     20  C   UNL     1      52.074   8.354  14.096  0.00  0.00    +0.000 C 
BRANCH  20  21
ATOM     21  C   UNL     1      51.734   8.487  15.593  0.00  0.00    +0.000 C 
ATOM     22  O   UNL     1      51.722   9.608  16.115  0.00  0.00    +0.000 OA
BRANCH  21  23
ATOM     23  C   UNL     1      51.367   7.310  16.384  0.00  0.00    +0.000 A 
ATOM     24  C   UNL     1      52.234   6.586  17.182  0.00  0.00    +0.000 A 
ATOM     25  S   UNL     1      51.574   5.077  17.664  0.00  0.00    +0.000 S 
ATOM     26  C   UNL     1      50.097   5.409  16.884  0.00  0.00    +0.000 A 
ATOM     27  N   UNL     1      49.098   4.489  16.810  0.00  0.00    +0.000 NA
ATOM     28  C   UNL     1      48.038   4.911  16.203  0.00  0.00    +0.000 A 
ATOM     29  N   UNL     1      47.864   6.180  15.706  0.00  0.00    +0.000 N 
ATOM     30  C   UNL     1      48.809   7.170  15.844  0.00  0.00    +0.000 A 
ATOM     31  O   UNL     1      48.540   8.350  15.644  0.00  0.00    +0.000 OA
ATOM     32  C   UNL     1      50.073   6.687  16.370  0.00  0.00    +0.000 A 
ATOM     33  H   UNL     1      46.964   6.479  15.359  0.00  0.00    +0.000 HD
ENDBRANCH  21  23
ENDBRANCH  20  21
ENDBRANCH   1  20
TORSDOF 6
ENDMDL
MODEL 9
REMARK VINA RESULT:    -7.003      3.014      4.870
REMARK INTER + INTRA:          -9.433
REMARK INTER:                  -7.885
REMARK INTRA:                  -1.548
REMARK UNBOUND:                 0.027
REMARK  Name = 
REMARK  8 active torsions:
REMARK  status: ('A' for Active; 'I' for Inactive)
REMARK    1  A    between atoms: C_1  and  C_2
REMARK    2  A    between atoms: C_2  and  N_3
REMARK    3  A    between atoms: C_2  and  C_19
REMARK    4  A    between atoms: N_3  and  C_4
REMARK    5  A    between atoms: C_7  and  C_8
REMARK    6  A    between atoms: C_8  and  C_9
REMARK    7  A    between atoms: C_8  and  N_10
REMARK    8  A    between atoms: C_19  and  C_21
REMARK                            x       y       z     vdW  Elec       q    Type
REMARK                         _______ _______ _______ _____ _____    ______ ____
ROOT
ATOM      1  N   UNL     1      47.871   4.817  19.226  0.00  0.00    +0.000 N 
ATOM      2  H   UNL     1      47.011   4.399  19.591  0.00  0.00    +0.000 HD
ENDROOT
BRANCH   1   3
ATOM      3  C   UNL     1      47.912   4.845  17.837  0.00  0.00    +0.000 A 
ATOM      4  C   UNL     1      48.467   5.904  17.118  0.00  0.00    +0.000 A 
ATOM      5  C   UNL     1      48.325   5.973  15.730  0.00  0.00    +0.000 A 
ATOM      6  C   UNL     1      47.615   4.984  15.037  0.00  0.00    +0.000 A 
ATOM      7  C   UNL     1      47.255   3.821  15.727  0.00  0.00    +0.000 A 
ATOM      8  C   UNL     1      47.404   3.758  17.115  0.00  0.00    +0.000 A 
BRANCH   6   9
ATOM      9  C   UNL     1      47.073   5.294  13.650  0.00  0.00    +0.000 C 
ATOM     10  C   UNL     1      48.033   6.299  12.985  0.00  0.00    +0.000 C 
BRANCH   9  11
ATOM     11  N   UNL     1      45.725   5.846  13.664  0.00  0.00    +0.000 N 
ATOM     12  C   UNL     1      44.834   5.068  12.924  0.00  0.00    +0.000 A 
ATOM     13  N   UNL     1      44.825   3.735  13.052  0.00  0.00    +0.000 NA
ATOM     14  C   UNL     1      43.970   3.046  12.277  0.00  0.00    +0.000 A 
ATOM     15  C   UNL     1      43.136   3.636  11.361  0.00  0.00    +0.000 A 
ATOM     16  C   UNL     1      43.224   5.004  11.294  0.00  0.00    +0.000 A 
ATOM     17  N   UNL     1      44.058   5.739  12.058  0.00  0.00    +0.000 NA
ATOM     18  H   UNL     1      45.657   6.753  13.213  0.00  0.00    +0.000 HD
ENDBRANCH   9  11
ENDBRANCH   6   9
ENDBRANCH   1   3
BRANCH   1  20
ATOM     19  C   UNL     1      47.333   6.261  21.231  0.00  0.00    +0.000 C 
ATOM     20  C   UNL     1      48.255   5.997  20.039  0.00  0.00    +0.000 C 
BRANCH  20  21
ATOM     21  C   UNL     1      49.647   5.703  20.629  0.00  0.00    +0.000 C 
ATOM     22  O   UNL     1      49.785   4.762  21.419  0.00  0.00    +0.000 OA
BRANCH  21  23
ATOM     23  C   UNL     1      50.815   6.486  20.217  0.00  0.00    +0.000 A 
ATOM     24  C   UNL     1      51.251   7.646  20.830  0.00  0.00    +0.000 A 
ATOM     25  S   UNL     1      52.403   8.494  19.882  0.00  0.00    +0.000 S 
ATOM     26  C   UNL     1      52.394   7.282  18.685  0.00  0.00    +0.000 A 
ATOM     27  N   UNL     1      53.088   7.413  17.523  0.00  0.00    +0.000 NA
ATOM     28  C   UNL     1      52.990   6.392  16.734  0.00  0.00    +0.000 A 
ATOM     29  N   UNL     1      52.304   5.237  17.019  0.00  0.00    +0.000 N 
ATOM     30  C   UNL     1      51.670   5.024  18.221  0.00  0.00    +0.000 A 
ATOM     31  O   UNL     1      51.300   3.906  18.565  0.00  0.00    +0.000 OA
ATOM     32  C   UNL     1      51.618   6.208  19.060  0.00  0.00    +0.000 A 
ATOM     33  H   UNL     1      52.377   4.432  16.413  0.00  0.00    +0.000 HD
ENDBRANCH  21  23
ENDBRANCH  20  21
ENDBRANCH   1  20
TORSDOF 6
ENDMDL
