MODEL 1
REMARK VINA RESULT:    -7.722      0.000      0.000
REMARK INTER + INTRA:         -12.097
REMARK INTER:                 -11.108
REMARK INTRA:                  -0.989
REMARK UNBOUND:                -0.989
REMARK  Name = 
REMARK  8 active torsions:
REMARK  status: ('A' for Active; 'I' for Inactive)
REMARK    1  A    between atoms: C_2  and  C_3
REMARK    2  A    between atoms: C_8  and  N_9
REMARK    3  A    between atoms: N_9  and  C_10
REMARK    4  A    between atoms: C_10  and  C_11
REMARK    5  A    between atoms: C_11  and  C_13
REMARK    6  A    between atoms: C_17  and  O_18
REMARK    7  A    between atoms: O_18  and  C_19
REMARK    8  A    between atoms: C_23  and  O_24
REMARK                            x       y       z     vdW  Elec       q    Type
REMARK                         _______ _______ _______ _____ _____    ______ ____
ROOT
ATOM      1  C   UNL     1      45.606   4.188  12.950  0.00  0.00    +0.000 A 
ATOM      2  C   UNL     1      44.569   5.046  13.343  0.00  0.00    +0.000 A 
ATOM      3  C   UNL     1      43.360   5.063  12.648  0.00  0.00    +0.000 A 
ATOM      4  C   UNL     1      43.186   4.254  11.526  0.00  0.00    +0.000 A 
ATOM      5  C   UNL     1      44.240   3.466  11.065  0.00  0.00    +0.000 A 
ATOM      6  C   UNL     1      45.423   3.390  11.808  0.00  0.00    +0.000 A 
ENDROOT
BRANCH   1   7
ATOM      7  C   UNL     1      46.910   4.153  13.732  0.00  0.00    +0.000 C 
ATOM      8  F   UNL     1      47.333   2.863  13.928  0.00  0.00    +0.000 F 
BRANCH   7   9
ATOM      9  C   UNL     1      46.758   4.824  15.119  0.00  0.00    +0.000 C 
BRANCH   9  10
ATOM     10  N   UNL     1      46.592   3.877  16.249  0.00  0.00    +0.000 N 
ATOM     11  H   UNL     1      45.614   3.685  16.444  0.00  0.00    +0.000 HD
BRANCH  10  17
ATOM     12  C   UNL     1      48.582   3.535  17.647  0.00  0.00    +0.000 A 
ATOM     13  C   UNL     1      49.333   3.939  18.763  0.00  0.00    +0.000 A 
ATOM     14  C   UNL     1      48.858   4.948  19.586  0.00  0.00    +0.000 A 
ATOM     15  C   UNL     1      47.636   5.503  19.277  0.00  0.00    +0.000 A 
ATOM     16  N   UNL     1      46.877   5.109  18.230  0.00  0.00    +0.000 NA
ATOM     17  C   UNL     1      47.339   4.145  17.403  0.00  0.00    +0.000 A 
BRANCH  12  19
ATOM     18  N   UNL     1      49.552   1.701  16.088  0.00  0.00    +0.000 NA
ATOM     19  C   UNL     1      49.123   2.493  16.816  0.00  0.00    +0.000 C 
ENDBRANCH  12  19
ENDBRANCH  10  17
ENDBRANCH   9  10
ENDBRANCH   7   9
ENDBRANCH   1   7
BRANCH   5  20
ATOM     20  O   UNL     1      44.227   2.762   9.888  0.00  0.00    +0.000 OA
BRANCH  20  21
ATOM     21  C   UNL     1      45.467   2.708   9.176  0.00  0.00    +0.000 C 
ATOM     22  C   UNL     1      45.695   1.398   8.415  0.00  0.00    +0.000 C 
ATOM     23  C   UNL     1      46.786   1.746   7.411  0.00  0.00    +0.000 C 
ATOM     24  C   UNL     1      46.610   3.234   7.113  0.00  0.00    +0.000 C 
ATOM     25  C   UNL     1      45.460   3.706   8.005  0.00  0.00    +0.000 C 
BRANCH  25  26
ATOM     26  O   UNL     1      45.646   5.057   8.398  0.00  0.00    +0.000 OA
ATOM     27  H   UNL     1      45.008   5.611   7.917  0.00  0.00    +0.000 HD
ENDBRANCH  25  26
ENDBRANCH  20  21
ENDBRANCH   5  20
TORSDOF 8
ENDMDL
MODEL 2
REMARK VINA RESULT:    -7.571      2.089      2.354
REMARK INTER + INTRA:         -11.880
REMARK INTER:                 -11.009
REMARK INTRA:                  -0.872
REMARK UNBOUND:                -0.989
REMARK  Name = 
REMARK  8 active torsions:
REMARK  status: ('A' for Active; 'I' for Inactive)
REMARK    1  A    between atoms: C_2  and  C_3
REMARK    2  A    between atoms: C_8  and  N_9
REMARK    3  A    between atoms: N_9  and  C_10
REMARK    4  A    between atoms: C_10  and  C_11
REMARK    5  A    between atoms: C_11  and  C_13
REMARK    6  A    between atoms: C_17  and  O_18
REMARK    7  A    between atoms: O_18  and  C_19
REMARK    8  A    between atoms: C_23  and  O_24
REMARK                            x       y       z     vdW  Elec       q    Type
REMARK                         _______ _______ _______ _____ _____    ______ ____
ROOT
ATOM      1  C   UNL     1      45.398   5.940  12.064  0.00  0.00    +0.000 A 
ATOM      2  C   UNL     1      44.230   5.914  12.841  0.00  0.00    +0.000 A 
ATOM      3  C   UNL     1      43.125   5.165  12.436  0.00  0.00    +0.000 A 
ATOM      4  C   UNL     1      43.156   4.467  11.229  0.00  0.00    +0.000 A 
ATOM      5  C   UNL     1      44.273   4.559  10.400  0.00  0.00    +0.000 A 
ATOM      6  C   UNL     1      45.410   5.245  10.843  0.00  0.00    +0.000 A 
ENDROOT
BRANCH   1   7
ATOM      7  C   UNL     1      46.609   6.734  12.528  0.00  0.00    +0.000 C 
ATOM      8  F   UNL     1      47.267   7.296  11.464  0.00  0.00    +0.000 F 
BRANCH   7   9
ATOM      9  C   UNL     1      47.614   5.839  13.294  0.00  0.00    +0.000 C 
BRANCH   9  10
ATOM     10  N   UNL     1      47.277   5.611  14.721  0.00  0.00    +0.000 N 
ATOM     11  H   UNL     1      46.451   6.130  15.004  0.00  0.00    +0.000 HD
BRANCH  10  17
ATOM     12  C   UNL     1      48.439   4.872  16.754  0.00  0.00    +0.000 A 
ATOM     13  C   UNL     1      49.584   4.954  17.564  0.00  0.00    +0.000 A 
ATOM     14  C   UNL     1      50.599   5.839  17.236  0.00  0.00    +0.000 A 
ATOM     15  C   UNL     1      50.425   6.628  16.121  0.00  0.00    +0.000 A 
ATOM     16  N   UNL     1      49.319   6.595  15.345  0.00  0.00    +0.000 NA
ATOM     17  C   UNL     1      48.332   5.718  15.636  0.00  0.00    +0.000 A 
BRANCH  12  19
ATOM     18  N   UNL     1      46.629   3.122  17.382  0.00  0.00    +0.000 NA
ATOM     19  C   UNL     1      47.419   3.930  17.128  0.00  0.00    +0.000 C 
ENDBRANCH  12  19
ENDBRANCH  10  17
ENDBRANCH   9  10
ENDBRANCH   7   9
ENDBRANCH   1   7
BRANCH   5  20
ATOM     20  O   UNL     1      44.343   4.046   9.130  0.00  0.00    +0.000 OA
BRANCH  20  21
ATOM     21  C   UNL     1      45.462   3.198   8.857  0.00  0.00    +0.000 C 
ATOM     22  C   UNL     1      45.109   1.709   8.760  0.00  0.00    +0.000 C 
ATOM     23  C   UNL     1      46.300   1.100   8.033  0.00  0.00    +0.000 C 
ATOM     24  C   UNL     1      46.851   2.212   7.142  0.00  0.00    +0.000 C 
ATOM     25  C   UNL     1      45.992   3.445   7.434  0.00  0.00    +0.000 C 
BRANCH  25  26
ATOM     26  O   UNL     1      46.754   4.635   7.302  0.00  0.00    +0.000 OA
ATOM     27  H   UNL     1      46.149   5.372   7.119  0.00  0.00    +0.000 HD
ENDBRANCH  25  26
ENDBRANCH  20  21
ENDBRANCH   5  20
TORSDOF 8
ENDMDL
MODEL 3
REMARK VINA RESULT:    -7.382      1.830      2.487
REMARK INTER + INTRA:         -11.607
REMARK INTER:                 -10.778
REMARK INTRA:                  -0.830
REMARK UNBOUND:                -0.989
REMARK  Name = 
REMARK  8 active torsions:
REMARK  status: ('A' for Active; 'I' for Inactive)
REMARK    1  A    between atoms: C_2  and  C_3
REMARK    2  A    between atoms: C_8  and  N_9
REMARK    3  A    between atoms: N_9  and  C_10
REMARK    4  A    between atoms: C_10  and  C_11
REMARK    5  A    between atoms: C_11  and  C_13
REMARK    6  A    between atoms: C_17  and  O_18
REMARK    7  A    between atoms: O_18  and  C_19
REMARK    8  A    between atoms: C_23  and  O_24
REMARK                            x       y       z     vdW  Elec       q    Type
REMARK                         _______ _______ _______ _____ _____    ______ ____
ROOT
ATOM      1  C   UNL     1      45.341   5.805  12.153  0.00  0.00    +0.000 A 
ATOM      2  C   UNL     1      44.136   5.800  12.870  0.00  0.00    +0.000 A 
ATOM      3  C   UNL     1      43.024   5.109  12.385  0.00  0.00    +0.000 A 
ATOM      4  C   UNL     1      43.090   4.451  11.158  0.00  0.00    +0.000 A 
ATOM      5  C   UNL     1      44.250   4.526  10.388  0.00  0.00    +0.000 A 
ATOM      6  C   UNL     1      45.388   5.151  10.910  0.00  0.00    +0.000 A 
ENDROOT
BRANCH   1   7
ATOM      7  C   UNL     1      46.557   6.535  12.703  0.00  0.00    +0.000 C 
ATOM      8  F   UNL     1      47.324   7.049  11.689  0.00  0.00    +0.000 F 
BRANCH   7   9
ATOM      9  C   UNL     1      47.449   5.593  13.548  0.00  0.00    +0.000 C 
BRANCH   9  10
ATOM     10  N   UNL     1      46.946   5.331  14.920  0.00  0.00    +0.000 N 
ATOM     11  H   UNL     1      46.573   6.169  15.354  0.00  0.00    +0.000 HD
BRANCH  10  17
ATOM     12  C   UNL     1      48.617   5.233  16.716  0.00  0.00    +0.000 A 
ATOM     13  C   UNL     1      49.351   4.441  17.614  0.00  0.00    +0.000 A 
ATOM     14  C   UNL     1      49.231   3.060  17.572  0.00  0.00    +0.000 A 
ATOM     15  C   UNL     1      48.399   2.518  16.619  0.00  0.00    +0.000 A 
ATOM     16  N   UNL     1      47.708   3.256  15.720  0.00  0.00    +0.000 NA
ATOM     17  C   UNL     1      47.793   4.605  15.766  0.00  0.00    +0.000 A 
BRANCH  12  19
ATOM     18  N   UNL     1      48.942   7.806  16.830  0.00  0.00    +0.000 NA
ATOM     19  C   UNL     1      48.765   6.661  16.806  0.00  0.00    +0.000 C 
ENDBRANCH  12  19
ENDBRANCH  10  17
ENDBRANCH   9  10
ENDBRANCH   7   9
ENDBRANCH   1   7
BRANCH   5  20
ATOM     20  O   UNL     1      44.364   4.053   9.106  0.00  0.00    +0.000 OA
BRANCH  20  21
ATOM     21  C   UNL     1      45.491   3.210   8.847  0.00  0.00    +0.000 C 
ATOM     22  C   UNL     1      45.149   1.719   8.752  0.00  0.00    +0.000 C 
ATOM     23  C   UNL     1      46.351   1.115   8.038  0.00  0.00    +0.000 C 
ATOM     24  C   UNL     1      46.902   2.228   7.148  0.00  0.00    +0.000 C 
ATOM     25  C   UNL     1      46.033   3.456   7.428  0.00  0.00    +0.000 C 
BRANCH  25  26
ATOM     26  O   UNL     1      46.789   4.650   7.299  0.00  0.00    +0.000 OA
ATOM     27  H   UNL     1      47.296   4.608   6.471  0.00  0.00    +0.000 HD
ENDBRANCH  25  26
ENDBRANCH  20  21
ENDBRANCH   5  20
TORSDOF 8
ENDMDL
MODEL 4
REMARK VINA RESULT:    -7.216      3.745      8.106
REMARK INTER + INTRA:         -11.369
REMARK INTER:                 -10.622
REMARK INTRA:                  -0.747
REMARK UNBOUND:                -0.989
REMARK  Name = 
REMARK  8 active torsions:
REMARK  status: ('A' for Active; 'I' for Inactive)
REMARK    1  A    between atoms: C_2  and  C_3
REMARK    2  A    between atoms: C_8  and  N_9
REMARK    3  A    between atoms: N_9  and  C_10
REMARK    4  A    between atoms: C_10  and  C_11
REMARK    5  A    between atoms: C_11  and  C_13
REMARK    6  A    between atoms: C_17  and  O_18
REMARK    7  A    between atoms: O_18  and  C_19
REMARK    8  A    between atoms: C_23  and  O_24
REMARK                            x       y       z     vdW  Elec       q    Type
REMARK                         _______ _______ _______ _____ _____    ______ ____
ROOT
ATOM      1  C   UNL     1      46.407   6.695  12.508  0.00  0.00    +0.000 A 
ATOM      2  C   UNL     1      47.277   7.742  12.848  0.00  0.00    +0.000 A 
ATOM      3  C   UNL     1      48.228   7.576  13.854  0.00  0.00    +0.000 A 
ATOM      4  C   UNL     1      48.296   6.377  14.563  0.00  0.00    +0.000 A 
ATOM      5  C   UNL     1      47.377   5.361  14.303  0.00  0.00    +0.000 A 
ATOM      6  C   UNL     1      46.476   5.498  13.241  0.00  0.00    +0.000 A 
ENDROOT
BRANCH   1   7
ATOM      7  C   UNL     1      45.393   6.873  11.389  0.00  0.00    +0.000 C 
ATOM      8  F   UNL     1      44.696   8.045  11.537  0.00  0.00    +0.000 F 
BRANCH   7   9
ATOM      9  C   UNL     1      44.373   5.709  11.356  0.00  0.00    +0.000 C 
BRANCH   9  10
ATOM     10  N   UNL     1      43.954   5.292   9.996  0.00  0.00    +0.000 N 
ATOM     11  H   UNL     1      42.955   5.113   9.944  0.00  0.00    +0.000 HD
BRANCH  10  17
ATOM     12  C   UNL     1      44.582   2.935   9.718  0.00  0.00    +0.000 A 
ATOM     13  C   UNL     1      45.297   1.974   8.984  0.00  0.00    +0.000 A 
ATOM     14  C   UNL     1      46.103   2.372   7.929  0.00  0.00    +0.000 A 
ATOM     15  C   UNL     1      46.184   3.720   7.658  0.00  0.00    +0.000 A 
ATOM     16  N   UNL     1      45.534   4.668   8.371  0.00  0.00    +0.000 NA
ATOM     17  C   UNL     1      44.722   4.293   9.385  0.00  0.00    +0.000 A 
BRANCH  12  19
ATOM     18  N   UNL     1      43.093   2.162  11.699  0.00  0.00    +0.000 NA
ATOM     19  C   UNL     1      43.749   2.471  10.796  0.00  0.00    +0.000 C 
ENDBRANCH  12  19
ENDBRANCH  10  17
ENDBRANCH   9  10
ENDBRANCH   7   9
ENDBRANCH   1   7
BRANCH   5  20
ATOM     20  O   UNL     1      47.255   4.215  15.046  0.00  0.00    +0.000 OA
BRANCH  20  21
ATOM     21  C   UNL     1      48.062   4.144  16.225  0.00  0.00    +0.000 C 
ATOM     22  C   UNL     1      47.378   4.685  17.485  0.00  0.00    +0.000 C 
ATOM     23  C   UNL     1      48.198   4.097  18.626  0.00  0.00    +0.000 C 
ATOM     24  C   UNL     1      48.753   2.775  18.094  0.00  0.00    +0.000 C 
ATOM     25  C   UNL     1      48.280   2.678  16.642  0.00  0.00    +0.000 C 
BRANCH  25  26
ATOM     26  O   UNL     1      49.233   1.989  15.846  0.00  0.00    +0.000 OA
ATOM     27  H   UNL     1      49.528   2.581  15.134  0.00  0.00    +0.000 HD
ENDBRANCH  25  26
ENDBRANCH  20  21
ENDBRANCH   5  20
TORSDOF 8
ENDMDL
MODEL 5
REMARK VINA RESULT:    -7.105      3.508      4.934
REMARK INTER + INTRA:         -11.210
REMARK INTER:                 -10.220
REMARK INTRA:                  -0.990
REMARK UNBOUND:                -0.989
REMARK  Name = 
REMARK  8 active torsions:
REMARK  status: ('A' for Active; 'I' for Inactive)
REMARK    1  A    between atoms: C_2  and  C_3
REMARK    2  A    between atoms: C_8  and  N_9
REMARK    3  A    between atoms: N_9  and  C_10
REMARK    4  A    between atoms: C_10  and  C_11
REMARK    5  A    between atoms: C_11  and  C_13
REMARK    6  A    between atoms: C_17  and  O_18
REMARK    7  A    between atoms: O_18  and  C_19
REMARK    8  A    between atoms: C_23  and  O_24
REMARK                            x       y       z     vdW  Elec       q    Type
REMARK                         _______ _______ _______ _____ _____    ______ ____
ROOT
ATOM      1  C   UNL     1      45.370   4.459  12.889  0.00  0.00    +0.000 A 
ATOM      2  C   UNL     1      44.254   5.246  13.209  0.00  0.00    +0.000 A 
ATOM      3  C   UNL     1      43.058   5.101  12.505  0.00  0.00    +0.000 A 
ATOM      4  C   UNL     1      42.974   4.200  11.445  0.00  0.00    +0.000 A 
ATOM      5  C   UNL     1      44.102   3.479  11.053  0.00  0.00    +0.000 A 
ATOM      6  C   UNL     1      45.276   3.565  11.809  0.00  0.00    +0.000 A 
ENDROOT
BRANCH   1   7
ATOM      7  C   UNL     1      46.660   4.600  13.682  0.00  0.00    +0.000 C 
ATOM      8  F   UNL     1      46.447   4.365  15.017  0.00  0.00    +0.000 F 
BRANCH   7   9
ATOM      9  C   UNL     1      47.263   6.019  13.536  0.00  0.00    +0.000 C 
BRANCH   9  10
ATOM     10  N   UNL     1      47.293   6.538  12.146  0.00  0.00    +0.000 N 
ATOM     11  H   UNL     1      47.438   5.797  11.467  0.00  0.00    +0.000 HD
BRANCH  10  17
ATOM     12  C   UNL     1      47.608   8.970  12.033  0.00  0.00    +0.000 A 
ATOM     13  C   UNL     1      48.500  10.048  11.906  0.00  0.00    +0.000 A 
ATOM     14  C   UNL     1      49.849   9.806  11.700  0.00  0.00    +0.000 A 
ATOM     15  C   UNL     1      50.257   8.495  11.605  0.00  0.00    +0.000 A 
ATOM     16  N   UNL     1      49.415   7.440  11.688  0.00  0.00    +0.000 NA
ATOM     17  C   UNL     1      48.100   7.659  11.916  0.00  0.00    +0.000 A 
BRANCH  12  19
ATOM     18  N   UNL     1      45.085   9.447  12.410  0.00  0.00    +0.000 NA
ATOM     19  C   UNL     1      46.219   9.272  12.258  0.00  0.00    +0.000 C 
ENDBRANCH  12  19
ENDBRANCH  10  17
ENDBRANCH   9  10
ENDBRANCH   7   9
ENDBRANCH   1   7
BRANCH   5  20
ATOM     20  O   UNL     1      44.169   2.691   9.932  0.00  0.00    +0.000 OA
BRANCH  20  21
ATOM     21  C   UNL     1      45.426   2.682   9.248  0.00  0.00    +0.000 C 
ATOM     22  C   UNL     1      45.713   1.385   8.483  0.00  0.00    +0.000 C 
ATOM     23  C   UNL     1      46.813   1.775   7.505  0.00  0.00    +0.000 C 
ATOM     24  C   UNL     1      46.597   3.259   7.214  0.00  0.00    +0.000 C 
ATOM     25  C   UNL     1      45.412   3.688   8.083  0.00  0.00    +0.000 C 
BRANCH  25  26
ATOM     26  O   UNL     1      45.547   5.041   8.489  0.00  0.00    +0.000 OA
ATOM     27  H   UNL     1      44.664   5.395   8.684  0.00  0.00    +0.000 HD
ENDBRANCH  25  26
ENDBRANCH  20  21
ENDBRANCH   5  20
TORSDOF 8
ENDMDL
MODEL 6
REMARK VINA RESULT:    -6.860      3.953      8.465
REMARK INTER + INTRA:         -10.857
REMARK INTER:                  -9.908
REMARK INTRA:                  -0.949
REMARK UNBOUND:                -0.989
REMARK  Name = 
REMARK  8 active torsions:
REMARK  status: ('A' for Active; 'I' for Inactive)
REMARK    1  A    between atoms: C_2  and  C_3
REMARK    2  A    between atoms: C_8  and  N_9
REMARK    3  A    between atoms: N_9  and  C_10
REMARK    4  A    between atoms: C_10  and  C_11
REMARK    5  A    between atoms: C_11  and  C_13
REMARK    6  A    between atoms: C_17  and  O_18
REMARK    7  A    between atoms: O_18  and  C_19
REMARK    8  A    between atoms: C_23  and  O_24
REMARK                            x       y       z     vdW  Elec       q    Type
REMARK                         _______ _______ _______ _____ _____    ______ ____
ROOT
ATOM      1  C   UNL     1      47.243   6.457  13.045  0.00  0.00    +0.000 A 
ATOM      2  C   UNL     1      48.124   7.192  12.239  0.00  0.00    +0.000 A 
ATOM      3  C   UNL     1      49.339   7.649  12.749  0.00  0.00    +0.000 A 
ATOM      4  C   UNL     1      49.671   7.415  14.083  0.00  0.00    +0.000 A 
ATOM      5  C   UNL     1      48.765   6.770  14.923  0.00  0.00    +0.000 A 
ATOM      6  C   UNL     1      47.583   6.243  14.392  0.00  0.00    +0.000 A 
ENDROOT
BRANCH   1   7
ATOM      7  C   UNL     1      45.934   5.936  12.473  0.00  0.00    +0.000 C 
ATOM      8  F   UNL     1      45.887   4.566  12.519  0.00  0.00    +0.000 F 
BRANCH   7   9
ATOM      9  C   UNL     1      45.745   6.372  10.999  0.00  0.00    +0.000 C 
BRANCH   9  10
ATOM     10  N   UNL     1      44.718   5.604  10.253  0.00  0.00    +0.000 N 
ATOM     11  H   UNL     1      43.930   5.351  10.843  0.00  0.00    +0.000 HD
BRANCH  10  17
ATOM     12  C   UNL     1      44.715   3.225   9.647  0.00  0.00    +0.000 A 
ATOM     13  C   UNL     1      45.131   2.227   8.751  0.00  0.00    +0.000 A 
ATOM     14  C   UNL     1      45.965   2.554   7.693  0.00  0.00    +0.000 A 
ATOM     15  C   UNL     1      46.373   3.865   7.581  0.00  0.00    +0.000 A 
ATOM     16  N   UNL     1      46.016   4.838   8.450  0.00  0.00    +0.000 NA
ATOM     17  C   UNL     1      45.181   4.540   9.471  0.00  0.00    +0.000 A 
BRANCH  12  19
ATOM     18  N   UNL     1      43.183   2.561  11.635  0.00  0.00    +0.000 NA
ATOM     19  C   UNL     1      43.840   2.838  10.722  0.00  0.00    +0.000 C 
ENDBRANCH  12  19
ENDBRANCH  10  17
ENDBRANCH   9  10
ENDBRANCH   7   9
ENDBRANCH   1   7
BRANCH   5  20
ATOM     20  O   UNL     1      48.924   6.633  16.278  0.00  0.00    +0.000 OA
BRANCH  20  21
ATOM     21  C   UNL     1      49.025   5.291  16.765  0.00  0.00    +0.000 C 
ATOM     22  C   UNL     1      50.403   4.933  17.334  0.00  0.00    +0.000 C 
ATOM     23  C   UNL     1      50.138   3.691  18.174  0.00  0.00    +0.000 C 
ATOM     24  C   UNL     1      48.693   3.821  18.654  0.00  0.00    +0.000 C 
ATOM     25  C   UNL     1      48.156   5.106  18.021  0.00  0.00    +0.000 C 
BRANCH  25  26
ATOM     26  O   UNL     1      46.767   4.993  17.749  0.00  0.00    +0.000 OA
ATOM     27  H   UNL     1      46.654   4.739  16.818  0.00  0.00    +0.000 HD
ENDBRANCH  25  26
ENDBRANCH  20  21
ENDBRANCH   5  20
TORSDOF 8
ENDMDL
MODEL 7
REMARK VINA RESULT:    -6.849      2.324      2.556
REMARK INTER + INTRA:         -10.840
REMARK INTER:                  -9.829
REMARK INTRA:                  -1.012
REMARK UNBOUND:                -0.989
REMARK  Name = 
REMARK  8 active torsions:
REMARK  status: ('A' for Active; 'I' for Inactive)
REMARK    1  A    between atoms: C_2  and  C_3
REMARK    2  A    between atoms: C_8  and  N_9
REMARK    3  A    between atoms: N_9  and  C_10
REMARK    4  A    between atoms: C_10  and  C_11
REMARK    5  A    between atoms: C_11  and  C_13
REMARK    6  A    between atoms: C_17  and  O_18
REMARK    7  A    between atoms: O_18  and  C_19
REMARK    8  A    between atoms: C_23  and  O_24
REMARK                            x       y       z     vdW  Elec       q    Type
REMARK                         _______ _______ _______ _____ _____    ______ ____
ROOT
ATOM      1  C   UNL     1      45.300   4.627  12.819  0.00  0.00    +0.000 A 
ATOM      2  C   UNL     1      44.181   5.389  13.181  0.00  0.00    +0.000 A 
ATOM      3  C   UNL     1      42.964   5.223  12.519  0.00  0.00    +0.000 A 
ATOM      4  C   UNL     1      42.862   4.324  11.458  0.00  0.00    +0.000 A 
ATOM      5  C   UNL     1      43.989   3.629  11.023  0.00  0.00    +0.000 A 
ATOM      6  C   UNL     1      45.187   3.736  11.738  0.00  0.00    +0.000 A 
ENDROOT
BRANCH   1   7
ATOM      7  C   UNL     1      46.614   4.791  13.567  0.00  0.00    +0.000 C 
ATOM      8  F   UNL     1      46.434   4.645  14.919  0.00  0.00    +0.000 F 
BRANCH   7   9
ATOM      9  C   UNL     1      47.240   6.185  13.315  0.00  0.00    +0.000 C 
BRANCH   9  10
ATOM     10  N   UNL     1      48.533   6.417  14.006  0.00  0.00    +0.000 N 
ATOM     11  H   UNL     1      49.032   5.549  14.178  0.00  0.00    +0.000 HD
BRANCH  10  17
ATOM     12  C   UNL     1      48.813   6.804  16.414  0.00  0.00    +0.000 A 
ATOM     13  C   UNL     1      48.877   7.729  17.469  0.00  0.00    +0.000 A 
ATOM     14  C   UNL     1      48.664   9.076  17.219  0.00  0.00    +0.000 A 
ATOM     15  C   UNL     1      48.371   9.448  15.927  0.00  0.00    +0.000 A 
ATOM     16  N   UNL     1      48.268   8.575  14.900  0.00  0.00    +0.000 NA
ATOM     17  C   UNL     1      48.500   7.261  15.122  0.00  0.00    +0.000 A 
BRANCH  12  19
ATOM     18  N   UNL     1      49.300   4.304  16.913  0.00  0.00    +0.000 NA
ATOM     19  C   UNL     1      49.054   5.419  16.721  0.00  0.00    +0.000 C 
ENDBRANCH  12  19
ENDBRANCH  10  17
ENDBRANCH   9  10
ENDBRANCH   7   9
ENDBRANCH   1   7
BRANCH   5  20
ATOM     20  O   UNL     1      44.034   2.848   9.896  0.00  0.00    +0.000 OA
BRANCH  20  21
ATOM     21  C   UNL     1      45.307   2.753   9.250  0.00  0.00    +0.000 C 
ATOM     22  C   UNL     1      45.561   1.406   8.563  0.00  0.00    +0.000 C 
ATOM     23  C   UNL     1      46.702   1.700   7.598  0.00  0.00    +0.000 C 
ATOM     24  C   UNL     1      46.553   3.173   7.222  0.00  0.00    +0.000 C 
ATOM     25  C   UNL     1      45.364   3.694   8.033  0.00  0.00    +0.000 C 
BRANCH  25  26
ATOM     26  O   UNL     1      45.542   5.061   8.370  0.00  0.00    +0.000 OA
ATOM     27  H   UNL     1      45.403   5.598   7.572  0.00  0.00    +0.000 HD
ENDBRANCH  25  26
ENDBRANCH  20  21
ENDBRANCH   5  20
TORSDOF 8
ENDMDL
MODEL 8
REMARK VINA RESULT:    -6.797      2.993      3.615
REMARK INTER + INTRA:         -10.766
REMARK INTER:                  -9.848
REMARK INTRA:                  -0.918
REMARK UNBOUND:                -0.989
REMARK  Name = 
REMARK  8 active torsions:
REMARK  status: ('A' for Active; 'I' for Inactive)
REMARK    1  A    between atoms: C_2  and  C_3
REMARK    2  A    between atoms: C_8  and  N_9
REMARK    3  A    between atoms: N_9  and  C_10
REMARK    4  A    between atoms: C_10  and  C_11
REMARK    5  A    between atoms: C_11  and  C_13
REMARK    6  A    between atoms: C_17  and  O_18
REMARK    7  A    between atoms: O_18  and  C_19
REMARK    8  A    between atoms: C_23  and  O_24
REMARK                            x       y       z     vdW  Elec       q    Type
REMARK                         _______ _______ _______ _____ _____    ______ ____
ROOT
ATOM      1  C   UNL     1      45.338   4.428  12.893  0.00  0.00    +0.000 A 
ATOM      2  C   UNL     1      44.264   5.271  13.215  0.00  0.00    +0.000 A 
ATOM      3  C   UNL     1      43.070   5.206  12.496  0.00  0.00    +0.000 A 
ATOM      4  C   UNL     1      42.948   4.328  11.419  0.00  0.00    +0.000 A 
ATOM      5  C   UNL     1      44.038   3.551  11.027  0.00  0.00    +0.000 A 
ATOM      6  C   UNL     1      45.207   3.560  11.796  0.00  0.00    +0.000 A 
ENDROOT
BRANCH   1   7
ATOM      7  C   UNL     1      46.625   4.484  13.701  0.00  0.00    +0.000 C 
ATOM      8  F   UNL     1      46.360   4.554  15.045  0.00  0.00    +0.000 F 
BRANCH   7   9
ATOM      9  C   UNL     1      47.483   5.714  13.317  0.00  0.00    +0.000 C 
BRANCH   9  10
ATOM     10  N   UNL     1      47.513   6.790  14.338  0.00  0.00    +0.000 N 
ATOM     11  H   UNL     1      46.891   7.557  14.099  0.00  0.00    +0.000 HD
BRANCH  10  17
ATOM     12  C   UNL     1      49.250   8.519  14.493  0.00  0.00    +0.000 A 
ATOM     13  C   UNL     1      50.478   8.923  15.042  0.00  0.00    +0.000 A 
ATOM     14  C   UNL     1      51.189   8.054  15.855  0.00  0.00    +0.000 A 
ATOM     15  C   UNL     1      50.660   6.802  16.071  0.00  0.00    +0.000 A 
ATOM     16  N   UNL     1      49.498   6.375  15.526  0.00  0.00    +0.000 NA
ATOM     17  C   UNL     1      48.779   7.220  14.755  0.00  0.00    +0.000 A 
BRANCH  12  19
ATOM     18  N   UNL     1      48.031  10.217  12.954  0.00  0.00    +0.000 NA
ATOM     19  C   UNL     1      48.542   9.461  13.667  0.00  0.00    +0.000 C 
ENDBRANCH  12  19
ENDBRANCH  10  17
ENDBRANCH   9  10
ENDBRANCH   7   9
ENDBRANCH   1   7
BRANCH   5  20
ATOM     20  O   UNL     1      44.074   2.780   9.893  0.00  0.00    +0.000 OA
BRANCH  20  21
ATOM     21  C   UNL     1      45.334   2.721   9.216  0.00  0.00    +0.000 C 
ATOM     22  C   UNL     1      45.587   1.400   8.481  0.00  0.00    +0.000 C 
ATOM     23  C   UNL     1      46.703   1.738   7.501  0.00  0.00    +0.000 C 
ATOM     24  C   UNL     1      46.530   3.221   7.176  0.00  0.00    +0.000 C 
ATOM     25  C   UNL     1      45.354   3.701   8.029  0.00  0.00    +0.000 C 
BRANCH  25  26
ATOM     26  O   UNL     1      45.525   5.059   8.407  0.00  0.00    +0.000 OA
ATOM     27  H   UNL     1      45.028   5.618   7.787  0.00  0.00    +0.000 HD
ENDBRANCH  25  26
ENDBRANCH  20  21
ENDBRANCH   5  20
TORSDOF 8
ENDMDL
MODEL 9
REMARK VINA RESULT:    -6.713      3.805      4.716
REMARK INTER + INTRA:         -10.645
REMARK INTER:                  -9.581
REMARK INTRA:                  -1.064
REMARK UNBOUND:                -0.989
REMARK  Name = 
REMARK  8 active torsions:
REMARK  status: ('A' for Active; 'I' for Inactive)
REMARK    1  A    between atoms: C_2  and  C_3
REMARK    2  A    between atoms: C_8  and  N_9
REMARK    3  A    between atoms: N_9  and  C_10
REMARK    4  A    between atoms: C_10  and  C_11
REMARK    5  A    between atoms: C_11  and  C_13
REMARK    6  A    between atoms: C_17  and  O_18
REMARK    7  A    between atoms: O_18  and  C_19
REMARK    8  A    between atoms: C_23  and  O_24
REMARK                            x       y       z     vdW  Elec       q    Type
REMARK                         _______ _______ _______ _____ _____    ______ ____
ROOT
ATOM      1  C   UNL     1      45.236   5.881  12.094  0.00  0.00    +0.000 A 
ATOM      2  C   UNL     1      44.051   5.799  12.839  0.00  0.00    +0.000 A 
ATOM      3  C   UNL     1      42.980   5.028  12.387  0.00  0.00    +0.000 A 
ATOM      4  C   UNL     1      43.064   4.362  11.165  0.00  0.00    +0.000 A 
ATOM      5  C   UNL     1      44.198   4.510  10.367  0.00  0.00    +0.000 A 
ATOM      6  C   UNL     1      45.301   5.219  10.857  0.00  0.00    +0.000 A 
ENDROOT
BRANCH   1   7
ATOM      7  C   UNL     1      46.410   6.700  12.610  0.00  0.00    +0.000 C 
ATOM      8  F   UNL     1      47.083   6.028  13.598  0.00  0.00    +0.000 F 
BRANCH   7   9
ATOM      9  C   UNL     1      45.944   8.059  13.186  0.00  0.00    +0.000 C 
BRANCH   9  10
ATOM     10  N   UNL     1      47.003   8.830  13.883  0.00  0.00    +0.000 N 
ATOM     11  H   UNL     1      46.615   9.571  14.460  0.00  0.00    +0.000 HD
BRANCH  10  17
ATOM     12  C   UNL     1      49.366   8.691  13.231  0.00  0.00    +0.000 A 
ATOM     13  C   UNL     1      50.375   9.077  12.334  0.00  0.00    +0.000 A 
ATOM     14  C   UNL     1      50.089   9.978  11.320  0.00  0.00    +0.000 A 
ATOM     15  C   UNL     1      48.809  10.480  11.252  0.00  0.00    +0.000 A 
ATOM     16  N   UNL     1      47.828  10.152  12.123  0.00  0.00    +0.000 NA
ATOM     17  C   UNL     1      48.084   9.254  13.101  0.00  0.00    +0.000 A 
BRANCH  12  19
ATOM     18  N   UNL     1      49.964   6.927  15.038  0.00  0.00    +0.000 NA
ATOM     19  C   UNL     1      49.708   7.744  14.259  0.00  0.00    +0.000 C 
ENDBRANCH  12  19
ENDBRANCH  10  17
ENDBRANCH   9  10
ENDBRANCH   7   9
ENDBRANCH   1   7
BRANCH   5  20
ATOM     20  O   UNL     1      44.315   4.032   9.087  0.00  0.00    +0.000 OA
BRANCH  20  21
ATOM     21  C   UNL     1      45.449   3.197   8.831  0.00  0.00    +0.000 C 
ATOM     22  C   UNL     1      45.121   1.702   8.758  0.00  0.00    +0.000 C 
ATOM     23  C   UNL     1      46.324   1.100   8.044  0.00  0.00    +0.000 C 
ATOM     24  C   UNL     1      46.859   2.207   7.136  0.00  0.00    +0.000 C 
ATOM     25  C   UNL     1      45.979   3.430   7.406  0.00  0.00    +0.000 C 
BRANCH  25  26
ATOM     26  O   UNL     1      46.723   4.630   7.257  0.00  0.00    +0.000 OA
ATOM     27  H   UNL     1      47.658   4.401   7.128  0.00  0.00    +0.000 HD
ENDBRANCH  25  26
ENDBRANCH  20  21
ENDBRANCH   5  20
TORSDOF 8
ENDMDL
