MODEL 1
REMARK VINA RESULT:    -6.811      0.000      0.000
REMARK INTER + INTRA:         -10.951
REMARK INTER:                  -9.797
REMARK INTRA:                  -1.154
REMARK UNBOUND:                -1.154
REMARK  Name = 
REMARK  8 active torsions:
REMARK  status: ('A' for Active; 'I' for Inactive)
REMARK    1  A    between atoms: C_2  and  C_3
REMARK    2  A    between atoms: N_13  and  C_14
REMARK    3  A    between atoms: N_13  and  C_17
REMARK    4  A    between atoms: C_14  and  C_15
REMARK    5  A    between atoms: C_15  and  O_16
REMARK    6  A    between atoms: C_17  and  C_18
REMARK    7  A    between atoms: C_21  and  O_22
REMARK    8  A    between atoms: O_22  and  C_23
REMARK                            x       y       z     vdW  Elec       q    Type
REMARK                         _______ _______ _______ _____ _____    ______ ____
ROOT
ATOM      1  O   UNL     1      49.142   6.284  14.292  0.00  0.00    +0.000 OA
ATOM      2  C   UNL     1      48.201   6.839  13.732  0.00  0.00    +0.000 C 
ATOM      3  N   UNL     1      46.928   6.237  13.657  0.00  0.00    +0.000 N 
ENDROOT
BRANCH   2   4
ATOM      4  C   UNL     1      48.428   8.184  13.158  0.00  0.00    +0.000 A 
ATOM      5  C   UNL     1      48.657   8.468  11.820  0.00  0.00    +0.000 A 
ATOM      6  S   UNL     1      48.850  10.131  11.488  0.00  0.00    +0.000 S 
ATOM      7  C   UNL     1      48.787  10.522  13.140  0.00  0.00    +0.000 A 
ATOM      8  N   UNL     1      48.937  11.807  13.554  0.00  0.00    +0.000 NA
ATOM      9  C   UNL     1      48.914  11.954  14.838  0.00  0.00    +0.000 A 
ATOM     10  N   UNL     1      48.752  10.933  15.738  0.00  0.00    +0.000 N 
ATOM     11  C   UNL     1      48.550   9.622  15.366  0.00  0.00    +0.000 A 
ATOM     12  O   UNL     1      48.340   8.759  16.211  0.00  0.00    +0.000 OA
ATOM     13  C   UNL     1      48.585   9.402  13.929  0.00  0.00    +0.000 A 
ATOM     14  H   UNL     1      48.736  11.115  16.730  0.00  0.00    +0.000 HD
ENDBRANCH   2   4
BRANCH   3  15
ATOM     15  C   UNL     1      46.606   4.989  14.392  0.00  0.00    +0.000 C 
BRANCH  15  16
ATOM     16  C   UNL     1      47.095   3.625  13.892  0.00  0.00    +0.000 C 
BRANCH  16  17
ATOM     17  O   UNL     1      46.098   2.962  13.122  0.00  0.00    +0.000 OA
ATOM     18  H   UNL     1      45.663   2.338  13.749  0.00  0.00    +0.000 HD
ENDBRANCH  16  17
ENDBRANCH  15  16
ENDBRANCH   3  15
BRANCH   3  19
ATOM     19  C   UNL     1      45.858   6.813  12.838  0.00  0.00    +0.000 C 
BRANCH  19  20
ATOM     20  C   UNL     1      45.440   6.109  11.569  0.00  0.00    +0.000 A 
ATOM     21  C   UNL     1      46.258   6.148  10.437  0.00  0.00    +0.000 A 
ATOM     22  C   UNL     1      45.934   5.391   9.312  0.00  0.00    +0.000 A 
ATOM     23  C   UNL     1      44.812   4.559   9.323  0.00  0.00    +0.000 A 
ATOM     24  C   UNL     1      43.945   4.577  10.414  0.00  0.00    +0.000 A 
ATOM     25  C   UNL     1      44.258   5.350  11.534  0.00  0.00    +0.000 A 
BRANCH  23  26
ATOM     26  O   UNL     1      44.473   3.734   8.274  0.00  0.00    +0.000 OA
BRANCH  26  27
ATOM     27  C   UNL     1      45.453   2.880   7.783  0.00  0.00    +0.000 A 
ATOM     28  C   UNL     1      45.676   1.699   8.476  0.00  0.00    +0.000 A 
ATOM     29  N   UNL     1      46.569   0.766   8.060  0.00  0.00    +0.000 NA
ATOM     30  C   UNL     1      47.233   1.073   6.922  0.00  0.00    +0.000 A 
ATOM     31  C   UNL     1      47.035   2.265   6.245  0.00  0.00    +0.000 A 
ATOM     32  N   UNL     1      46.154   3.199   6.667  0.00  0.00    +0.000 NA
ENDBRANCH  26  27
ENDBRANCH  23  26
ENDBRANCH  19  20
ENDBRANCH   3  19
TORSDOF 8
ENDMDL
MODEL 2
REMARK VINA RESULT:    -6.647      3.745      8.541
REMARK INTER + INTRA:         -10.716
REMARK INTER:                  -9.618
REMARK INTRA:                  -1.099
REMARK UNBOUND:                -1.154
REMARK  Name = 
REMARK  8 active torsions:
REMARK  status: ('A' for Active; 'I' for Inactive)
REMARK    1  A    between atoms: C_2  and  C_3
REMARK    2  A    between atoms: N_13  and  C_14
REMARK    3  A    between atoms: N_13  and  C_17
REMARK    4  A    between atoms: C_14  and  C_15
REMARK    5  A    between atoms: C_15  and  O_16
REMARK    6  A    between atoms: C_17  and  C_18
REMARK    7  A    between atoms: C_21  and  O_22
REMARK    8  A    between atoms: O_22  and  C_23
REMARK                            x       y       z     vdW  Elec       q    Type
REMARK                         _______ _______ _______ _____ _____    ______ ____
ROOT
ATOM      1  O   UNL     1      43.469   7.140  11.476  0.00  0.00    +0.000 OA
ATOM      2  C   UNL     1      44.396   6.366  11.699  0.00  0.00    +0.000 C 
ATOM      3  N   UNL     1      45.620   6.816  12.236  0.00  0.00    +0.000 N 
ENDROOT
BRANCH   2   4
ATOM      4  C   UNL     1      44.187   4.929  11.416  0.00  0.00    +0.000 A 
ATOM      5  C   UNL     1      43.587   4.012  12.266  0.00  0.00    +0.000 A 
ATOM      6  S   UNL     1      43.476   2.437  11.619  0.00  0.00    +0.000 S 
ATOM      7  C   UNL     1      44.360   2.884  10.240  0.00  0.00    +0.000 A 
ATOM      8  N   UNL     1      44.662   1.967   9.284  0.00  0.00    +0.000 NA
ATOM      9  C   UNL     1      45.378   2.433   8.313  0.00  0.00    +0.000 A 
ATOM     10  N   UNL     1      45.814   3.729   8.217  0.00  0.00    +0.000 N 
ATOM     11  C   UNL     1      45.495   4.705   9.136  0.00  0.00    +0.000 A 
ATOM     12  O   UNL     1      45.852   5.864   8.964  0.00  0.00    +0.000 OA
ATOM     13  C   UNL     1      44.704   4.225  10.258  0.00  0.00    +0.000 A 
ATOM     14  H   UNL     1      46.366   4.032   7.429  0.00  0.00    +0.000 HD
ENDBRANCH   2   4
BRANCH   3  15
ATOM     15  C   UNL     1      45.798   8.207  12.722  0.00  0.00    +0.000 C 
BRANCH  15  16
ATOM     16  C   UNL     1      46.779   9.167  12.039  0.00  0.00    +0.000 C 
BRANCH  16  17
ATOM     17  O   UNL     1      47.359  10.073  12.971  0.00  0.00    +0.000 OA
ATOM     18  H   UNL     1      46.683  10.779  13.095  0.00  0.00    +0.000 HD
ENDBRANCH  16  17
ENDBRANCH  15  16
ENDBRANCH   3  15
BRANCH   3  19
ATOM     19  C   UNL     1      46.783   5.931  12.333  0.00  0.00    +0.000 C 
BRANCH  19  20
ATOM     20  C   UNL     1      47.307   5.546  13.695  0.00  0.00    +0.000 A 
ATOM     21  C   UNL     1      48.187   6.390  14.378  0.00  0.00    +0.000 A 
ATOM     22  C   UNL     1      48.567   6.096  15.687  0.00  0.00    +0.000 A 
ATOM     23  C   UNL     1      48.038   4.978  16.339  0.00  0.00    +0.000 A 
ATOM     24  C   UNL     1      47.227   4.087  15.640  0.00  0.00    +0.000 A 
ATOM     25  C   UNL     1      46.862   4.369  14.322  0.00  0.00    +0.000 A 
BRANCH  23  26
ATOM     26  O   UNL     1      48.315   4.669  17.651  0.00  0.00    +0.000 OA
BRANCH  26  27
ATOM     27  C   UNL     1      49.620   4.314  17.968  0.00  0.00    +0.000 A 
ATOM     28  C   UNL     1      50.208   4.949  19.052  0.00  0.00    +0.000 A 
ATOM     29  N   UNL     1      51.457   4.644  19.487  0.00  0.00    +0.000 NA
ATOM     30  C   UNL     1      52.093   3.681  18.781  0.00  0.00    +0.000 A 
ATOM     31  C   UNL     1      51.520   3.067  17.679  0.00  0.00    +0.000 A 
ATOM     32  N   UNL     1      50.280   3.379  17.241  0.00  0.00    +0.000 NA
ENDBRANCH  26  27
ENDBRANCH  23  26
ENDBRANCH  19  20
ENDBRANCH   3  19
TORSDOF 8
ENDMDL
MODEL 3
REMARK VINA RESULT:    -6.525      2.777      4.206
REMARK INTER + INTRA:         -10.541
REMARK INTER:                  -9.170
REMARK INTRA:                  -1.370
REMARK UNBOUND:                -1.154
REMARK  Name = 
REMARK  8 active torsions:
REMARK  status: ('A' for Active; 'I' for Inactive)
REMARK    1  A    between atoms: C_2  and  C_3
REMARK    2  A    between atoms: N_13  and  C_14
REMARK    3  A    between atoms: N_13  and  C_17
REMARK    4  A    between atoms: C_14  and  C_15
REMARK    5  A    between atoms: C_15  and  O_16
REMARK    6  A    between atoms: C_17  and  C_18
REMARK    7  A    between atoms: C_21  and  O_22
REMARK    8  A    between atoms: O_22  and  C_23
REMARK                            x       y       z     vdW  Elec       q    Type
REMARK                         _______ _______ _______ _____ _____    ______ ____
ROOT
ATOM      1  O   UNL     1      51.038   7.613  14.831  0.00  0.00    +0.000 OA
ATOM      2  C   UNL     1      49.823   7.787  14.873  0.00  0.00    +0.000 C 
ATOM      3  N   UNL     1      49.023   7.692  13.716  0.00  0.00    +0.000 N 
ENDROOT
BRANCH   2   4
ATOM      4  C   UNL     1      49.206   8.071  16.188  0.00  0.00    +0.000 A 
ATOM      5  C   UNL     1      49.224   9.291  16.847  0.00  0.00    +0.000 A 
ATOM      6  S   UNL     1      48.390   9.286  18.337  0.00  0.00    +0.000 S 
ATOM      7  C   UNL     1      48.103   7.616  18.230  0.00  0.00    +0.000 A 
ATOM      8  N   UNL     1      47.458   6.959  19.230  0.00  0.00    +0.000 NA
ATOM      9  C   UNL     1      47.349   5.685  19.040  0.00  0.00    +0.000 A 
ATOM     10  N   UNL     1      47.824   5.016  17.942  0.00  0.00    +0.000 N 
ATOM     11  C   UNL     1      48.443   5.643  16.883  0.00  0.00    +0.000 A 
ATOM     12  O   UNL     1      48.786   5.006  15.893  0.00  0.00    +0.000 OA
ATOM     13  C   UNL     1      48.605   7.078  17.058  0.00  0.00    +0.000 A 
ATOM     14  H   UNL     1      47.701   4.019  17.850  0.00  0.00    +0.000 HD
ENDBRANCH   2   4
BRANCH   3  15
ATOM     15  C   UNL     1      49.568   7.211  12.423  0.00  0.00    +0.000 C 
BRANCH  15  16
ATOM     16  C   UNL     1      50.505   8.085  11.582  0.00  0.00    +0.000 C 
BRANCH  16  17
ATOM     17  O   UNL     1      51.871   7.865  11.920  0.00  0.00    +0.000 OA
ATOM     18  H   UNL     1      52.314   8.733  11.770  0.00  0.00    +0.000 HD
ENDBRANCH  16  17
ENDBRANCH  15  16
ENDBRANCH   3  15
BRANCH   3  19
ATOM     19  C   UNL     1      47.609   8.075  13.732  0.00  0.00    +0.000 C 
BRANCH  19  20
ATOM     20  C   UNL     1      46.611   7.248  12.958  0.00  0.00    +0.000 A 
ATOM     21  C   UNL     1      45.772   7.852  12.017  0.00  0.00    +0.000 A 
ATOM     22  C   UNL     1      44.944   7.069  11.212  0.00  0.00    +0.000 A 
ATOM     23  C   UNL     1      44.978   5.675  11.313  0.00  0.00    +0.000 A 
ATOM     24  C   UNL     1      45.747   5.070  12.304  0.00  0.00    +0.000 A 
ATOM     25  C   UNL     1      46.562   5.853  13.124  0.00  0.00    +0.000 A 
BRANCH  23  26
ATOM     26  O   UNL     1      44.240   4.842  10.503  0.00  0.00    +0.000 OA
BRANCH  26  27
ATOM     27  C   UNL     1      44.928   4.075   9.570  0.00  0.00    +0.000 A 
ATOM     28  C   UNL     1      44.876   2.697   9.715  0.00  0.00    +0.000 A 
ATOM     29  N   UNL     1      45.463   1.848   8.834  0.00  0.00    +0.000 NA
ATOM     30  C   UNL     1      46.111   2.443   7.806  0.00  0.00    +0.000 A 
ATOM     31  C   UNL     1      46.191   3.820   7.676  0.00  0.00    +0.000 A 
ATOM     32  N   UNL     1      45.616   4.664   8.560  0.00  0.00    +0.000 NA
ENDBRANCH  26  27
ENDBRANCH  23  26
ENDBRANCH  19  20
ENDBRANCH   3  19
TORSDOF 8
ENDMDL
MODEL 4
REMARK VINA RESULT:    -6.494      3.670      5.782
REMARK INTER + INTRA:         -10.495
REMARK INTER:                  -9.090
REMARK INTRA:                  -1.405
REMARK UNBOUND:                -1.154
REMARK  Name = 
REMARK  8 active torsions:
REMARK  status: ('A' for Active; 'I' for Inactive)
REMARK    1  A    between atoms: C_2  and  C_3
REMARK    2  A    between atoms: N_13  and  C_14
REMARK    3  A    between atoms: N_13  and  C_17
REMARK    4  A    between atoms: C_14  and  C_15
REMARK    5  A    between atoms: C_15  and  O_16
REMARK    6  A    between atoms: C_17  and  C_18
REMARK    7  A    between atoms: C_21  and  O_22
REMARK    8  A    between atoms: O_22  and  C_23
REMARK                            x       y       z     vdW  Elec       q    Type
REMARK                         _______ _______ _______ _____ _____    ______ ____
ROOT
ATOM      1  O   UNL     1      48.814   7.340  18.322  0.00  0.00    +0.000 OA
ATOM      2  C   UNL     1      48.921   6.725  17.265  0.00  0.00    +0.000 C 
ATOM      3  N   UNL     1      49.274   7.375  16.064  0.00  0.00    +0.000 N 
ENDROOT
BRANCH   2   4
ATOM      4  C   UNL     1      48.698   5.262  17.285  0.00  0.00    +0.000 A 
ATOM      5  C   UNL     1      47.469   4.629  17.380  0.00  0.00    +0.000 A 
ATOM      6  S   UNL     1      47.562   2.924  17.347  0.00  0.00    +0.000 S 
ATOM      7  C   UNL     1      49.259   2.965  17.356  0.00  0.00    +0.000 A 
ATOM      8  N   UNL     1      49.980   1.813  17.379  0.00  0.00    +0.000 NA
ATOM      9  C   UNL     1      51.259   1.991  17.431  0.00  0.00    +0.000 A 
ATOM     10  N   UNL     1      51.876   3.215  17.459  0.00  0.00    +0.000 N 
ATOM     11  C   UNL     1      51.193   4.409  17.391  0.00  0.00    +0.000 A 
ATOM     12  O   UNL     1      51.798   5.474  17.349  0.00  0.00    +0.000 OA
ATOM     13  C   UNL     1      49.746   4.261  17.349  0.00  0.00    +0.000 A 
ATOM     14  H   UNL     1      52.882   3.287  17.493  0.00  0.00    +0.000 HD
ENDBRANCH   2   4
BRANCH   3  15
ATOM     15  C   UNL     1      49.703   8.796  16.040  0.00  0.00    +0.000 C 
BRANCH  15  16
ATOM     16  C   UNL     1      48.679   9.934  15.969  0.00  0.00    +0.000 C 
BRANCH  16  17
ATOM     17  O   UNL     1      47.405   9.522  16.452  0.00  0.00    +0.000 OA
ATOM     18  H   UNL     1      47.500   9.496  17.433  0.00  0.00    +0.000 HD
ENDBRANCH  16  17
ENDBRANCH  15  16
ENDBRANCH   3  15
BRANCH   3  19
ATOM     19  C   UNL     1      49.226   6.680  14.776  0.00  0.00    +0.000 C 
BRANCH  19  20
ATOM     20  C   UNL     1      47.904   6.541  14.061  0.00  0.00    +0.000 A 
ATOM     21  C   UNL     1      47.377   7.614  13.335  0.00  0.00    +0.000 A 
ATOM     22  C   UNL     1      46.224   7.443  12.570  0.00  0.00    +0.000 A 
ATOM     23  C   UNL     1      45.610   6.190  12.492  0.00  0.00    +0.000 A 
ATOM     24  C   UNL     1      46.078   5.138  13.277  0.00  0.00    +0.000 A 
ATOM     25  C   UNL     1      47.221   5.313  14.059  0.00  0.00    +0.000 A 
BRANCH  23  26
ATOM     26  O   UNL     1      44.512   5.936  11.702  0.00  0.00    +0.000 OA
BRANCH  26  27
ATOM     27  C   UNL     1      44.642   4.975  10.706  0.00  0.00    +0.000 A 
ATOM     28  C   UNL     1      43.887   3.818  10.834  0.00  0.00    +0.000 A 
ATOM     29  N   UNL     1      43.892   2.837   9.897  0.00  0.00    +0.000 NA
ATOM     30  C   UNL     1      44.694   3.063   8.831  0.00  0.00    +0.000 A 
ATOM     31  C   UNL     1      45.472   4.203   8.716  0.00  0.00    +0.000 A 
ATOM     32  N   UNL     1      45.475   5.174   9.655  0.00  0.00    +0.000 NA
ENDBRANCH  26  27
ENDBRANCH  23  26
ENDBRANCH  19  20
ENDBRANCH   3  19
TORSDOF 8
ENDMDL
MODEL 5
REMARK VINA RESULT:    -6.281      4.752      6.542
REMARK INTER + INTRA:         -10.189
REMARK INTER:                  -8.938
REMARK INTRA:                  -1.251
REMARK UNBOUND:                -1.154
REMARK  Name = 
REMARK  8 active torsions:
REMARK  status: ('A' for Active; 'I' for Inactive)
REMARK    1  A    between atoms: C_2  and  C_3
REMARK    2  A    between atoms: N_13  and  C_14
REMARK    3  A    between atoms: N_13  and  C_17
REMARK    4  A    between atoms: C_14  and  C_15
REMARK    5  A    between atoms: C_15  and  O_16
REMARK    6  A    between atoms: C_17  and  C_18
REMARK    7  A    between atoms: C_21  and  O_22
REMARK    8  A    between atoms: O_22  and  C_23
REMARK                            x       y       z     vdW  Elec       q    Type
REMARK                         _______ _______ _______ _____ _____    ______ ____
ROOT
ATOM      1  O   UNL     1      51.418   5.113  19.642  0.00  0.00    +0.000 OA
ATOM      2  C   UNL     1      50.228   4.963  19.376  0.00  0.00    +0.000 C 
ATOM      3  N   UNL     1      49.812   4.248  18.234  0.00  0.00    +0.000 N 
ENDROOT
BRANCH   2   4
ATOM      4  C   UNL     1      49.230   5.531  20.308  0.00  0.00    +0.000 A 
ATOM      5  C   UNL     1      48.564   4.837  21.308  0.00  0.00    +0.000 A 
ATOM      6  S   UNL     1      47.496   5.800  22.227  0.00  0.00    +0.000 S 
ATOM      7  C   UNL     1      47.767   7.146  21.229  0.00  0.00    +0.000 A 
ATOM      8  N   UNL     1      47.108   8.314  21.447  0.00  0.00    +0.000 NA
ATOM      9  C   UNL     1      47.375   9.240  20.585  0.00  0.00    +0.000 A 
ATOM     10  N   UNL     1      48.240   9.100  19.532  0.00  0.00    +0.000 N 
ATOM     11  C   UNL     1      48.966   7.953  19.296  0.00  0.00    +0.000 A 
ATOM     12  O   UNL     1      49.779   7.906  18.380  0.00  0.00    +0.000 OA
ATOM     13  C   UNL     1      48.687   6.874  20.231  0.00  0.00    +0.000 A 
ATOM     14  H   UNL     1      48.411   9.865  18.896  0.00  0.00    +0.000 HD
ENDBRANCH   2   4
BRANCH   3  15
ATOM     15  C   UNL     1      50.770   3.493  17.389  0.00  0.00    +0.000 C 
BRANCH  15  16
ATOM     16  C   UNL     1      50.677   1.969  17.251  0.00  0.00    +0.000 C 
BRANCH  16  17
ATOM     17  O   UNL     1      50.050   1.592  16.030  0.00  0.00    +0.000 OA
ATOM     18  H   UNL     1      49.088   1.547  16.240  0.00  0.00    +0.000 HD
ENDBRANCH  16  17
ENDBRANCH  15  16
ENDBRANCH   3  15
BRANCH   3  19
ATOM     19  C   UNL     1      48.407   4.223  17.819  0.00  0.00    +0.000 C 
BRANCH  19  20
ATOM     20  C   UNL     1      48.050   4.593  16.399  0.00  0.00    +0.000 A 
ATOM     21  C   UNL     1      47.350   3.694  15.590  0.00  0.00    +0.000 A 
ATOM     22  C   UNL     1      46.909   4.086  14.327  0.00  0.00    +0.000 A 
ATOM     23  C   UNL     1      47.127   5.391  13.878  0.00  0.00    +0.000 A 
ATOM     24  C   UNL     1      47.895   6.268  14.641  0.00  0.00    +0.000 A 
ATOM     25  C   UNL     1      48.356   5.870  15.898  0.00  0.00    +0.000 A 
BRANCH  23  26
ATOM     26  O   UNL     1      46.658   5.864  12.673  0.00  0.00    +0.000 OA
BRANCH  26  27
ATOM     27  C   UNL     1      45.349   5.552  12.324  0.00  0.00    +0.000 A 
ATOM     28  C   UNL     1      45.132   5.052  11.048  0.00  0.00    +0.000 A 
ATOM     29  N   UNL     1      43.906   4.663  10.616  0.00  0.00    +0.000 NA
ATOM     30  C   UNL     1      42.907   4.805  11.517  0.00  0.00    +0.000 A 
ATOM     31  C   UNL     1      43.116   5.333  12.780  0.00  0.00    +0.000 A 
ATOM     32  N   UNL     1      44.335   5.731  13.205  0.00  0.00    +0.000 NA
ENDBRANCH  26  27
ENDBRANCH  23  26
ENDBRANCH  19  20
ENDBRANCH   3  19
TORSDOF 8
ENDMDL
MODEL 6
REMARK VINA RESULT:    -6.174      3.621      6.407
REMARK INTER + INTRA:         -10.035
REMARK INTER:                  -8.560
REMARK INTRA:                  -1.475
REMARK UNBOUND:                -1.154
REMARK  Name = 
REMARK  8 active torsions:
REMARK  status: ('A' for Active; 'I' for Inactive)
REMARK    1  A    between atoms: C_2  and  C_3
REMARK    2  A    between atoms: N_13  and  C_14
REMARK    3  A    between atoms: N_13  and  C_17
REMARK    4  A    between atoms: C_14  and  C_15
REMARK    5  A    between atoms: C_15  and  O_16
REMARK    6  A    between atoms: C_17  and  C_18
REMARK    7  A    between atoms: C_21  and  O_22
REMARK    8  A    between atoms: O_22  and  C_23
REMARK                            x       y       z     vdW  Elec       q    Type
REMARK                         _______ _______ _______ _____ _____    ______ ____
ROOT
ATOM      1  O   UNL     1      48.143   7.118  19.249  0.00  0.00    +0.000 OA
ATOM      2  C   UNL     1      48.774   7.112  18.196  0.00  0.00    +0.000 C 
ATOM      3  N   UNL     1      48.624   8.137  17.240  0.00  0.00    +0.000 N 
ENDROOT
BRANCH   2   4
ATOM      4  C   UNL     1      49.730   6.006  17.964  0.00  0.00    +0.000 A 
ATOM      5  C   UNL     1      51.112   6.100  18.028  0.00  0.00    +0.000 A 
ATOM      6  S   UNL     1      51.922   4.626  17.736  0.00  0.00    +0.000 S 
ATOM      7  C   UNL     1      50.464   3.839  17.365  0.00  0.00    +0.000 A 
ATOM      8  N   UNL     1      50.458   2.536  16.981  0.00  0.00    +0.000 NA
ATOM      9  C   UNL     1      49.287   2.077  16.685  0.00  0.00    +0.000 A 
ATOM     10  N   UNL     1      48.127   2.804  16.741  0.00  0.00    +0.000 N 
ATOM     11  C   UNL     1      48.074   4.113  17.169  0.00  0.00    +0.000 A 
ATOM     12  O   UNL     1      47.000   4.695  17.267  0.00  0.00    +0.000 OA
ATOM     13  C   UNL     1      49.372   4.681  17.497  0.00  0.00    +0.000 A 
ATOM     14  H   UNL     1      47.241   2.386  16.503  0.00  0.00    +0.000 HD
ENDBRANCH   2   4
BRANCH   3  15
ATOM     15  C   UNL     1      47.835   9.362  17.520  0.00  0.00    +0.000 C 
BRANCH  15  16
ATOM     16  C   UNL     1      48.493  10.747  17.525  0.00  0.00    +0.000 C 
BRANCH  16  17
ATOM     17  O   UNL     1      48.304  11.420  16.286  0.00  0.00    +0.000 OA
ATOM     18  H   UNL     1      48.422  10.725  15.597  0.00  0.00    +0.000 HD
ENDBRANCH  16  17
ENDBRANCH  15  16
ENDBRANCH   3  15
BRANCH   3  19
ATOM     19  C   UNL     1      49.236   8.038  15.912  0.00  0.00    +0.000 C 
BRANCH  19  20
ATOM     20  C   UNL     1      48.373   7.683  14.726  0.00  0.00    +0.000 A 
ATOM     21  C   UNL     1      48.286   6.358  14.288  0.00  0.00    +0.000 A 
ATOM     22  C   UNL     1      47.389   6.013  13.277  0.00  0.00    +0.000 A 
ATOM     23  C   UNL     1      46.544   6.979  12.724  0.00  0.00    +0.000 A 
ATOM     24  C   UNL     1      46.682   8.315  13.095  0.00  0.00    +0.000 A 
ATOM     25  C   UNL     1      47.594   8.666  14.093  0.00  0.00    +0.000 A 
BRANCH  23  26
ATOM     26  O   UNL     1      45.590   6.692  11.775  0.00  0.00    +0.000 OA
BRANCH  26  27
ATOM     27  C   UNL     1      44.831   5.541  11.950  0.00  0.00    +0.000 A 
ATOM     28  C   UNL     1      44.982   4.530  11.011  0.00  0.00    +0.000 A 
ATOM     29  N   UNL     1      44.335   3.341  11.109  0.00  0.00    +0.000 NA
ATOM     30  C   UNL     1      43.524   3.215  12.185  0.00  0.00    +0.000 A 
ATOM     31  C   UNL     1      43.348   4.234  13.106  0.00  0.00    +0.000 A 
ATOM     32  N   UNL     1      43.984   5.421  13.001  0.00  0.00    +0.000 NA
ENDBRANCH  26  27
ENDBRANCH  23  26
ENDBRANCH  19  20
ENDBRANCH   3  19
TORSDOF 8
ENDMDL
MODEL 7
REMARK VINA RESULT:    -6.122      1.382      2.030
REMARK INTER + INTRA:          -9.960
REMARK INTER:                  -8.757
REMARK INTRA:                  -1.204
REMARK UNBOUND:                -1.154
REMARK  Name = 
REMARK  8 active torsions:
REMARK  status: ('A' for Active; 'I' for Inactive)
REMARK    1  A    between atoms: C_2  and  C_3
REMARK    2  A    between atoms: N_13  and  C_14
REMARK    3  A    between atoms: N_13  and  C_17
REMARK    4  A    between atoms: C_14  and  C_15
REMARK    5  A    between atoms: C_15  and  O_16
REMARK    6  A    between atoms: C_17  and  C_18
REMARK    7  A    between atoms: C_21  and  O_22
REMARK    8  A    between atoms: O_22  and  C_23
REMARK                            x       y       z     vdW  Elec       q    Type
REMARK                         _______ _______ _______ _____ _____    ______ ____
ROOT
ATOM      1  O   UNL     1      49.284   6.164  15.234  0.00  0.00    +0.000 OA
ATOM      2  C   UNL     1      48.467   6.853  14.629  0.00  0.00    +0.000 C 
ATOM      3  N   UNL     1      47.254   6.312  14.153  0.00  0.00    +0.000 N 
ENDROOT
BRANCH   2   4
ATOM      4  C   UNL     1      48.774   8.287  14.435  0.00  0.00    +0.000 A 
ATOM      5  C   UNL     1      48.381   9.322  15.269  0.00  0.00    +0.000 A 
ATOM      6  S   UNL     1      48.929  10.860  14.771  0.00  0.00    +0.000 S 
ATOM      7  C   UNL     1      49.585  10.221  13.341  0.00  0.00    +0.000 A 
ATOM      8  N   UNL     1      50.177  11.034  12.427  0.00  0.00    +0.000 NA
ATOM      9  C   UNL     1      50.590  10.422  11.366  0.00  0.00    +0.000 A 
ATOM     10  N   UNL     1      50.465   9.076  11.143  0.00  0.00    +0.000 N 
ATOM     11  C   UNL     1      49.915   8.205  12.058  0.00  0.00    +0.000 A 
ATOM     12  O   UNL     1      49.892   6.999  11.837  0.00  0.00    +0.000 OA
ATOM     13  C   UNL     1      49.419   8.849  13.263  0.00  0.00    +0.000 A 
ATOM     14  H   UNL     1      50.815   8.657  10.295  0.00  0.00    +0.000 HD
ENDBRANCH   2   4
BRANCH   3  15
ATOM     15  C   UNL     1      46.818   4.938  14.503  0.00  0.00    +0.000 C 
BRANCH  15  16
ATOM     16  C   UNL     1      47.245   3.731  13.660  0.00  0.00    +0.000 C 
BRANCH  16  17
ATOM     17  O   UNL     1      46.122   2.973  13.224  0.00  0.00    +0.000 OA
ATOM     18  H   UNL     1      46.012   3.204  12.272  0.00  0.00    +0.000 HD
ENDBRANCH  16  17
ENDBRANCH  15  16
ENDBRANCH   3  15
BRANCH   3  19
ATOM     19  C   UNL     1      46.366   7.082  13.279  0.00  0.00    +0.000 C 
BRANCH  19  20
ATOM     20  C   UNL     1      45.801   6.429  12.041  0.00  0.00    +0.000 A 
ATOM     21  C   UNL     1      46.543   6.399  10.857  0.00  0.00    +0.000 A 
ATOM     22  C   UNL     1      46.075   5.683   9.755  0.00  0.00    +0.000 A 
ATOM     23  C   UNL     1      44.883   4.959   9.841  0.00  0.00    +0.000 A 
ATOM     24  C   UNL     1      44.096   5.051  10.986  0.00  0.00    +0.000 A 
ATOM     25  C   UNL     1      44.553   5.784  12.084  0.00  0.00    +0.000 A 
BRANCH  23  26
ATOM     26  O   UNL     1      44.400   4.177   8.816  0.00  0.00    +0.000 OA
BRANCH  26  27
ATOM     27  C   UNL     1      45.290   3.311   8.191  0.00  0.00    +0.000 A 
ATOM     28  C   UNL     1      45.448   2.050   8.746  0.00  0.00    +0.000 A 
ATOM     29  N   UNL     1      46.248   1.104   8.191  0.00  0.00    +0.000 NA
ATOM     30  C   UNL     1      46.888   1.483   7.061  0.00  0.00    +0.000 A 
ATOM     31  C   UNL     1      46.755   2.751   6.523  0.00  0.00    +0.000 A 
ATOM     32  N   UNL     1      45.968   3.696   7.082  0.00  0.00    +0.000 NA
ENDBRANCH  26  27
ENDBRANCH  23  26
ENDBRANCH  19  20
ENDBRANCH   3  19
TORSDOF 8
ENDMDL
MODEL 8
REMARK VINA RESULT:    -6.016      2.964      3.858
REMARK INTER + INTRA:          -9.809
REMARK INTER:                  -8.641
REMARK INTRA:                  -1.167
REMARK UNBOUND:                -1.154
REMARK  Name = 
REMARK  8 active torsions:
REMARK  status: ('A' for Active; 'I' for Inactive)
REMARK    1  A    between atoms: C_2  and  C_3
REMARK    2  A    between atoms: N_13  and  C_14
REMARK    3  A    between atoms: N_13  and  C_17
REMARK    4  A    between atoms: C_14  and  C_15
REMARK    5  A    between atoms: C_15  and  O_16
REMARK    6  A    between atoms: C_17  and  C_18
REMARK    7  A    between atoms: C_21  and  O_22
REMARK    8  A    between atoms: O_22  and  C_23
REMARK                            x       y       z     vdW  Elec       q    Type
REMARK                         _______ _______ _______ _____ _____    ______ ____
ROOT
ATOM      1  O   UNL     1      48.639   7.169  18.467  0.00  0.00    +0.000 OA
ATOM      2  C   UNL     1      48.706   6.876  17.277  0.00  0.00    +0.000 C 
ATOM      3  N   UNL     1      48.163   5.672  16.782  0.00  0.00    +0.000 N 
ENDROOT
BRANCH   2   4
ATOM      4  C   UNL     1      49.349   7.840  16.357  0.00  0.00    +0.000 A 
ATOM      5  C   UNL     1      48.725   8.911  15.737  0.00  0.00    +0.000 A 
ATOM      6  S   UNL     1      49.765   9.848  14.759  0.00  0.00    +0.000 S 
ATOM      7  C   UNL     1      51.054   8.770  15.007  0.00  0.00    +0.000 A 
ATOM      8  N   UNL     1      52.252   8.972  14.399  0.00  0.00    +0.000 NA
ATOM      9  C   UNL     1      53.128   8.052  14.638  0.00  0.00    +0.000 A 
ATOM     10  N   UNL     1      52.910   6.955  15.430  0.00  0.00    +0.000 N 
ATOM     11  C   UNL     1      51.729   6.730  16.104  0.00  0.00    +0.000 A 
ATOM     12  O   UNL     1      51.612   5.769  16.855  0.00  0.00    +0.000 OA
ATOM     13  C   UNL     1      50.705   7.731  15.853  0.00  0.00    +0.000 A 
ATOM     14  H   UNL     1      53.638   6.274  15.583  0.00  0.00    +0.000 HD
ENDBRANCH   2   4
BRANCH   3  15
ATOM     15  C   UNL     1      47.335   4.778  17.629  0.00  0.00    +0.000 C 
BRANCH  15  16
ATOM     16  C   UNL     1      47.633   3.278  17.729  0.00  0.00    +0.000 C 
BRANCH  16  17
ATOM     17  O   UNL     1      46.437   2.510  17.795  0.00  0.00    +0.000 OA
ATOM     18  H   UNL     1      45.866   2.863  17.073  0.00  0.00    +0.000 HD
ENDBRANCH  16  17
ENDBRANCH  15  16
ENDBRANCH   3  15
BRANCH   3  19
ATOM     19  C   UNL     1      48.400   5.237  15.403  0.00  0.00    +0.000 C 
BRANCH  19  20
ATOM     20  C   UNL     1      47.310   5.419  14.374  0.00  0.00    +0.000 A 
ATOM     21  C   UNL     1      47.339   6.510  13.500  0.00  0.00    +0.000 A 
ATOM     22  C   UNL     1      46.406   6.605  12.468  0.00  0.00    +0.000 A 
ATOM     23  C   UNL     1      45.463   5.592  12.276  0.00  0.00    +0.000 A 
ATOM     24  C   UNL     1      45.373   4.545  13.191  0.00  0.00    +0.000 A 
ATOM     25  C   UNL     1      46.294   4.459  14.237  0.00  0.00    +0.000 A 
BRANCH  23  26
ATOM     26  O   UNL     1      44.560   5.589  11.237  0.00  0.00    +0.000 OA
BRANCH  26  27
ATOM     27  C   UNL     1      44.765   4.679  10.207  0.00  0.00    +0.000 A 
ATOM     28  C   UNL     1      45.580   5.077   9.157  0.00  0.00    +0.000 A 
ATOM     29  N   UNL     1      45.895   4.254   8.125  0.00  0.00    +0.000 NA
ATOM     30  C   UNL     1      45.349   3.018   8.188  0.00  0.00    +0.000 A 
ATOM     31  C   UNL     1      44.510   2.629   9.218  0.00  0.00    +0.000 A 
ATOM     32  N   UNL     1      44.188   3.452  10.240  0.00  0.00    +0.000 NA
ENDBRANCH  26  27
ENDBRANCH  23  26
ENDBRANCH  19  20
ENDBRANCH   3  19
TORSDOF 8
ENDMDL
MODEL 9
REMARK VINA RESULT:    -5.949      2.949      4.107
REMARK INTER + INTRA:          -9.711
REMARK INTER:                  -8.356
REMARK INTRA:                  -1.355
REMARK UNBOUND:                -1.154
REMARK  Name = 
REMARK  8 active torsions:
REMARK  status: ('A' for Active; 'I' for Inactive)
REMARK    1  A    between atoms: C_2  and  C_3
REMARK    2  A    between atoms: N_13  and  C_14
REMARK    3  A    between atoms: N_13  and  C_17
REMARK    4  A    between atoms: C_14  and  C_15
REMARK    5  A    between atoms: C_15  and  O_16
REMARK    6  A    between atoms: C_17  and  C_18
REMARK    7  A    between atoms: C_21  and  O_22
REMARK    8  A    between atoms: O_22  and  C_23
REMARK                            x       y       z     vdW  Elec       q    Type
REMARK                         _______ _______ _______ _____ _____    ______ ____
ROOT
ATOM      1  O   UNL     1      50.769   7.754  15.177  0.00  0.00    +0.000 OA
ATOM      2  C   UNL     1      49.565   7.523  15.115  0.00  0.00    +0.000 C 
ATOM      3  N   UNL     1      48.783   7.969  14.030  0.00  0.00    +0.000 N 
ENDROOT
BRANCH   2   4
ATOM      4  C   UNL     1      48.952   6.729  16.203  0.00  0.00    +0.000 A 
ATOM      5  C   UNL     1      48.544   5.406  16.113  0.00  0.00    +0.000 A 
ATOM      6  S   UNL     1      47.902   4.779  17.565  0.00  0.00    +0.000 S 
ATOM      7  C   UNL     1      48.004   6.293  18.326  0.00  0.00    +0.000 A 
ATOM      8  N   UNL     1      47.564   6.459  19.601  0.00  0.00    +0.000 NA
ATOM      9  C   UNL     1      47.659   7.671  20.039  0.00  0.00    +0.000 A 
ATOM     10  N   UNL     1      48.154   8.726  19.317  0.00  0.00    +0.000 N 
ATOM     11  C   UNL     1      48.654   8.599  18.039  0.00  0.00    +0.000 A 
ATOM     12  O   UNL     1      49.150   9.562  17.465  0.00  0.00    +0.000 OA
ATOM     13  C   UNL     1      48.554   7.255  17.495  0.00  0.00    +0.000 A 
ATOM     14  H   UNL     1      48.208   9.649  19.719  0.00  0.00    +0.000 HD
ENDBRANCH   2   4
BRANCH   3  15
ATOM     15  C   UNL     1      49.391   8.588  12.827  0.00  0.00    +0.000 C 
BRANCH  15  16
ATOM     16  C   UNL     1      50.153   7.743  11.799  0.00  0.00    +0.000 C 
BRANCH  16  17
ATOM     17  O   UNL     1      51.538   7.656  12.116  0.00  0.00    +0.000 OA
ATOM     18  H   UNL     1      51.926   8.505  11.799  0.00  0.00    +0.000 HD
ENDBRANCH  16  17
ENDBRANCH  15  16
ENDBRANCH   3  15
BRANCH   3  19
ATOM     19  C   UNL     1      47.322   7.853  14.043  0.00  0.00    +0.000 C 
BRANCH  19  20
ATOM     20  C   UNL     1      46.639   7.018  12.987  0.00  0.00    +0.000 A 
ATOM     21  C   UNL     1      46.697   5.622  13.043  0.00  0.00    +0.000 A 
ATOM     22  C   UNL     1      45.959   4.854  12.144  0.00  0.00    +0.000 A 
ATOM     23  C   UNL     1      45.125   5.472  11.209  0.00  0.00    +0.000 A 
ATOM     24  C   UNL     1      45.124   6.860  11.090  0.00  0.00    +0.000 A 
ATOM     25  C   UNL     1      45.879   7.631  11.976  0.00  0.00    +0.000 A 
BRANCH  23  26
ATOM     26  O   UNL     1      44.317   4.774  10.340  0.00  0.00    +0.000 OA
BRANCH  26  27
ATOM     27  C   UNL     1      44.934   3.949   9.407  0.00  0.00    +0.000 A 
ATOM     28  C   UNL     1      44.861   2.580   9.619  0.00  0.00    +0.000 A 
ATOM     29  N   UNL     1      45.380   1.678   8.747  0.00  0.00    +0.000 NA
ATOM     30  C   UNL     1      45.981   2.211   7.659  0.00  0.00    +0.000 A 
ATOM     31  C   UNL     1      46.082   3.578   7.460  0.00  0.00    +0.000 A 
ATOM     32  N   UNL     1      45.576   4.475   8.335  0.00  0.00    +0.000 NA
ENDBRANCH  26  27
ENDBRANCH  23  26
ENDBRANCH  19  20
ENDBRANCH   3  19
TORSDOF 8
ENDMDL
