MODEL 1
REMARK VINA RESULT:    -7.416      0.000      0.000
REMARK INTER + INTRA:         -11.994
REMARK INTER:                 -10.884
REMARK INTRA:                  -1.109
REMARK UNBOUND:                -1.109
REMARK  Name = 
REMARK  9 active torsions:
REMARK  status: ('A' for Active; 'I' for Inactive)
REMARK    1  A    between atoms: C_1  and  C_2
REMARK    2  A    between atoms: C_2  and  N_3
REMARK    3  A    between atoms: C_2  and  C_11
REMARK    4  A    between atoms: N_3  and  C_4
REMARK    5  A    between atoms: C_4  and  C_5
REMARK    6  A    between atoms: C_14  and  C_15
REMARK    7  A    between atoms: C_15  and  O_16
REMARK    8  A    between atoms: O_16  and  C_17
REMARK    9  A    between atoms: C_17  and  C_18
REMARK                            x       y       z     vdW  Elec       q    Type
REMARK                         _______ _______ _______ _____ _____    ______ ____
ROOT
ATOM      1  C   UNL     1      44.804   4.817  11.447  0.00  0.00    +0.000 A 
ATOM      2  C   UNL     1      45.044   4.576  12.810  0.00  0.00    +0.000 A 
ATOM      3  C   UNL     1      46.056   5.264  13.493  0.00  0.00    +0.000 A 
ATOM      4  C   UNL     1      46.851   6.210  12.832  0.00  0.00    +0.000 A 
ATOM      5  C   UNL     1      46.610   6.458  11.477  0.00  0.00    +0.000 A 
ATOM      6  C   UNL     1      45.592   5.782  10.800  0.00  0.00    +0.000 A 
ENDROOT
BRANCH   1   8
ATOM      7  C   UNL     1      43.230   2.836  11.516  0.00  0.00    +0.000 C 
ATOM      8  C   UNL     1      43.694   4.066  10.716  0.00  0.00    +0.000 C 
BRANCH   8   9
ATOM      9  N   UNL     1      44.151   3.729   9.356  0.00  0.00    +0.000 NA
ATOM     10  H   UNL     1      43.333   3.719   8.745  0.00  0.00    +0.000 HD
BRANCH   9  11
ATOM     11  C   UNL     1      44.809   2.425   9.269  0.00  0.00    +0.000 C 
BRANCH  11  12
ATOM     12  C   UNL     1      45.771   2.345   8.113  0.00  0.00    +0.000 A 
ATOM     13  C   UNL     1      45.970   3.423   7.243  0.00  0.00    +0.000 A 
ATOM     14  C   UNL     1      46.928   3.340   6.237  0.00  0.00    +0.000 A 
ATOM     15  C   UNL     1      47.665   2.174   6.130  0.00  0.00    +0.000 A 
ATOM     16  N   UNL     1      47.504   1.107   6.944  0.00  0.00    +0.000 NA
ATOM     17  C   UNL     1      46.568   1.220   7.914  0.00  0.00    +0.000 A 
ENDBRANCH  11  12
ENDBRANCH   9  11
ENDBRANCH   8   9
ENDBRANCH   1   8
BRANCH   4  18
ATOM     18  C   UNL     1      47.913   6.986  13.564  0.00  0.00    +0.000 C 
BRANCH  18  19
ATOM     19  O   UNL     1      48.696   6.100  14.356  0.00  0.00    +0.000 OA
BRANCH  19  20
ATOM     20  C   UNL     1      48.814   6.576  15.697  0.00  0.00    +0.000 C 
BRANCH  20  21
ATOM     21  C   UNL     1      48.637   5.442  16.673  0.00  0.00    +0.000 A 
ATOM     22  C   UNL     1      47.719   4.420  16.408  0.00  0.00    +0.000 A 
ATOM     23  C   UNL     1      47.608   3.374  17.311  0.00  0.00    +0.000 A 
ATOM     24  N   UNL     1      48.343   3.270  18.438  0.00  0.00    +0.000 NA
ATOM     25  C   UNL     1      49.231   4.260  18.671  0.00  0.00    +0.000 A 
ATOM     26  C   UNL     1      49.417   5.345  17.828  0.00  0.00    +0.000 A 
ENDBRANCH  20  21
ENDBRANCH  19  20
ENDBRANCH  18  19
ENDBRANCH   4  18
TORSDOF 8
ENDMDL
MODEL 2
REMARK VINA RESULT:    -7.227      1.905      8.586
REMARK INTER + INTRA:         -11.717
REMARK INTER:                 -10.546
REMARK INTRA:                  -1.171
REMARK UNBOUND:                -1.109
REMARK  Name = 
REMARK  9 active torsions:
REMARK  status: ('A' for Active; 'I' for Inactive)
REMARK    1  A    between atoms: C_1  and  C_2
REMARK    2  A    between atoms: C_2  and  N_3
REMARK    3  A    between atoms: C_2  and  C_11
REMARK    4  A    between atoms: N_3  and  C_4
REMARK    5  A    between atoms: C_4  and  C_5
REMARK    6  A    between atoms: C_14  and  C_15
REMARK    7  A    between atoms: C_15  and  O_16
REMARK    8  A    between atoms: O_16  and  C_17
REMARK    9  A    between atoms: C_17  and  C_18
REMARK                            x       y       z     vdW  Elec       q    Type
REMARK                         _______ _______ _______ _____ _____    ______ ____
ROOT
ATOM      1  C   UNL     1      46.980   6.142  12.684  0.00  0.00    +0.000 A 
ATOM      2  C   UNL     1      46.433   6.466  11.431  0.00  0.00    +0.000 A 
ATOM      3  C   UNL     1      45.428   5.675  10.860  0.00  0.00    +0.000 A 
ATOM      4  C   UNL     1      44.943   4.542  11.527  0.00  0.00    +0.000 A 
ATOM      5  C   UNL     1      45.479   4.220  12.777  0.00  0.00    +0.000 A 
ATOM      6  C   UNL     1      46.472   5.018  13.353  0.00  0.00    +0.000 A 
ENDROOT
BRANCH   1   8
ATOM      7  C   UNL     1      48.949   7.660  12.212  0.00  0.00    +0.000 C 
ATOM      8  C   UNL     1      48.070   7.016  13.298  0.00  0.00    +0.000 C 
BRANCH   8   9
ATOM      9  N   UNL     1      48.842   6.219  14.267  0.00  0.00    +0.000 NA
ATOM     10  H   UNL     1      48.512   5.255  14.213  0.00  0.00    +0.000 HD
BRANCH   9  11
ATOM     11  C   UNL     1      48.699   6.681  15.648  0.00  0.00    +0.000 C 
BRANCH  11  12
ATOM     12  C   UNL     1      48.617   5.540  16.627  0.00  0.00    +0.000 A 
ATOM     13  C   UNL     1      47.672   4.518  16.491  0.00  0.00    +0.000 A 
ATOM     14  C   UNL     1      47.681   3.437  17.368  0.00  0.00    +0.000 A 
ATOM     15  C   UNL     1      48.643   3.409  18.363  0.00  0.00    +0.000 A 
ATOM     16  N   UNL     1      49.572   4.376  18.534  0.00  0.00    +0.000 NA
ATOM     17  C   UNL     1      49.539   5.411  17.664  0.00  0.00    +0.000 A 
ENDBRANCH  11  12
ENDBRANCH   9  11
ENDBRANCH   8   9
ENDBRANCH   1   8
BRANCH   4  18
ATOM     18  C   UNL     1      43.835   3.707  10.943  0.00  0.00    +0.000 C 
BRANCH  18  19
ATOM     19  O   UNL     1      44.034   3.554   9.542  0.00  0.00    +0.000 OA
BRANCH  19  20
ATOM     20  C   UNL     1      44.478   2.235   9.225  0.00  0.00    +0.000 C 
BRANCH  20  21
ATOM     21  C   UNL     1      45.654   2.289   8.286  0.00  0.00    +0.000 A 
ATOM     22  C   UNL     1      46.049   3.506   7.720  0.00  0.00    +0.000 A 
ATOM     23  C   UNL     1      47.159   3.524   6.888  0.00  0.00    +0.000 A 
ATOM     24  N   UNL     1      47.897   2.435   6.592  0.00  0.00    +0.000 NA
ATOM     25  C   UNL     1      47.507   1.272   7.157  0.00  0.00    +0.000 A 
ATOM     26  C   UNL     1      46.415   1.153   8.004  0.00  0.00    +0.000 A 
ENDBRANCH  20  21
ENDBRANCH  19  20
ENDBRANCH  18  19
ENDBRANCH   4  18
TORSDOF 8
ENDMDL
MODEL 3
REMARK VINA RESULT:    -6.696      2.220      8.808
REMARK INTER + INTRA:         -10.936
REMARK INTER:                 -10.183
REMARK INTRA:                  -0.754
REMARK UNBOUND:                -1.109
REMARK  Name = 
REMARK  9 active torsions:
REMARK  status: ('A' for Active; 'I' for Inactive)
REMARK    1  A    between atoms: C_1  and  C_2
REMARK    2  A    between atoms: C_2  and  N_3
REMARK    3  A    between atoms: C_2  and  C_11
REMARK    4  A    between atoms: N_3  and  C_4
REMARK    5  A    between atoms: C_4  and  C_5
REMARK    6  A    between atoms: C_14  and  C_15
REMARK    7  A    between atoms: C_15  and  O_16
REMARK    8  A    between atoms: O_16  and  C_17
REMARK    9  A    between atoms: C_17  and  C_18
REMARK                            x       y       z     vdW  Elec       q    Type
REMARK                         _______ _______ _______ _____ _____    ______ ____
ROOT
ATOM      1  C   UNL     1      46.889   5.180  14.126  0.00  0.00    +0.000 A 
ATOM      2  C   UNL     1      46.407   6.263  13.374  0.00  0.00    +0.000 A 
ATOM      3  C   UNL     1      45.633   6.051  12.225  0.00  0.00    +0.000 A 
ATOM      4  C   UNL     1      45.320   4.752  11.802  0.00  0.00    +0.000 A 
ATOM      5  C   UNL     1      45.792   3.672  12.553  0.00  0.00    +0.000 A 
ATOM      6  C   UNL     1      46.552   3.884  13.706  0.00  0.00    +0.000 A 
ENDROOT
BRANCH   1   8
ATOM      7  C   UNL     1      48.807   6.491  15.131  0.00  0.00    +0.000 C 
ATOM      8  C   UNL     1      47.726   5.424  15.380  0.00  0.00    +0.000 C 
BRANCH   8   9
ATOM      9  N   UNL     1      48.279   4.143  15.851  0.00  0.00    +0.000 NA
ATOM     10  H   UNL     1      47.559   3.429  15.732  0.00  0.00    +0.000 HD
BRANCH   9  11
ATOM     11  C   UNL     1      48.683   4.164  17.257  0.00  0.00    +0.000 C 
BRANCH  11  12
ATOM     12  C   UNL     1      49.980   3.435  17.491  0.00  0.00    +0.000 A 
ATOM     13  C   UNL     1      50.136   2.084  17.166  0.00  0.00    +0.000 A 
ATOM     14  C   UNL     1      51.374   1.467  17.319  0.00  0.00    +0.000 A 
ATOM     15  C   UNL     1      52.429   2.226  17.795  0.00  0.00    +0.000 A 
ATOM     16  N   UNL     1      52.323   3.532  18.126  0.00  0.00    +0.000 NA
ATOM     17  C   UNL     1      51.108   4.104  17.963  0.00  0.00    +0.000 A 
ENDBRANCH  11  12
ENDBRANCH   9  11
ENDBRANCH   8   9
ENDBRANCH   1   8
BRANCH   4  18
ATOM     18  C   UNL     1      44.455   4.512  10.593  0.00  0.00    +0.000 C 
BRANCH  18  19
ATOM     19  O   UNL     1      45.248   4.575   9.413  0.00  0.00    +0.000 OA
BRANCH  19  20
ATOM     20  C   UNL     1      44.741   3.701   8.405  0.00  0.00    +0.000 C 
BRANCH  20  21
ATOM     21  C   UNL     1      45.852   2.858   7.835  0.00  0.00    +0.000 A 
ATOM     22  C   UNL     1      46.814   3.432   6.997  0.00  0.00    +0.000 A 
ATOM     23  C   UNL     1      47.843   2.633   6.520  0.00  0.00    +0.000 A 
ATOM     24  N   UNL     1      47.985   1.327   6.823  0.00  0.00    +0.000 NA
ATOM     25  C   UNL     1      47.053   0.794   7.642  0.00  0.00    +0.000 A 
ATOM     26  C   UNL     1      45.991   1.510   8.172  0.00  0.00    +0.000 A 
ENDBRANCH  20  21
ENDBRANCH  19  20
ENDBRANCH  18  19
ENDBRANCH   4  18
TORSDOF 8
ENDMDL
MODEL 4
REMARK VINA RESULT:    -6.568      1.824      2.087
REMARK INTER + INTRA:         -10.749
REMARK INTER:                  -9.873
REMARK INTRA:                  -0.877
REMARK UNBOUND:                -1.109
REMARK  Name = 
REMARK  9 active torsions:
REMARK  status: ('A' for Active; 'I' for Inactive)
REMARK    1  A    between atoms: C_1  and  C_2
REMARK    2  A    between atoms: C_2  and  N_3
REMARK    3  A    between atoms: C_2  and  C_11
REMARK    4  A    between atoms: N_3  and  C_4
REMARK    5  A    between atoms: C_4  and  C_5
REMARK    6  A    between atoms: C_14  and  C_15
REMARK    7  A    between atoms: C_15  and  O_16
REMARK    8  A    between atoms: O_16  and  C_17
REMARK    9  A    between atoms: C_17  and  C_18
REMARK                            x       y       z     vdW  Elec       q    Type
REMARK                         _______ _______ _______ _____ _____    ______ ____
ROOT
ATOM      1  C   UNL     1      45.433   4.813  11.866  0.00  0.00    +0.000 A 
ATOM      2  C   UNL     1      45.989   4.110  12.947  0.00  0.00    +0.000 A 
ATOM      3  C   UNL     1      46.931   4.715  13.789  0.00  0.00    +0.000 A 
ATOM      4  C   UNL     1      47.339   6.037  13.573  0.00  0.00    +0.000 A 
ATOM      5  C   UNL     1      46.783   6.744  12.503  0.00  0.00    +0.000 A 
ATOM      6  C   UNL     1      45.833   6.145  11.672  0.00  0.00    +0.000 A 
ENDROOT
BRANCH   1   8
ATOM      7  C   UNL     1      42.989   4.228  11.564  0.00  0.00    +0.000 C 
ATOM      8  C   UNL     1      44.402   4.145  10.960  0.00  0.00    +0.000 C 
BRANCH   8   9
ATOM      9  N   UNL     1      44.827   2.764  10.677  0.00  0.00    +0.000 NA
ATOM     10  H   UNL     1      45.845   2.730  10.746  0.00  0.00    +0.000 HD
BRANCH   9  11
ATOM     11  C   UNL     1      44.437   2.294   9.347  0.00  0.00    +0.000 C 
BRANCH  11  12
ATOM     12  C   UNL     1      45.569   2.372   8.357  0.00  0.00    +0.000 A 
ATOM     13  C   UNL     1      45.932   3.577   7.745  0.00  0.00    +0.000 A 
ATOM     14  C   UNL     1      47.037   3.625   6.900  0.00  0.00    +0.000 A 
ATOM     15  C   UNL     1      47.753   2.459   6.691  0.00  0.00    +0.000 A 
ATOM     16  N   UNL     1      47.437   1.274   7.258  0.00  0.00    +0.000 NA
ATOM     17  C   UNL     1      46.360   1.260   8.077  0.00  0.00    +0.000 A 
ENDBRANCH  11  12
ENDBRANCH   9  11
ENDBRANCH   8   9
ENDBRANCH   1   8
BRANCH   4  18
ATOM     18  C   UNL     1      48.320   6.712  14.495  0.00  0.00    +0.000 C 
BRANCH  18  19
ATOM     19  O   UNL     1      48.694   5.819  15.538  0.00  0.00    +0.000 OA
BRANCH  19  20
ATOM     20  C   UNL     1      49.615   6.434  16.438  0.00  0.00    +0.000 C 
BRANCH  20  21
ATOM     21  C   UNL     1      48.875   7.112  17.562  0.00  0.00    +0.000 A 
ATOM     22  C   UNL     1      48.131   6.356  18.473  0.00  0.00    +0.000 A 
ATOM     23  C   UNL     1      47.492   7.010  19.516  0.00  0.00    +0.000 A 
ATOM     24  N   UNL     1      47.550   8.343  19.718  0.00  0.00    +0.000 NA
ATOM     25  C   UNL     1      48.283   9.054  18.834  0.00  0.00    +0.000 A 
ATOM     26  C   UNL     1      48.959   8.492  17.763  0.00  0.00    +0.000 A 
ENDBRANCH  20  21
ENDBRANCH  19  20
ENDBRANCH  18  19
ENDBRANCH   4  18
TORSDOF 8
ENDMDL
MODEL 5
REMARK VINA RESULT:    -6.453      3.886      7.830
REMARK INTER + INTRA:         -10.581
REMARK INTER:                  -9.372
REMARK INTRA:                  -1.208
REMARK UNBOUND:                -1.109
REMARK  Name = 
REMARK  9 active torsions:
REMARK  status: ('A' for Active; 'I' for Inactive)
REMARK    1  A    between atoms: C_1  and  C_2
REMARK    2  A    between atoms: C_2  and  N_3
REMARK    3  A    between atoms: C_2  and  C_11
REMARK    4  A    between atoms: N_3  and  C_4
REMARK    5  A    between atoms: C_4  and  C_5
REMARK    6  A    between atoms: C_14  and  C_15
REMARK    7  A    between atoms: C_15  and  O_16
REMARK    8  A    between atoms: O_16  and  C_17
REMARK    9  A    between atoms: C_17  and  C_18
REMARK                            x       y       z     vdW  Elec       q    Type
REMARK                         _______ _______ _______ _____ _____    ______ ____
ROOT
ATOM      1  C   UNL     1      47.210   6.116  12.542  0.00  0.00    +0.000 A 
ATOM      2  C   UNL     1      46.665   5.049  13.275  0.00  0.00    +0.000 A 
ATOM      3  C   UNL     1      45.486   4.418  12.856  0.00  0.00    +0.000 A 
ATOM      4  C   UNL     1      44.825   4.835  11.694  0.00  0.00    +0.000 A 
ATOM      5  C   UNL     1      45.368   5.891  10.957  0.00  0.00    +0.000 A 
ATOM      6  C   UNL     1      46.551   6.512  11.367  0.00  0.00    +0.000 A 
ENDROOT
BRANCH   1   8
ATOM      7  C   UNL     1      48.322   7.445  14.387  0.00  0.00    +0.000 C 
ATOM      8  C   UNL     1      48.498   6.791  13.005  0.00  0.00    +0.000 C 
BRANCH   8   9
ATOM      9  N   UNL     1      48.946   7.741  11.972  0.00  0.00    +0.000 NA
ATOM     10  H   UNL     1      49.127   7.212  11.118  0.00  0.00    +0.000 HD
BRANCH   9  11
ATOM     11  C   UNL     1      50.165   8.465  12.336  0.00  0.00    +0.000 C 
BRANCH  11  12
ATOM     12  C   UNL     1      51.180   8.472  11.223  0.00  0.00    +0.000 A 
ATOM     13  C   UNL     1      51.516   7.309  10.522  0.00  0.00    +0.000 A 
ATOM     14  C   UNL     1      52.395   7.371   9.445  0.00  0.00    +0.000 A 
ATOM     15  C   UNL     1      52.916   8.606   9.096  0.00  0.00    +0.000 A 
ATOM     16  N   UNL     1      52.623   9.754   9.747  0.00  0.00    +0.000 NA
ATOM     17  C   UNL     1      51.763   9.660  10.786  0.00  0.00    +0.000 A 
ENDBRANCH  11  12
ENDBRANCH   9  11
ENDBRANCH   8   9
ENDBRANCH   1   8
BRANCH   4  18
ATOM     18  C   UNL     1      43.580   4.138  11.211  0.00  0.00    +0.000 C 
BRANCH  18  19
ATOM     19  O   UNL     1      43.725   3.792   9.838  0.00  0.00    +0.000 OA
BRANCH  19  20
ATOM     20  C   UNL     1      44.332   2.508   9.691  0.00  0.00    +0.000 C 
BRANCH  20  21
ATOM     21  C   UNL     1      45.427   2.562   8.659  0.00  0.00    +0.000 A 
ATOM     22  C   UNL     1      46.107   1.397   8.290  0.00  0.00    +0.000 A 
ATOM     23  C   UNL     1      47.085   1.478   7.310  0.00  0.00    +0.000 A 
ATOM     24  N   UNL     1      47.421   2.619   6.673  0.00  0.00    +0.000 NA
ATOM     25  C   UNL     1      46.746   3.731   7.035  0.00  0.00    +0.000 A 
ATOM     26  C   UNL     1      45.752   3.751   8.000  0.00  0.00    +0.000 A 
ENDBRANCH  20  21
ENDBRANCH  19  20
ENDBRANCH  18  19
ENDBRANCH   4  18
TORSDOF 8
ENDMDL
MODEL 6
REMARK VINA RESULT:    -6.381      3.372      6.086
REMARK INTER + INTRA:         -10.475
REMARK INTER:                  -9.721
REMARK INTRA:                  -0.754
REMARK UNBOUND:                -1.109
REMARK  Name = 
REMARK  9 active torsions:
REMARK  status: ('A' for Active; 'I' for Inactive)
REMARK    1  A    between atoms: C_1  and  C_2
REMARK    2  A    between atoms: C_2  and  N_3
REMARK    3  A    between atoms: C_2  and  C_11
REMARK    4  A    between atoms: N_3  and  C_4
REMARK    5  A    between atoms: C_4  and  C_5
REMARK    6  A    between atoms: C_14  and  C_15
REMARK    7  A    between atoms: C_15  and  O_16
REMARK    8  A    between atoms: O_16  and  C_17
REMARK    9  A    between atoms: C_17  and  C_18
REMARK                            x       y       z     vdW  Elec       q    Type
REMARK                         _______ _______ _______ _____ _____    ______ ____
ROOT
ATOM      1  C   UNL     1      46.656   2.242   7.237  0.00  0.00    +0.000 A 
ATOM      2  C   UNL     1      46.376   3.616   7.301  0.00  0.00    +0.000 A 
ATOM      3  C   UNL     1      45.481   4.123   8.252  0.00  0.00    +0.000 A 
ATOM      4  C   UNL     1      44.846   3.270   9.164  0.00  0.00    +0.000 A 
ATOM      5  C   UNL     1      45.127   1.902   9.109  0.00  0.00    +0.000 A 
ATOM      6  C   UNL     1      46.030   1.398   8.169  0.00  0.00    +0.000 A 
ENDROOT
BRANCH   1   8
ATOM      7  C   UNL     1      47.781   2.668   5.011  0.00  0.00    +0.000 C 
ATOM      8  C   UNL     1      47.638   1.703   6.200  0.00  0.00    +0.000 C 
BRANCH   8   9
ATOM      9  N   UNL     1      47.221   0.349   5.795  0.00  0.00    +0.000 NA
ATOM     10  H   UNL     1      47.995  -0.288   5.989  0.00  0.00    +0.000 HD
BRANCH   9  11
ATOM     11  C   UNL     1      46.880   0.244   4.376  0.00  0.00    +0.000 C 
BRANCH  11  12
ATOM     12  C   UNL     1      47.034  -1.159   3.852  0.00  0.00    +0.000 A 
ATOM     13  C   UNL     1      46.544  -2.267   4.552  0.00  0.00    +0.000 A 
ATOM     14  C   UNL     1      46.632  -3.540   3.996  0.00  0.00    +0.000 A 
ATOM     15  C   UNL     1      47.210  -3.669   2.745  0.00  0.00    +0.000 A 
ATOM     16  N   UNL     1      47.701  -2.628   2.035  0.00  0.00    +0.000 NA
ATOM     17  C   UNL     1      47.597  -1.404   2.601  0.00  0.00    +0.000 A 
ENDBRANCH  11  12
ENDBRANCH   9  11
ENDBRANCH   8   9
ENDBRANCH   1   8
BRANCH   4  18
ATOM     18  C   UNL     1      43.914   3.807  10.218  0.00  0.00    +0.000 C 
BRANCH  18  19
ATOM     19  O   UNL     1      43.925   2.950  11.354  0.00  0.00    +0.000 OA
BRANCH  19  20
ATOM     20  C   UNL     1      43.640   3.675  12.550  0.00  0.00    +0.000 C 
BRANCH  20  21
ATOM     21  C   UNL     1      44.696   4.721  12.793  0.00  0.00    +0.000 A 
ATOM     22  C   UNL     1      45.988   4.344  13.171  0.00  0.00    +0.000 A 
ATOM     23  C   UNL     1      46.945   5.333  13.352  0.00  0.00    +0.000 A 
ATOM     24  N   UNL     1      46.710   6.649  13.175  0.00  0.00    +0.000 NA
ATOM     25  C   UNL     1      45.460   6.992  12.798  0.00  0.00    +0.000 A 
ATOM     26  C   UNL     1      44.438   6.079  12.590  0.00  0.00    +0.000 A 
ENDBRANCH  20  21
ENDBRANCH  19  20
ENDBRANCH  18  19
ENDBRANCH   4  18
TORSDOF 8
ENDMDL
MODEL 7
REMARK VINA RESULT:    -6.116      2.702      8.846
REMARK INTER + INTRA:         -10.085
REMARK INTER:                  -8.899
REMARK INTRA:                  -1.186
REMARK UNBOUND:                -1.109
REMARK  Name = 
REMARK  9 active torsions:
REMARK  status: ('A' for Active; 'I' for Inactive)
REMARK    1  A    between atoms: C_1  and  C_2
REMARK    2  A    between atoms: C_2  and  N_3
REMARK    3  A    between atoms: C_2  and  C_11
REMARK    4  A    between atoms: N_3  and  C_4
REMARK    5  A    between atoms: C_4  and  C_5
REMARK    6  A    between atoms: C_14  and  C_15
REMARK    7  A    between atoms: C_15  and  O_16
REMARK    8  A    between atoms: O_16  and  C_17
REMARK    9  A    between atoms: C_17  and  C_18
REMARK                            x       y       z     vdW  Elec       q    Type
REMARK                         _______ _______ _______ _____ _____    ______ ____
ROOT
ATOM      1  C   UNL     1      47.775   6.794  12.695  0.00  0.00    +0.000 A 
ATOM      2  C   UNL     1      46.813   7.265  11.787  0.00  0.00    +0.000 A 
ATOM      3  C   UNL     1      45.618   6.564  11.580  0.00  0.00    +0.000 A 
ATOM      4  C   UNL     1      45.354   5.377  12.275  0.00  0.00    +0.000 A 
ATOM      5  C   UNL     1      46.306   4.908  13.185  0.00  0.00    +0.000 A 
ATOM      6  C   UNL     1      47.491   5.615  13.403  0.00  0.00    +0.000 A 
ENDROOT
BRANCH   1   8
ATOM      7  C   UNL     1      49.866   7.718  11.608  0.00  0.00    +0.000 C 
ATOM      8  C   UNL     1      49.070   7.570  12.917  0.00  0.00    +0.000 C 
BRANCH   8   9
ATOM      9  N   UNL     1      49.845   6.925  13.991  0.00  0.00    +0.000 NA
ATOM     10  H   UNL     1      49.186   6.448  14.608  0.00  0.00    +0.000 HD
BRANCH   9  11
ATOM     11  C   UNL     1      50.631   7.866  14.790  0.00  0.00    +0.000 C 
BRANCH  11  12
ATOM     12  C   UNL     1      49.784   8.626  15.776  0.00  0.00    +0.000 A 
ATOM     13  C   UNL     1      49.691  10.022  15.748  0.00  0.00    +0.000 A 
ATOM     14  C   UNL     1      48.833  10.683  16.621  0.00  0.00    +0.000 A 
ATOM     15  C   UNL     1      48.085   9.923  17.504  0.00  0.00    +0.000 A 
ATOM     16  N   UNL     1      48.145   8.574  17.569  0.00  0.00    +0.000 NA
ATOM     17  C   UNL     1      48.986   7.961  16.705  0.00  0.00    +0.000 A 
ENDBRANCH  11  12
ENDBRANCH   9  11
ENDBRANCH   8   9
ENDBRANCH   1   8
BRANCH   4  18
ATOM     18  C   UNL     1      44.056   4.636  12.092  0.00  0.00    +0.000 C 
BRANCH  18  19
ATOM     19  O   UNL     1      44.246   3.543  11.200  0.00  0.00    +0.000 OA
BRANCH  19  20
ATOM     20  C   UNL     1      43.993   3.929   9.850  0.00  0.00    +0.000 C 
BRANCH  20  21
ATOM     21  C   UNL     1      45.035   3.344   8.933  0.00  0.00    +0.000 A 
ATOM     22  C   UNL     1      45.801   4.177   8.112  0.00  0.00    +0.000 A 
ATOM     23  C   UNL     1      46.776   3.606   7.307  0.00  0.00    +0.000 A 
ATOM     24  N   UNL     1      47.044   2.284   7.271  0.00  0.00    +0.000 NA
ATOM     25  C   UNL     1      46.301   1.498   8.079  0.00  0.00    +0.000 A 
ATOM     26  C   UNL     1      45.308   1.974   8.920  0.00  0.00    +0.000 A 
ENDBRANCH  20  21
ENDBRANCH  19  20
ENDBRANCH  18  19
ENDBRANCH   4  18
TORSDOF 8
ENDMDL
MODEL 8
REMARK VINA RESULT:    -6.023      2.264      3.542
REMARK INTER + INTRA:          -9.949
REMARK INTER:                  -8.756
REMARK INTRA:                  -1.194
REMARK UNBOUND:                -1.109
REMARK  Name = 
REMARK  9 active torsions:
REMARK  status: ('A' for Active; 'I' for Inactive)
REMARK    1  A    between atoms: C_1  and  C_2
REMARK    2  A    between atoms: C_2  and  N_3
REMARK    3  A    between atoms: C_2  and  C_11
REMARK    4  A    between atoms: N_3  and  C_4
REMARK    5  A    between atoms: C_4  and  C_5
REMARK    6  A    between atoms: C_14  and  C_15
REMARK    7  A    between atoms: C_15  and  O_16
REMARK    8  A    between atoms: O_16  and  C_17
REMARK    9  A    between atoms: C_17  and  C_18
REMARK                            x       y       z     vdW  Elec       q    Type
REMARK                         _______ _______ _______ _____ _____    ______ ____
ROOT
ATOM      1  C   UNL     1      46.359   7.570  12.442  0.00  0.00    +0.000 A 
ATOM      2  C   UNL     1      47.248   6.486  12.355  0.00  0.00    +0.000 A 
ATOM      3  C   UNL     1      48.427   6.462  13.112  0.00  0.00    +0.000 A 
ATOM      4  C   UNL     1      48.746   7.519  13.975  0.00  0.00    +0.000 A 
ATOM      5  C   UNL     1      47.860   8.596  14.070  0.00  0.00    +0.000 A 
ATOM      6  C   UNL     1      46.677   8.613  13.327  0.00  0.00    +0.000 A 
ENDROOT
BRANCH   1   8
ATOM      7  C   UNL     1      44.574   9.017  11.382  0.00  0.00    +0.000 C 
ATOM      8  C   UNL     1      45.074   7.582  11.619  0.00  0.00    +0.000 C 
BRANCH   8   9
ATOM      9  N   UNL     1      44.071   6.724  12.272  0.00  0.00    +0.000 NA
ATOM     10  H   UNL     1      44.563   5.939  12.702  0.00  0.00    +0.000 HD
BRANCH   9  11
ATOM     11  C   UNL     1      43.068   6.192  11.349  0.00  0.00    +0.000 C 
BRANCH  11  12
ATOM     12  C   UNL     1      43.465   4.855  10.781  0.00  0.00    +0.000 A 
ATOM     13  C   UNL     1      44.225   4.746   9.611  0.00  0.00    +0.000 A 
ATOM     14  C   UNL     1      44.644   3.497   9.163  0.00  0.00    +0.000 A 
ATOM     15  C   UNL     1      44.288   2.383   9.905  0.00  0.00    +0.000 A 
ATOM     16  N   UNL     1      43.552   2.440  11.037  0.00  0.00    +0.000 NA
ATOM     17  C   UNL     1      43.164   3.669  11.448  0.00  0.00    +0.000 A 
ENDBRANCH  11  12
ENDBRANCH   9  11
ENDBRANCH   8   9
ENDBRANCH   1   8
BRANCH   4  18
ATOM     18  C   UNL     1      49.989   7.486  14.824  0.00  0.00    +0.000 C 
BRANCH  18  19
ATOM     19  O   UNL     1      49.637   7.275  16.186  0.00  0.00    +0.000 OA
BRANCH  19  20
ATOM     20  C   UNL     1      50.364   6.181  16.744  0.00  0.00    +0.000 C 
BRANCH  20  21
ATOM     21  C   UNL     1      49.428   5.053  17.091  0.00  0.00    +0.000 A 
ATOM     22  C   UNL     1      48.051   5.190  16.888  0.00  0.00    +0.000 A 
ATOM     23  C   UNL     1      47.223   4.118  17.185  0.00  0.00    +0.000 A 
ATOM     24  N   UNL     1      47.665   2.933  17.654  0.00  0.00    +0.000 NA
ATOM     25  C   UNL     1      48.998   2.815  17.833  0.00  0.00    +0.000 A 
ATOM     26  C   UNL     1      49.906   3.827  17.562  0.00  0.00    +0.000 A 
ENDBRANCH  20  21
ENDBRANCH  19  20
ENDBRANCH  18  19
ENDBRANCH   4  18
TORSDOF 8
ENDMDL
MODEL 9
REMARK VINA RESULT:    -6.019      3.024      9.055
REMARK INTER + INTRA:          -9.943
REMARK INTER:                  -8.901
REMARK INTRA:                  -1.043
REMARK UNBOUND:                -1.109
REMARK  Name = 
REMARK  9 active torsions:
REMARK  status: ('A' for Active; 'I' for Inactive)
REMARK    1  A    between atoms: C_1  and  C_2
REMARK    2  A    between atoms: C_2  and  N_3
REMARK    3  A    between atoms: C_2  and  C_11
REMARK    4  A    between atoms: N_3  and  C_4
REMARK    5  A    between atoms: C_4  and  C_5
REMARK    6  A    between atoms: C_14  and  C_15
REMARK    7  A    between atoms: C_15  and  O_16
REMARK    8  A    between atoms: O_16  and  C_17
REMARK    9  A    between atoms: C_17  and  C_18
REMARK                            x       y       z     vdW  Elec       q    Type
REMARK                         _______ _______ _______ _____ _____    ______ ____
ROOT
ATOM      1  C   UNL     1      46.731   6.018  13.021  0.00  0.00    +0.000 A 
ATOM      2  C   UNL     1      46.312   4.781  13.537  0.00  0.00    +0.000 A 
ATOM      3  C   UNL     1      45.332   4.025  12.882  0.00  0.00    +0.000 A 
ATOM      4  C   UNL     1      44.747   4.484  11.695  0.00  0.00    +0.000 A 
ATOM      5  C   UNL     1      45.167   5.711  11.173  0.00  0.00    +0.000 A 
ATOM      6  C   UNL     1      46.155   6.459  11.819  0.00  0.00    +0.000 A 
ENDROOT
BRANCH   1   8
ATOM      7  C   UNL     1      48.349   6.076  14.966  0.00  0.00    +0.000 C 
ATOM      8  C   UNL     1      47.806   6.830  13.740  0.00  0.00    +0.000 C 
BRANCH   8   9
ATOM      9  N   UNL     1      47.267   8.159  14.074  0.00  0.00    +0.000 NA
ATOM     10  H   UNL     1      46.541   8.383  13.392  0.00  0.00    +0.000 HD
BRANCH   9  11
ATOM     11  C   UNL     1      48.274   9.221  14.044  0.00  0.00    +0.000 C 
BRANCH  11  12
ATOM     12  C   UNL     1      48.775   9.573  15.420  0.00  0.00    +0.000 A 
ATOM     13  C   UNL     1      47.979   9.410  16.559  0.00  0.00    +0.000 A 
ATOM     14  C   UNL     1      48.506   9.667  17.822  0.00  0.00    +0.000 A 
ATOM     15  C   UNL     1      49.824  10.082  17.909  0.00  0.00    +0.000 A 
ATOM     16  N   UNL     1      50.627  10.257  16.836  0.00  0.00    +0.000 NA
ATOM     17  C   UNL     1      50.087   9.995  15.624  0.00  0.00    +0.000 A 
ENDBRANCH  11  12
ENDBRANCH   9  11
ENDBRANCH   8   9
ENDBRANCH   1   8
BRANCH   4  18
ATOM     18  C   UNL     1      43.722   3.662  10.959  0.00  0.00    +0.000 C 
BRANCH  18  19
ATOM     19  O   UNL     1      44.057   3.597   9.578  0.00  0.00    +0.000 OA
BRANCH  19  20
ATOM     20  C   UNL     1      44.507   2.291   9.217  0.00  0.00    +0.000 C 
BRANCH  20  21
ATOM     21  C   UNL     1      45.707   2.382   8.311  0.00  0.00    +0.000 A 
ATOM     22  C   UNL     1      46.431   1.232   7.981  0.00  0.00    +0.000 A 
ATOM     23  C   UNL     1      47.509   1.348   7.116  0.00  0.00    +0.000 A 
ATOM     24  N   UNL     1      47.904   2.510   6.557  0.00  0.00    +0.000 NA
ATOM     25  C   UNL     1      47.186   3.608   6.878  0.00  0.00    +0.000 A 
ATOM     26  C   UNL     1      46.092   3.593   7.730  0.00  0.00    +0.000 A 
ENDBRANCH  20  21
ENDBRANCH  19  20
ENDBRANCH  18  19
ENDBRANCH   4  18
TORSDOF 8
ENDMDL
