MODEL 1
REMARK VINA RESULT:    -7.473      0.000      0.000
REMARK INTER + INTRA:         -11.396
REMARK INTER:                 -10.532
REMARK INTRA:                  -0.864
REMARK UNBOUND:                -0.864
REMARK  Name = 
REMARK  8 active torsions:
REMARK  status: ('A' for Active; 'I' for Inactive)
REMARK    1  A    between atoms: C_1  and  N_2
REMARK    2  A    between atoms: C_4  and  C_5
REMARK    3  A    between atoms: N_7  and  C_8
REMARK    4  A    between atoms: C_8  and  C_9
REMARK    5  A    between atoms: C_12  and  O_13
REMARK    6  A    between atoms: O_13  and  C_14
REMARK    7  A    between atoms: C_14  and  C_15
REMARK    8  A    between atoms: C_15  and  C_16
REMARK                            x       y       z     vdW  Elec       q    Type
REMARK                         _______ _______ _______ _____ _____    ______ ____
ROOT
ATOM      1  C   UNL     1      48.412   6.546  13.826  0.00  0.00    +0.000 C 
ENDROOT
BRANCH   1   2
ATOM      2  C   UNL     1      47.298   5.735  13.225  0.00  0.00    +0.000 A 
ATOM      3  C   UNL     1      46.520   6.199  12.158  0.00  0.00    +0.000 A 
ATOM      4  C   UNL     1      45.473   5.412  11.660  0.00  0.00    +0.000 A 
ATOM      5  C   UNL     1      45.203   4.205  12.283  0.00  0.00    +0.000 A 
ATOM      6  N   UNL     1      45.945   3.725  13.303  0.00  0.00    +0.000 NA
ATOM      7  C   UNL     1      46.974   4.486  13.739  0.00  0.00    +0.000 A 
BRANCH   5   8
ATOM      8  O   UNL     1      44.104   3.473  11.856  0.00  0.00    +0.000 OA
BRANCH   8   9
ATOM      9  C   UNL     1      43.941   3.576  10.430  0.00  0.00    +0.000 C 
BRANCH   9  10
ATOM     10  C   UNL     1      44.349   2.294   9.706  0.00  0.00    +0.000 C 
BRANCH  10  11
ATOM     11  C   UNL     1      45.433   2.492   8.683  0.00  0.00    +0.000 A 
ATOM     12  C   UNL     1      45.629   3.732   8.080  0.00  0.00    +0.000 A 
ATOM     13  N   UNL     1      46.539   3.941   7.100  0.00  0.00    +0.000 NA
ATOM     14  C   UNL     1      47.269   2.859   6.752  0.00  0.00    +0.000 A 
ATOM     15  C   UNL     1      47.103   1.628   7.361  0.00  0.00    +0.000 A 
ATOM     16  N   UNL     1      46.181   1.416   8.331  0.00  0.00    +0.000 NA
ENDBRANCH  10  11
ENDBRANCH   9  10
ENDBRANCH   8   9
ENDBRANCH   5   8
ENDBRANCH   1   2
BRANCH   1  19
ATOM     17  C   UNL     1      48.986   6.653  16.219  0.00  0.00    +0.000 C 
ATOM     18  O   UNL     1      50.047   6.060  16.032  0.00  0.00    +0.000 OA
ATOM     19  N   UNL     1      48.121   6.942  15.186  0.00  0.00    +0.000 N 
ATOM     20  H   UNL     1      47.285   7.472  15.372  0.00  0.00    +0.000 HD
BRANCH  17  24
ATOM     21  C   UNL     1      47.304   9.475  20.007  0.00  0.00    +0.000 C 
ATOM     22  N   UNL     1      47.809   8.344  19.259  0.00  0.00    +0.000 N 
ATOM     23  C   UNL     1      48.115   8.359  17.922  0.00  0.00    +0.000 A 
ATOM     24  C   UNL     1      48.563   7.099  17.553  0.00  0.00    +0.000 A 
ATOM     25  C   UNL     1      48.523   6.294  18.745  0.00  0.00    +0.000 A 
ATOM     26  C   UNL     1      48.844   4.960  19.032  0.00  0.00    +0.000 A 
ATOM     27  N   UNL     1      48.694   4.464  20.284  0.00  0.00    +0.000 NA
ATOM     28  C   UNL     1      48.233   5.272  21.261  0.00  0.00    +0.000 A 
ATOM     29  C   UNL     1      47.889   6.601  21.085  0.00  0.00    +0.000 A 
ATOM     30  C   UNL     1      48.047   7.097  19.786  0.00  0.00    +0.000 A 
ENDBRANCH  17  24
ENDBRANCH   1  19
TORSDOF 7
ENDMDL
MODEL 2
REMARK VINA RESULT:    -7.445      1.859      2.420
REMARK INTER + INTRA:         -11.356
REMARK INTER:                 -10.492
REMARK INTRA:                  -0.864
REMARK UNBOUND:                -0.864
REMARK  Name = 
REMARK  8 active torsions:
REMARK  status: ('A' for Active; 'I' for Inactive)
REMARK    1  A    between atoms: C_1  and  N_2
REMARK    2  A    between atoms: C_4  and  C_5
REMARK    3  A    between atoms: N_7  and  C_8
REMARK    4  A    between atoms: C_8  and  C_9
REMARK    5  A    between atoms: C_12  and  O_13
REMARK    6  A    between atoms: O_13  and  C_14
REMARK    7  A    between atoms: C_14  and  C_15
REMARK    8  A    between atoms: C_15  and  C_16
REMARK                            x       y       z     vdW  Elec       q    Type
REMARK                         _______ _______ _______ _____ _____    ______ ____
ROOT
ATOM      1  C   UNL     1      47.129   8.072  13.313  0.00  0.00    +0.000 C 
ENDROOT
BRANCH   1   2
ATOM      2  C   UNL     1      46.156   7.185  12.587  0.00  0.00    +0.000 A 
ATOM      3  C   UNL     1      45.206   7.685  11.689  0.00  0.00    +0.000 A 
ATOM      4  C   UNL     1      44.303   6.813  11.066  0.00  0.00    +0.000 A 
ATOM      5  C   UNL     1      44.345   5.471  11.405  0.00  0.00    +0.000 A 
ATOM      6  N   UNL     1      45.259   4.958  12.255  0.00  0.00    +0.000 NA
ATOM      7  C   UNL     1      46.144   5.814  12.811  0.00  0.00    +0.000 A 
BRANCH   5   8
ATOM      8  O   UNL     1      43.386   4.624  10.866  0.00  0.00    +0.000 OA
BRANCH   8   9
ATOM      9  C   UNL     1      44.001   3.558  10.120  0.00  0.00    +0.000 C 
BRANCH   9  10
ATOM     10  C   UNL     1      44.418   3.998   8.718  0.00  0.00    +0.000 C 
BRANCH  10  11
ATOM     11  C   UNL     1      45.516   3.162   8.120  0.00  0.00    +0.000 A 
ATOM     12  C   UNL     1      45.633   1.809   8.427  0.00  0.00    +0.000 A 
ATOM     13  N   UNL     1      46.647   1.033   7.976  0.00  0.00    +0.000 NA
ATOM     14  C   UNL     1      47.541   1.661   7.181  0.00  0.00    +0.000 A 
ATOM     15  C   UNL     1      47.423   2.998   6.846  0.00  0.00    +0.000 A 
ATOM     16  N   UNL     1      46.416   3.777   7.311  0.00  0.00    +0.000 NA
ENDBRANCH  10  11
ENDBRANCH   9  10
ENDBRANCH   8   9
ENDBRANCH   5   8
ENDBRANCH   1   2
BRANCH   1  19
ATOM     17  C   UNL     1      48.743   6.919  14.771  0.00  0.00    +0.000 C 
ATOM     18  O   UNL     1      49.568   6.838  13.862  0.00  0.00    +0.000 OA
ATOM     19  N   UNL     1      47.517   7.519  14.591  0.00  0.00    +0.000 N 
ATOM     20  H   UNL     1      46.888   7.609  15.372  0.00  0.00    +0.000 HD
BRANCH  17  24
ATOM     21  C   UNL     1      50.473   6.373  19.446  0.00  0.00    +0.000 C 
ATOM     22  N   UNL     1      49.765   6.126  18.208  0.00  0.00    +0.000 N 
ATOM     23  C   UNL     1      49.810   6.935  17.102  0.00  0.00    +0.000 A 
ATOM     24  C   UNL     1      49.005   6.385  16.114  0.00  0.00    +0.000 A 
ATOM     25  C   UNL     1      48.456   5.178  16.672  0.00  0.00    +0.000 A 
ATOM     26  C   UNL     1      47.586   4.189  16.190  0.00  0.00    +0.000 A 
ATOM     27  N   UNL     1      47.231   3.139  16.969  0.00  0.00    +0.000 NA
ATOM     28  C   UNL     1      47.727   3.049  18.220  0.00  0.00    +0.000 A 
ATOM     29  C   UNL     1      48.590   3.967  18.791  0.00  0.00    +0.000 A 
ATOM     30  C   UNL     1      48.946   5.048  17.975  0.00  0.00    +0.000 A 
ENDBRANCH  17  24
ENDBRANCH   1  19
TORSDOF 7
ENDMDL
MODEL 3
REMARK VINA RESULT:    -7.416      0.596      1.933
REMARK INTER + INTRA:         -11.314
REMARK INTER:                 -10.429
REMARK INTRA:                  -0.886
REMARK UNBOUND:                -0.864
REMARK  Name = 
REMARK  8 active torsions:
REMARK  status: ('A' for Active; 'I' for Inactive)
REMARK    1  A    between atoms: C_1  and  N_2
REMARK    2  A    between atoms: C_4  and  C_5
REMARK    3  A    between atoms: N_7  and  C_8
REMARK    4  A    between atoms: C_8  and  C_9
REMARK    5  A    between atoms: C_12  and  O_13
REMARK    6  A    between atoms: O_13  and  C_14
REMARK    7  A    between atoms: C_14  and  C_15
REMARK    8  A    between atoms: C_15  and  C_16
REMARK                            x       y       z     vdW  Elec       q    Type
REMARK                         _______ _______ _______ _____ _____    ______ ____
ROOT
ATOM      1  C   UNL     1      48.194   6.490  14.020  0.00  0.00    +0.000 C 
ENDROOT
BRANCH   1   2
ATOM      2  C   UNL     1      47.061   5.799  13.313  0.00  0.00    +0.000 A 
ATOM      3  C   UNL     1      46.488   6.301  12.139  0.00  0.00    +0.000 A 
ATOM      4  C   UNL     1      45.412   5.630  11.542  0.00  0.00    +0.000 A 
ATOM      5  C   UNL     1      44.907   4.505  12.172  0.00  0.00    +0.000 A 
ATOM      6  N   UNL     1      45.449   3.989  13.295  0.00  0.00    +0.000 NA
ATOM      7  C   UNL     1      46.511   4.633  13.829  0.00  0.00    +0.000 A 
BRANCH   5   8
ATOM      8  O   UNL     1      43.779   3.900  11.637  0.00  0.00    +0.000 OA
BRANCH   8   9
ATOM      9  C   UNL     1      43.907   3.741  10.212  0.00  0.00    +0.000 C 
BRANCH   9  10
ATOM     10  C   UNL     1      44.551   2.409   9.833  0.00  0.00    +0.000 C 
BRANCH  10  11
ATOM     11  C   UNL     1      45.548   2.512   8.712  0.00  0.00    +0.000 A 
ATOM     12  C   UNL     1      45.756   3.720   8.050  0.00  0.00    +0.000 A 
ATOM     13  N   UNL     1      46.584   3.846   6.986  0.00  0.00    +0.000 NA
ATOM     14  C   UNL     1      47.222   2.714   6.615  0.00  0.00    +0.000 A 
ATOM     15  C   UNL     1      47.045   1.514   7.281  0.00  0.00    +0.000 A 
ATOM     16  N   UNL     1      46.203   1.385   8.336  0.00  0.00    +0.000 NA
ENDBRANCH  10  11
ENDBRANCH   9  10
ENDBRANCH   8   9
ENDBRANCH   5   8
ENDBRANCH   1   2
BRANCH   1  19
ATOM     17  C   UNL     1      49.171   6.409  16.279  0.00  0.00    +0.000 C 
ATOM     18  O   UNL     1      50.313   6.490  15.831  0.00  0.00    +0.000 OA
ATOM     19  N   UNL     1      48.065   6.410  15.458  0.00  0.00    +0.000 N 
ATOM     20  H   UNL     1      47.144   6.392  15.864  0.00  0.00    +0.000 HD
BRANCH  17  24
ATOM     21  C   UNL     1      48.854   4.682  20.976  0.00  0.00    +0.000 C 
ATOM     22  N   UNL     1      48.755   5.555  19.826  0.00  0.00    +0.000 N 
ATOM     23  C   UNL     1      49.137   5.224  18.551  0.00  0.00    +0.000 A 
ATOM     24  C   UNL     1      48.900   6.309  17.718  0.00  0.00    +0.000 A 
ATOM     25  C   UNL     1      48.341   7.339  18.553  0.00  0.00    +0.000 A 
ATOM     26  C   UNL     1      47.896   8.648  18.319  0.00  0.00    +0.000 A 
ATOM     27  N   UNL     1      47.410   9.406  19.331  0.00  0.00    +0.000 NA
ATOM     28  C   UNL     1      47.353   8.887  20.575  0.00  0.00    +0.000 A 
ATOM     29  C   UNL     1      47.764   7.610  20.912  0.00  0.00    +0.000 A 
ATOM     30  C   UNL     1      48.266   6.839  19.857  0.00  0.00    +0.000 A 
ENDBRANCH  17  24
ENDBRANCH   1  19
TORSDOF 7
ENDMDL
MODEL 4
REMARK VINA RESULT:    -7.040      1.407      2.714
REMARK INTER + INTRA:         -10.785
REMARK INTER:                  -9.950
REMARK INTRA:                  -0.835
REMARK UNBOUND:                -0.864
REMARK  Name = 
REMARK  8 active torsions:
REMARK  status: ('A' for Active; 'I' for Inactive)
REMARK    1  A    between atoms: C_1  and  N_2
REMARK    2  A    between atoms: C_4  and  C_5
REMARK    3  A    between atoms: N_7  and  C_8
REMARK    4  A    between atoms: C_8  and  C_9
REMARK    5  A    between atoms: C_12  and  O_13
REMARK    6  A    between atoms: O_13  and  C_14
REMARK    7  A    between atoms: C_14  and  C_15
REMARK    8  A    between atoms: C_15  and  C_16
REMARK                            x       y       z     vdW  Elec       q    Type
REMARK                         _______ _______ _______ _____ _____    ______ ____
ROOT
ATOM      1  C   UNL     1      47.388   3.991  15.431  0.00  0.00    +0.000 C 
ENDROOT
BRANCH   1   2
ATOM      2  C   UNL     1      46.867   4.506  14.118  0.00  0.00    +0.000 A 
ATOM      3  C   UNL     1      47.231   5.754  13.601  0.00  0.00    +0.000 A 
ATOM      4  C   UNL     1      46.688   6.195  12.387  0.00  0.00    +0.000 A 
ATOM      5  C   UNL     1      45.753   5.392  11.754  0.00  0.00    +0.000 A 
ATOM      6  N   UNL     1      45.395   4.178  12.221  0.00  0.00    +0.000 NA
ATOM      7  C   UNL     1      45.964   3.759  13.373  0.00  0.00    +0.000 A 
BRANCH   5   8
ATOM      8  O   UNL     1      45.141   5.873  10.605  0.00  0.00    +0.000 OA
BRANCH   8   9
ATOM      9  C   UNL     1      45.792   5.369   9.425  0.00  0.00    +0.000 C 
BRANCH   9  10
ATOM     10  C   UNL     1      44.968   4.290   8.725  0.00  0.00    +0.000 C 
BRANCH  10  11
ATOM     11  C   UNL     1      45.794   3.182   8.132  0.00  0.00    +0.000 A 
ATOM     12  C   UNL     1      45.632   1.865   8.553  0.00  0.00    +0.000 A 
ATOM     13  N   UNL     1      46.403   0.846   8.107  0.00  0.00    +0.000 NA
ATOM     14  C   UNL     1      47.341   1.190   7.197  0.00  0.00    +0.000 A 
ATOM     15  C   UNL     1      47.496   2.490   6.750  0.00  0.00    +0.000 A 
ATOM     16  N   UNL     1      46.733   3.512   7.210  0.00  0.00    +0.000 NA
ENDBRANCH  10  11
ENDBRANCH   9  10
ENDBRANCH   8   9
ENDBRANCH   5   8
ENDBRANCH   1   2
BRANCH   1  19
ATOM     17  C   UNL     1      48.397   5.478  17.115  0.00  0.00    +0.000 C 
ATOM     18  O   UNL     1      49.533   5.121  16.808  0.00  0.00    +0.000 OA
ATOM     19  N   UNL     1      47.280   4.979  16.482  0.00  0.00    +0.000 N 
ATOM     20  H   UNL     1      46.370   5.333  16.727  0.00  0.00    +0.000 HD
BRANCH  17  24
ATOM     21  C   UNL     1      47.447   7.576  21.569  0.00  0.00    +0.000 C 
ATOM     22  N   UNL     1      47.728   7.422  20.158  0.00  0.00    +0.000 N 
ATOM     23  C   UNL     1      47.885   6.221  19.514  0.00  0.00    +0.000 A 
ATOM     24  C   UNL     1      48.147   6.465  18.173  0.00  0.00    +0.000 A 
ATOM     25  C   UNL     1      48.138   7.896  18.018  0.00  0.00    +0.000 A 
ATOM     26  C   UNL     1      48.332   8.759  16.930  0.00  0.00    +0.000 A 
ATOM     27  N   UNL     1      48.269  10.103  17.092  0.00  0.00    +0.000 NA
ATOM     28  C   UNL     1      48.014  10.608  18.316  0.00  0.00    +0.000 A 
ATOM     29  C   UNL     1      47.807   9.846  19.452  0.00  0.00    +0.000 A 
ATOM     30  C   UNL     1      47.878   8.460  19.270  0.00  0.00    +0.000 A 
ENDBRANCH  17  24
ENDBRANCH   1  19
TORSDOF 7
ENDMDL
MODEL 5
REMARK VINA RESULT:    -6.936      2.544      8.558
REMARK INTER + INTRA:         -10.639
REMARK INTER:                  -9.450
REMARK INTRA:                  -1.189
REMARK UNBOUND:                -0.864
REMARK  Name = 
REMARK  8 active torsions:
REMARK  status: ('A' for Active; 'I' for Inactive)
REMARK    1  A    between atoms: C_1  and  N_2
REMARK    2  A    between atoms: C_4  and  C_5
REMARK    3  A    between atoms: N_7  and  C_8
REMARK    4  A    between atoms: C_8  and  C_9
REMARK    5  A    between atoms: C_12  and  O_13
REMARK    6  A    between atoms: O_13  and  C_14
REMARK    7  A    between atoms: C_14  and  C_15
REMARK    8  A    between atoms: C_15  and  C_16
REMARK                            x       y       z     vdW  Elec       q    Type
REMARK                         _______ _______ _______ _____ _____    ______ ____
ROOT
ATOM      1  C   UNL     1      48.197   8.490  12.491  0.00  0.00    +0.000 C 
ENDROOT
BRANCH   1   2
ATOM      2  C   UNL     1      48.514   8.176  13.927  0.00  0.00    +0.000 A 
ATOM      3  C   UNL     1      48.208   9.052  14.974  0.00  0.00    +0.000 A 
ATOM      4  C   UNL     1      48.557   8.719  16.290  0.00  0.00    +0.000 A 
ATOM      5  C   UNL     1      49.253   7.542  16.509  0.00  0.00    +0.000 A 
ATOM      6  N   UNL     1      49.549   6.672  15.520  0.00  0.00    +0.000 NA
ATOM      7  C   UNL     1      49.165   6.997  14.266  0.00  0.00    +0.000 A 
BRANCH   5   8
ATOM      8  O   UNL     1      49.688   7.262  17.796  0.00  0.00    +0.000 OA
BRANCH   8   9
ATOM      9  C   UNL     1      50.770   6.312  17.779  0.00  0.00    +0.000 C 
BRANCH   9  10
ATOM     10  C   UNL     1      50.465   5.072  18.618  0.00  0.00    +0.000 C 
BRANCH  10  11
ATOM     11  C   UNL     1      49.772   3.977  17.856  0.00  0.00    +0.000 A 
ATOM     12  C   UNL     1      50.495   2.922  17.305  0.00  0.00    +0.000 A 
ATOM     13  N   UNL     1      49.928   1.955  16.546  0.00  0.00    +0.000 NA
ATOM     14  C   UNL     1      48.593   2.068  16.371  0.00  0.00    +0.000 A 
ATOM     15  C   UNL     1      47.859   3.097  16.935  0.00  0.00    +0.000 A 
ATOM     16  N   UNL     1      48.430   4.073  17.681  0.00  0.00    +0.000 NA
ENDBRANCH  10  11
ENDBRANCH   9  10
ENDBRANCH   8   9
ENDBRANCH   5   8
ENDBRANCH   1   2
BRANCH   1  19
ATOM     17  C   UNL     1      46.199   7.224  11.804  0.00  0.00    +0.000 C 
ATOM     18  O   UNL     1      45.450   8.036  12.345  0.00  0.00    +0.000 OA
ATOM     19  N   UNL     1      47.568   7.375  11.819  0.00  0.00    +0.000 N 
ATOM     20  H   UNL     1      48.146   6.716  11.322  0.00  0.00    +0.000 HD
BRANCH  17  24
ATOM     21  C   UNL     1      45.224   3.833   8.241  0.00  0.00    +0.000 C 
ATOM     22  N   UNL     1      45.249   4.510   9.520  0.00  0.00    +0.000 N 
ATOM     23  C   UNL     1      45.876   5.705   9.764  0.00  0.00    +0.000 A 
ATOM     24  C   UNL     1      45.692   6.040  11.099  0.00  0.00    +0.000 A 
ATOM     25  C   UNL     1      44.905   4.981  11.672  0.00  0.00    +0.000 A 
ATOM     26  C   UNL     1      44.392   4.732  12.953  0.00  0.00    +0.000 A 
ATOM     27  N   UNL     1      43.670   3.614  13.206  0.00  0.00    +0.000 NA
ATOM     28  C   UNL     1      43.444   2.736  12.207  0.00  0.00    +0.000 A 
ATOM     29  C   UNL     1      43.903   2.886  10.910  0.00  0.00    +0.000 A 
ATOM     30  C   UNL     1      44.649   4.045  10.666  0.00  0.00    +0.000 A 
ENDBRANCH  17  24
ENDBRANCH   1  19
TORSDOF 7
ENDMDL
MODEL 6
REMARK VINA RESULT:    -6.649      2.551      8.973
REMARK INTER + INTRA:         -10.234
REMARK INTER:                  -9.251
REMARK INTRA:                  -0.983
REMARK UNBOUND:                -0.864
REMARK  Name = 
REMARK  8 active torsions:
REMARK  status: ('A' for Active; 'I' for Inactive)
REMARK    1  A    between atoms: C_1  and  N_2
REMARK    2  A    between atoms: C_4  and  C_5
REMARK    3  A    between atoms: N_7  and  C_8
REMARK    4  A    between atoms: C_8  and  C_9
REMARK    5  A    between atoms: C_12  and  O_13
REMARK    6  A    between atoms: O_13  and  C_14
REMARK    7  A    between atoms: C_14  and  C_15
REMARK    8  A    between atoms: C_15  and  C_16
REMARK                            x       y       z     vdW  Elec       q    Type
REMARK                         _______ _______ _______ _____ _____    ______ ____
ROOT
ATOM      1  C   UNL     1      47.660   8.201  12.351  0.00  0.00    +0.000 C 
ENDROOT
BRANCH   1   2
ATOM      2  C   UNL     1      48.266   8.045  13.719  0.00  0.00    +0.000 A 
ATOM      3  C   UNL     1      48.230   9.063  14.678  0.00  0.00    +0.000 A 
ATOM      4  C   UNL     1      48.840   8.872  15.925  0.00  0.00    +0.000 A 
ATOM      5  C   UNL     1      49.516   7.685  16.152  0.00  0.00    +0.000 A 
ATOM      6  N   UNL     1      49.554   6.681  15.252  0.00  0.00    +0.000 NA
ATOM      7  C   UNL     1      48.924   6.874  14.072  0.00  0.00    +0.000 A 
BRANCH   5   8
ATOM      8  O   UNL     1      50.206   7.537  17.347  0.00  0.00    +0.000 OA
BRANCH   8   9
ATOM      9  C   UNL     1      51.102   6.412  17.288  0.00  0.00    +0.000 C 
BRANCH   9  10
ATOM     10  C   UNL     1      50.757   5.342  18.322  0.00  0.00    +0.000 C 
BRANCH  10  11
ATOM     11  C   UNL     1      50.082   4.131  17.742  0.00  0.00    +0.000 A 
ATOM     12  C   UNL     1      50.822   3.020  17.343  0.00  0.00    +0.000 A 
ATOM     13  N   UNL     1      50.269   1.939  16.745  0.00  0.00    +0.000 NA
ATOM     14  C   UNL     1      48.930   1.997  16.576  0.00  0.00    +0.000 A 
ATOM     15  C   UNL     1      48.179   3.082  16.992  0.00  0.00    +0.000 A 
ATOM     16  N   UNL     1      48.735   4.171  17.575  0.00  0.00    +0.000 NA
ENDBRANCH  10  11
ENDBRANCH   9  10
ENDBRANCH   8   9
ENDBRANCH   5   8
ENDBRANCH   1   2
BRANCH   1  19
ATOM     17  C   UNL     1      45.657   6.793  12.088  0.00  0.00    +0.000 C 
ATOM     18  O   UNL     1      44.943   7.641  12.620  0.00  0.00    +0.000 OA
ATOM     19  N   UNL     1      47.008   6.989  11.907  0.00  0.00    +0.000 N 
ATOM     20  H   UNL     1      47.551   6.293  11.423  0.00  0.00    +0.000 HD
BRANCH  17  24
ATOM     21  C   UNL     1      43.284   2.382  11.859  0.00  0.00    +0.000 C 
ATOM     22  N   UNL     1      44.065   3.540  11.481  0.00  0.00    +0.000 N 
ATOM     23  C   UNL     1      44.369   4.588  12.311  0.00  0.00    +0.000 A 
ATOM     24  C   UNL     1      45.124   5.513  11.604  0.00  0.00    +0.000 A 
ATOM     25  C   UNL     1      45.277   4.975  10.278  0.00  0.00    +0.000 A 
ATOM     26  C   UNL     1      45.921   5.419   9.115  0.00  0.00    +0.000 A 
ATOM     27  N   UNL     1      45.889   4.679   7.980  0.00  0.00    +0.000 NA
ATOM     28  C   UNL     1      45.231   3.502   7.979  0.00  0.00    +0.000 A 
ATOM     29  C   UNL     1      44.566   2.973   9.070  0.00  0.00    +0.000 A 
ATOM     30  C   UNL     1      44.605   3.750  10.235  0.00  0.00    +0.000 A 
ENDBRANCH  17  24
ENDBRANCH   1  19
TORSDOF 7
ENDMDL
MODEL 7
REMARK VINA RESULT:    -6.501      5.160      9.604
REMARK INTER + INTRA:         -10.025
REMARK INTER:                  -9.374
REMARK INTRA:                  -0.651
REMARK UNBOUND:                -0.864
REMARK  Name = 
REMARK  8 active torsions:
REMARK  status: ('A' for Active; 'I' for Inactive)
REMARK    1  A    between atoms: C_1  and  N_2
REMARK    2  A    between atoms: C_4  and  C_5
REMARK    3  A    between atoms: N_7  and  C_8
REMARK    4  A    between atoms: C_8  and  C_9
REMARK    5  A    between atoms: C_12  and  O_13
REMARK    6  A    between atoms: O_13  and  C_14
REMARK    7  A    between atoms: C_14  and  C_15
REMARK    8  A    between atoms: C_15  and  C_16
REMARK                            x       y       z     vdW  Elec       q    Type
REMARK                         _______ _______ _______ _____ _____    ______ ____
ROOT
ATOM      1  C   UNL     1      47.331   3.608  17.157  0.00  0.00    +0.000 C 
ENDROOT
BRANCH   1   2
ATOM      2  C   UNL     1      48.781   3.264  17.363  0.00  0.00    +0.000 A 
ATOM      3  C   UNL     1      49.691   4.156  17.943  0.00  0.00    +0.000 A 
ATOM      4  C   UNL     1      51.037   3.792  18.080  0.00  0.00    +0.000 A 
ATOM      5  C   UNL     1      51.441   2.564  17.581  0.00  0.00    +0.000 A 
ATOM      6  N   UNL     1      50.583   1.679  17.033  0.00  0.00    +0.000 NA
ATOM      7  C   UNL     1      49.283   2.038  16.949  0.00  0.00    +0.000 A 
BRANCH   5   8
ATOM      8  O   UNL     1      52.791   2.246  17.625  0.00  0.00    +0.000 OA
BRANCH   8   9
ATOM      9  C   UNL     1      52.990   0.826  17.495  0.00  0.00    +0.000 C 
BRANCH   9  10
ATOM     10  C   UNL     1      54.391   0.396  17.927  0.00  0.00    +0.000 C 
BRANCH  10  11
ATOM     11  C   UNL     1      54.487  -1.051  18.324  0.00  0.00    +0.000 A 
ATOM     12  C   UNL     1      54.955  -2.009  17.427  0.00  0.00    +0.000 A 
ATOM     13  N   UNL     1      54.987  -3.333  17.710  0.00  0.00    +0.000 NA
ATOM     14  C   UNL     1      54.550  -3.668  18.944  0.00  0.00    +0.000 A 
ATOM     15  C   UNL     1      54.108  -2.724  19.854  0.00  0.00    +0.000 A 
ATOM     16  N   UNL     1      54.061  -1.401  19.564  0.00  0.00    +0.000 NA
ENDBRANCH  10  11
ENDBRANCH   9  10
ENDBRANCH   8   9
ENDBRANCH   5   8
ENDBRANCH   1   2
BRANCH   1  19
ATOM     17  C   UNL     1      47.158   4.276  14.794  0.00  0.00    +0.000 C 
ATOM     18  O   UNL     1      47.299   3.115  14.414  0.00  0.00    +0.000 OA
ATOM     19  N   UNL     1      47.153   4.610  16.130  0.00  0.00    +0.000 N 
ATOM     20  H   UNL     1      46.986   5.564  16.403  0.00  0.00    +0.000 HD
BRANCH  17  24
ATOM     21  C   UNL     1      48.016   8.322  11.959  0.00  0.00    +0.000 C 
ATOM     22  N   UNL     1      47.348   7.196  12.575  0.00  0.00    +0.000 N 
ATOM     23  C   UNL     1      47.918   6.349  13.490  0.00  0.00    +0.000 A 
ATOM     24  C   UNL     1      46.982   5.390  13.854  0.00  0.00    +0.000 A 
ATOM     25  C   UNL     1      45.788   5.695  13.110  0.00  0.00    +0.000 A 
ATOM     26  C   UNL     1      44.514   5.115  13.032  0.00  0.00    +0.000 A 
ATOM     27  N   UNL     1      43.565   5.633  12.215  0.00  0.00    +0.000 NA
ATOM     28  C   UNL     1      43.857   6.721  11.473  0.00  0.00    +0.000 A 
ATOM     29  C   UNL     1      45.080   7.369  11.477  0.00  0.00    +0.000 A 
ATOM     30  C   UNL     1      46.050   6.821  12.324  0.00  0.00    +0.000 A 
ENDBRANCH  17  24
ENDBRANCH   1  19
TORSDOF 7
ENDMDL
MODEL 8
REMARK VINA RESULT:    -6.439      1.702      2.369
REMARK INTER + INTRA:          -9.939
REMARK INTER:                  -9.341
REMARK INTRA:                  -0.598
REMARK UNBOUND:                -0.864
REMARK  Name = 
REMARK  8 active torsions:
REMARK  status: ('A' for Active; 'I' for Inactive)
REMARK    1  A    between atoms: C_1  and  N_2
REMARK    2  A    between atoms: C_4  and  C_5
REMARK    3  A    between atoms: N_7  and  C_8
REMARK    4  A    between atoms: C_8  and  C_9
REMARK    5  A    between atoms: C_12  and  O_13
REMARK    6  A    between atoms: O_13  and  C_14
REMARK    7  A    between atoms: C_14  and  C_15
REMARK    8  A    between atoms: C_15  and  C_16
REMARK                            x       y       z     vdW  Elec       q    Type
REMARK                         _______ _______ _______ _____ _____    ______ ____
ROOT
ATOM      1  C   UNL     1      47.101   4.280  15.325  0.00  0.00    +0.000 C 
ENDROOT
BRANCH   1   2
ATOM      2  C   UNL     1      46.498   4.751  14.030  0.00  0.00    +0.000 A 
ATOM      3  C   UNL     1      45.358   4.162  13.473  0.00  0.00    +0.000 A 
ATOM      4  C   UNL     1      44.859   4.623  12.247  0.00  0.00    +0.000 A 
ATOM      5  C   UNL     1      45.552   5.626  11.590  0.00  0.00    +0.000 A 
ATOM      6  N   UNL     1      46.645   6.223  12.110  0.00  0.00    +0.000 NA
ATOM      7  C   UNL     1      47.082   5.787  13.313  0.00  0.00    +0.000 A 
BRANCH   5   8
ATOM      8  O   UNL     1      45.118   6.012  10.330  0.00  0.00    +0.000 OA
BRANCH   8   9
ATOM      9  C   UNL     1      45.836   5.309   9.300  0.00  0.00    +0.000 C 
BRANCH   9  10
ATOM     10  C   UNL     1      45.018   4.169   8.697  0.00  0.00    +0.000 C 
BRANCH  10  11
ATOM     11  C   UNL     1      45.853   3.072   8.097  0.00  0.00    +0.000 A 
ATOM     12  C   UNL     1      45.680   1.747   8.489  0.00  0.00    +0.000 A 
ATOM     13  N   UNL     1      46.458   0.735   8.036  0.00  0.00    +0.000 NA
ATOM     14  C   UNL     1      47.413   1.095   7.150  0.00  0.00    +0.000 A 
ATOM     15  C   UNL     1      47.577   2.404   6.732  0.00  0.00    +0.000 A 
ATOM     16  N   UNL     1      46.809   3.418   7.198  0.00  0.00    +0.000 NA
ENDBRANCH  10  11
ENDBRANCH   9  10
ENDBRANCH   8   9
ENDBRANCH   5   8
ENDBRANCH   1   2
BRANCH   1  19
ATOM     17  C   UNL     1      47.981   5.260  17.405  0.00  0.00    +0.000 C 
ATOM     18  O   UNL     1      47.702   4.247  18.046  0.00  0.00    +0.000 OA
ATOM     19  N   UNL     1      47.727   5.359  16.055  0.00  0.00    +0.000 N 
ATOM     20  H   UNL     1      48.013   6.185  15.555  0.00  0.00    +0.000 HD
BRANCH  17  24
ATOM     21  C   UNL     1      50.801   9.334  18.170  0.00  0.00    +0.000 C 
ATOM     22  N   UNL     1      49.857   8.260  18.387  0.00  0.00    +0.000 N 
ATOM     23  C   UNL     1      49.552   7.284  17.474  0.00  0.00    +0.000 A 
ATOM     24  C   UNL     1      48.606   6.433  18.028  0.00  0.00    +0.000 A 
ATOM     25  C   UNL     1      48.342   6.936  19.350  0.00  0.00    +0.000 A 
ATOM     26  C   UNL     1      47.502   6.532  20.397  0.00  0.00    +0.000 A 
ATOM     27  N   UNL     1      47.458   7.227  21.560  0.00  0.00    +0.000 NA
ATOM     28  C   UNL     1      48.238   8.318  21.704  0.00  0.00    +0.000 A 
ATOM     29  C   UNL     1      49.101   8.800  20.736  0.00  0.00    +0.000 A 
ATOM     30  C   UNL     1      49.133   8.073  19.541  0.00  0.00    +0.000 A 
ENDBRANCH  17  24
ENDBRANCH   1  19
TORSDOF 7
ENDMDL
MODEL 9
REMARK VINA RESULT:    -6.174      3.305      8.099
REMARK INTER + INTRA:          -9.565
REMARK INTER:                  -8.377
REMARK INTRA:                  -1.188
REMARK UNBOUND:                -0.864
REMARK  Name = 
REMARK  8 active torsions:
REMARK  status: ('A' for Active; 'I' for Inactive)
REMARK    1  A    between atoms: C_1  and  N_2
REMARK    2  A    between atoms: C_4  and  C_5
REMARK    3  A    between atoms: N_7  and  C_8
REMARK    4  A    between atoms: C_8  and  C_9
REMARK    5  A    between atoms: C_12  and  O_13
REMARK    6  A    between atoms: O_13  and  C_14
REMARK    7  A    between atoms: C_14  and  C_15
REMARK    8  A    between atoms: C_15  and  C_16
REMARK                            x       y       z     vdW  Elec       q    Type
REMARK                         _______ _______ _______ _____ _____    ______ ____
ROOT
ATOM      1  C   UNL     1      49.913   7.626  14.045  0.00  0.00    +0.000 C 
ENDROOT
BRANCH   1   2
ATOM      2  C   UNL     1      49.928   7.461  15.540  0.00  0.00    +0.000 A 
ATOM      3  C   UNL     1      50.964   6.805  16.214  0.00  0.00    +0.000 A 
ATOM      4  C   UNL     1      50.908   6.653  17.606  0.00  0.00    +0.000 A 
ATOM      5  C   UNL     1      49.787   7.118  18.274  0.00  0.00    +0.000 A 
ATOM      6  N   UNL     1      48.781   7.768  17.652  0.00  0.00    +0.000 NA
ATOM      7  C   UNL     1      48.879   7.937  16.315  0.00  0.00    +0.000 A 
BRANCH   5   8
ATOM      8  O   UNL     1      49.684   6.877  19.637  0.00  0.00    +0.000 OA
BRANCH   8   9
ATOM      9  C   UNL     1      48.496   6.123  19.939  0.00  0.00    +0.000 C 
BRANCH   9  10
ATOM     10  C   UNL     1      48.716   4.617  19.803  0.00  0.00    +0.000 C 
BRANCH  10  11
ATOM     11  C   UNL     1      48.365   4.071  18.447  0.00  0.00    +0.000 A 
ATOM     12  C   UNL     1      49.177   3.125  17.825  0.00  0.00    +0.000 A 
ATOM     13  N   UNL     1      48.946   2.661  16.574  0.00  0.00    +0.000 NA
ATOM     14  C   UNL     1      47.850   3.166  15.966  0.00  0.00    +0.000 A 
ATOM     15  C   UNL     1      47.021   4.086  16.582  0.00  0.00    +0.000 A 
ATOM     16  N   UNL     1      47.261   4.562  17.828  0.00  0.00    +0.000 NA
ENDBRANCH  10  11
ENDBRANCH   9  10
ENDBRANCH   8   9
ENDBRANCH   5   8
ENDBRANCH   1   2
BRANCH   1  19
ATOM     17  C   UNL     1      47.869   6.575  13.163  0.00  0.00    +0.000 C 
ATOM     18  O   UNL     1      48.349   5.448  13.284  0.00  0.00    +0.000 OA
ATOM     19  N   UNL     1      48.568   7.706  13.522  0.00  0.00    +0.000 N 
ATOM     20  H   UNL     1      48.123   8.607  13.455  0.00  0.00    +0.000 HD
BRANCH  17  24
ATOM     21  C   UNL     1      43.870   8.684  10.993  0.00  0.00    +0.000 C 
ATOM     22  N   UNL     1      44.720   7.721  11.661  0.00  0.00    +0.000 N 
ATOM     23  C   UNL     1      46.025   7.941  12.022  0.00  0.00    +0.000 A 
ATOM     24  C   UNL     1      46.518   6.797  12.633  0.00  0.00    +0.000 A 
ATOM     25  C   UNL     1      45.436   5.848  12.637  0.00  0.00    +0.000 A 
ATOM     26  C   UNL     1      45.295   4.533  13.102  0.00  0.00    +0.000 A 
ATOM     27  N   UNL     1      44.123   3.868  12.957  0.00  0.00    +0.000 NA
ATOM     28  C   UNL     1      43.083   4.488  12.361  0.00  0.00    +0.000 A 
ATOM     29  C   UNL     1      43.116   5.781  11.870  0.00  0.00    +0.000 A 
ATOM     30  C   UNL     1      44.334   6.453  12.024  0.00  0.00    +0.000 A 
ENDBRANCH  17  24
ENDBRANCH   1  19
TORSDOF 7
ENDMDL
