MODEL 1
REMARK VINA RESULT:    -6.306      0.000      0.000
REMARK INTER + INTRA:          -7.651
REMARK INTER:                  -7.043
REMARK INTRA:                  -0.607
REMARK UNBOUND:                -0.607
REMARK  Name = 
REMARK  2 active torsions:
REMARK  status: ('A' for Active; 'I' for Inactive)
REMARK    1  A    between atoms: C_3  and  C_4
REMARK    2  A    between atoms: C_14  and  C_15
REMARK                            x       y       z     vdW  Elec       q    Type
REMARK                         _______ _______ _______ _____ _____    ______ ____
ROOT
ATOM      1  F   UNL     1      45.815   5.329   9.667  0.00  0.00    +0.000 F 
ATOM      2  C   UNL     1      45.012   4.738  10.564  0.00  0.00    +0.000 A 
ATOM      3  C   UNL     1      44.719   5.406  11.771  0.00  0.00    +0.000 A 
ATOM      4  C   UNL     1      43.899   4.724  12.689  0.00  0.00    +0.000 A 
ATOM      5  C   UNL     1      43.402   3.446  12.418  0.00  0.00    +0.000 A 
ATOM      6  C   UNL     1      43.702   2.822  11.210  0.00  0.00    +0.000 A 
ATOM      7  C   UNL     1      44.512   3.467  10.267  0.00  0.00    +0.000 A 
ENDROOT
BRANCH   3   8
ATOM      8  C   UNL     1      45.243   6.764  12.064  0.00  0.00    +0.000 A 
ATOM      9  C   UNL     1      46.350   6.978  12.894  0.00  0.00    +0.000 A 
ATOM     10  N   UNL     1      46.878   8.191  13.203  0.00  0.00    +0.000 NA
ATOM     11  C   UNL     1      46.280   9.268  12.653  0.00  0.00    +0.000 A 
ATOM     12  C   UNL     1      45.187   9.182  11.809  0.00  0.00    +0.000 A 
ATOM     13 CL   UNL     1      44.489  10.594  11.127  0.00  0.00    +0.000 Cl
ATOM     14  C   UNL     1      44.664   7.923  11.519  0.00  0.00    +0.000 A 
ENDBRANCH   3   8
BRANCH   7  15
ATOM     15  C   UNL     1      44.834   2.795   8.962  0.00  0.00    +0.000 C 
ATOM     16  F   UNL     1      46.156   2.621   8.706  0.00  0.00    +0.000 F 
ATOM     17  F   UNL     1      44.273   1.555   8.875  0.00  0.00    +0.000 F 
ATOM     18  F   UNL     1      44.342   3.492   7.896  0.00  0.00    +0.000 F 
ENDBRANCH   7  15
TORSDOF 2
ENDMDL
MODEL 2
REMARK VINA RESULT:    -6.241      1.445      1.893
REMARK INTER + INTRA:          -7.579
REMARK INTER:                  -7.026
REMARK INTRA:                  -0.552
REMARK UNBOUND:                -0.607
REMARK  Name = 
REMARK  2 active torsions:
REMARK  status: ('A' for Active; 'I' for Inactive)
REMARK    1  A    between atoms: C_3  and  C_4
REMARK    2  A    between atoms: C_14  and  C_15
REMARK                            x       y       z     vdW  Elec       q    Type
REMARK                         _______ _______ _______ _____ _____    ______ ____
ROOT
ATOM      1  F   UNL     1      45.935   5.154   9.402  0.00  0.00    +0.000 F 
ATOM      2  C   UNL     1      45.160   4.619  10.356  0.00  0.00    +0.000 A 
ATOM      3  C   UNL     1      44.939   5.338  11.548  0.00  0.00    +0.000 A 
ATOM      4  C   UNL     1      44.145   4.714  12.528  0.00  0.00    +0.000 A 
ATOM      5  C   UNL     1      43.603   3.441  12.328  0.00  0.00    +0.000 A 
ATOM      6  C   UNL     1      43.832   2.764  11.133  0.00  0.00    +0.000 A 
ATOM      7  C   UNL     1      44.614   3.352  10.130  0.00  0.00    +0.000 A 
ENDROOT
BRANCH   3   8
ATOM      8  C   UNL     1      45.511   6.691  11.766  0.00  0.00    +0.000 A 
ATOM      9  C   UNL     1      44.719   7.846  11.789  0.00  0.00    +0.000 A 
ATOM     10  N   UNL     1      45.178   9.110  11.982  0.00  0.00    +0.000 NA
ATOM     11  C   UNL     1      46.506   9.248  12.172  0.00  0.00    +0.000 A 
ATOM     12  C   UNL     1      47.387   8.182  12.180  0.00  0.00    +0.000 A 
ATOM     13 CL   UNL     1      49.065   8.430  12.448  0.00  0.00    +0.000 Cl
ATOM     14  C   UNL     1      46.886   6.898  11.971  0.00  0.00    +0.000 A 
ENDBRANCH   3   8
BRANCH   7  15
ATOM     15  C   UNL     1      44.858   2.623   8.839  0.00  0.00    +0.000 C 
ATOM     16  F   UNL     1      44.333   1.374   8.766  0.00  0.00    +0.000 F 
ATOM     17  F   UNL     1      44.355   3.301   7.768  0.00  0.00    +0.000 F 
ATOM     18  F   UNL     1      46.191   2.477   8.582  0.00  0.00    +0.000 F 
ENDBRANCH   7  15
TORSDOF 2
ENDMDL
MODEL 3
REMARK VINA RESULT:    -5.997      3.593      4.383
REMARK INTER + INTRA:          -7.305
REMARK INTER:                  -7.034
REMARK INTRA:                  -0.271
REMARK UNBOUND:                -0.607
REMARK  Name = 
REMARK  2 active torsions:
REMARK  status: ('A' for Active; 'I' for Inactive)
REMARK    1  A    between atoms: C_3  and  C_4
REMARK    2  A    between atoms: C_14  and  C_15
REMARK                            x       y       z     vdW  Elec       q    Type
REMARK                         _______ _______ _______ _____ _____    ______ ____
ROOT
ATOM      1  F   UNL     1      45.957   3.149  12.880  0.00  0.00    +0.000 F 
ATOM      2  C   UNL     1      45.731   4.395  12.441  0.00  0.00    +0.000 A 
ATOM      3  C   UNL     1      46.262   5.486  13.160  0.00  0.00    +0.000 A 
ATOM      4  C   UNL     1      45.965   6.772  12.672  0.00  0.00    +0.000 A 
ATOM      5  C   UNL     1      45.180   6.958  11.530  0.00  0.00    +0.000 A 
ATOM      6  C   UNL     1      44.683   5.857  10.838  0.00  0.00    +0.000 A 
ATOM      7  C   UNL     1      44.958   4.559  11.288  0.00  0.00    +0.000 A 
ENDROOT
BRANCH   3   8
ATOM      8  C   UNL     1      47.097   5.295  14.372  0.00  0.00    +0.000 A 
ATOM      9  C   UNL     1      48.164   6.144  14.691  0.00  0.00    +0.000 A 
ATOM     10  N   UNL     1      48.966   6.025  15.782  0.00  0.00    +0.000 NA
ATOM     11  C   UNL     1      48.697   5.003  16.620  0.00  0.00    +0.000 A 
ATOM     12  C   UNL     1      47.664   4.106  16.417  0.00  0.00    +0.000 A 
ATOM     13 CL   UNL     1      47.366   2.840  17.538  0.00  0.00    +0.000 Cl
ATOM     14  C   UNL     1      46.865   4.250  15.284  0.00  0.00    +0.000 A 
ENDBRANCH   3   8
BRANCH   7  15
ATOM     15  C   UNL     1      44.424   3.371  10.539  0.00  0.00    +0.000 C 
ATOM     16  F   UNL     1      45.346   2.437  10.193  0.00  0.00    +0.000 F 
ATOM     17  F   UNL     1      43.471   2.706  11.253  0.00  0.00    +0.000 F 
ATOM     18  F   UNL     1      43.816   3.737   9.373  0.00  0.00    +0.000 F 
ENDBRANCH   7  15
TORSDOF 2
ENDMDL
MODEL 4
REMARK VINA RESULT:    -5.903      3.662      6.069
REMARK INTER + INTRA:          -7.201
REMARK INTER:                  -6.599
REMARK INTRA:                  -0.602
REMARK UNBOUND:                -0.607
REMARK  Name = 
REMARK  2 active torsions:
REMARK  status: ('A' for Active; 'I' for Inactive)
REMARK    1  A    between atoms: C_3  and  C_4
REMARK    2  A    between atoms: C_14  and  C_15
REMARK                            x       y       z     vdW  Elec       q    Type
REMARK                         _______ _______ _______ _____ _____    ______ ____
ROOT
ATOM      1  F   UNL     1      47.342   5.382  12.537  0.00  0.00    +0.000 F 
ATOM      2  C   UNL     1      46.595   6.489  12.415  0.00  0.00    +0.000 A 
ATOM      3  C   UNL     1      45.495   6.483  11.533  0.00  0.00    +0.000 A 
ATOM      4  C   UNL     1      44.768   7.683  11.420  0.00  0.00    +0.000 A 
ATOM      5  C   UNL     1      45.121   8.824  12.147  0.00  0.00    +0.000 A 
ATOM      6  C   UNL     1      46.206   8.789  13.018  0.00  0.00    +0.000 A 
ATOM      7  C   UNL     1      46.955   7.614  13.162  0.00  0.00    +0.000 A 
ENDROOT
BRANCH   3   8
ATOM      8  C   UNL     1      45.115   5.275  10.760  0.00  0.00    +0.000 A 
ATOM      9  C   UNL     1      44.209   4.325  11.249  0.00  0.00    +0.000 A 
ATOM     10  N   UNL     1      43.820   3.199  10.594  0.00  0.00    +0.000 NA
ATOM     11  C   UNL     1      44.353   2.997   9.372  0.00  0.00    +0.000 A 
ATOM     12  C   UNL     1      45.248   3.869   8.779  0.00  0.00    +0.000 A 
ATOM     13 CL   UNL     1      45.871   3.558   7.210  0.00  0.00    +0.000 Cl
ATOM     14  C   UNL     1      45.634   5.010   9.481  0.00  0.00    +0.000 A 
ENDBRANCH   3   8
BRANCH   7  15
ATOM     15  C   UNL     1      48.124   7.574  14.105  0.00  0.00    +0.000 C 
ATOM     16  F   UNL     1      48.103   6.571  15.019  0.00  0.00    +0.000 F 
ATOM     17  F   UNL     1      49.309   7.447  13.442  0.00  0.00    +0.000 F 
ATOM     18  F   UNL     1      48.233   8.728  14.827  0.00  0.00    +0.000 F 
ENDBRANCH   7  15
TORSDOF 2
ENDMDL
MODEL 5
REMARK VINA RESULT:    -5.787      3.639      6.134
REMARK INTER + INTRA:          -7.071
REMARK INTER:                  -6.468
REMARK INTRA:                  -0.603
REMARK UNBOUND:                -0.607
REMARK  Name = 
REMARK  2 active torsions:
REMARK  status: ('A' for Active; 'I' for Inactive)
REMARK    1  A    between atoms: C_3  and  C_4
REMARK    2  A    between atoms: C_14  and  C_15
REMARK                            x       y       z     vdW  Elec       q    Type
REMARK                         _______ _______ _______ _____ _____    ______ ____
ROOT
ATOM      1  F   UNL     1      43.778   7.723  11.364  0.00  0.00    +0.000 F 
ATOM      2  C   UNL     1      45.064   7.733  11.743  0.00  0.00    +0.000 A 
ATOM      3  C   UNL     1      45.708   6.511  12.028  0.00  0.00    +0.000 A 
ATOM      4  C   UNL     1      47.048   6.585  12.453  0.00  0.00    +0.000 A 
ATOM      5  C   UNL     1      47.706   7.810  12.587  0.00  0.00    +0.000 A 
ATOM      6  C   UNL     1      47.043   8.996  12.285  0.00  0.00    +0.000 A 
ATOM      7  C   UNL     1      45.710   8.967  11.855  0.00  0.00    +0.000 A 
ENDROOT
BRANCH   3   8
ATOM      8  C   UNL     1      45.014   5.206  11.886  0.00  0.00    +0.000 A 
ATOM      9  C   UNL     1      44.300   4.618  12.937  0.00  0.00    +0.000 A 
ATOM     10  N   UNL     1      43.644   3.429  12.875  0.00  0.00    +0.000 NA
ATOM     11  C   UNL     1      43.689   2.777  11.695  0.00  0.00    +0.000 A 
ATOM     12  C   UNL     1      44.353   3.263  10.583  0.00  0.00    +0.000 A 
ATOM     13 CL   UNL     1      44.350   2.388   9.106  0.00  0.00    +0.000 Cl
ATOM     14  C   UNL     1      45.023   4.481  10.682  0.00  0.00    +0.000 A 
ENDBRANCH   3   8
BRANCH   7  15
ATOM     15  C   UNL     1      44.995  10.247  11.525  0.00  0.00    +0.000 C 
ATOM     16  F   UNL     1      43.833  10.455  12.197  0.00  0.00    +0.000 F 
ATOM     17  F   UNL     1      45.769  11.342  11.774  0.00  0.00    +0.000 F 
ATOM     18  F   UNL     1      44.672  10.322  10.201  0.00  0.00    +0.000 F 
ENDBRANCH   7  15
TORSDOF 2
ENDMDL
MODEL 6
REMARK VINA RESULT:    -5.773      2.496      3.067
REMARK INTER + INTRA:          -7.055
REMARK INTER:                  -6.482
REMARK INTRA:                  -0.574
REMARK UNBOUND:                -0.607
REMARK  Name = 
REMARK  2 active torsions:
REMARK  status: ('A' for Active; 'I' for Inactive)
REMARK    1  A    between atoms: C_3  and  C_4
REMARK    2  A    between atoms: C_14  and  C_15
REMARK                            x       y       z     vdW  Elec       q    Type
REMARK                         _______ _______ _______ _____ _____    ______ ____
ROOT
ATOM      1  F   UNL     1      45.449   6.486  10.325  0.00  0.00    +0.000 F 
ATOM      2  C   UNL     1      45.771   5.715  11.373  0.00  0.00    +0.000 A 
ATOM      3  C   UNL     1      46.746   6.166  12.287  0.00  0.00    +0.000 A 
ATOM      4  C   UNL     1      47.069   5.301  13.348  0.00  0.00    +0.000 A 
ATOM      5  C   UNL     1      46.453   4.054  13.489  0.00  0.00    +0.000 A 
ATOM      6  C   UNL     1      45.486   3.646  12.575  0.00  0.00    +0.000 A 
ATOM      7  C   UNL     1      45.132   4.479  11.505  0.00  0.00    +0.000 A 
ENDROOT
BRANCH   3   8
ATOM      8  C   UNL     1      47.403   7.490  12.143  0.00  0.00    +0.000 A 
ATOM      9  C   UNL     1      46.744   8.691  12.436  0.00  0.00    +0.000 A 
ATOM     10  N   UNL     1      47.285   9.932  12.327  0.00  0.00    +0.000 NA
ATOM     11  C   UNL     1      48.564   9.998  11.905  0.00  0.00    +0.000 A 
ATOM     12  C   UNL     1      49.321   8.882  11.596  0.00  0.00    +0.000 A 
ATOM     13 CL   UNL     1      50.952   9.039  11.085  0.00  0.00    +0.000 Cl
ATOM     14  C   UNL     1      48.733   7.623  11.711  0.00  0.00    +0.000 A 
ENDBRANCH   3   8
BRANCH   7  15
ATOM     15  C   UNL     1      44.086   4.040  10.520  0.00  0.00    +0.000 C 
ATOM     16  F   UNL     1      43.539   2.820  10.755  0.00  0.00    +0.000 F 
ATOM     17  F   UNL     1      43.039   4.912  10.467  0.00  0.00    +0.000 F 
ATOM     18  F   UNL     1      44.577   3.983   9.248  0.00  0.00    +0.000 F 
ENDBRANCH   7  15
TORSDOF 2
ENDMDL
MODEL 7
REMARK VINA RESULT:    -5.463      1.945      2.476
REMARK INTER + INTRA:          -6.709
REMARK INTER:                  -6.442
REMARK INTRA:                  -0.267
REMARK UNBOUND:                -0.607
REMARK  Name = 
REMARK  2 active torsions:
REMARK  status: ('A' for Active; 'I' for Inactive)
REMARK    1  A    between atoms: C_3  and  C_4
REMARK    2  A    between atoms: C_14  and  C_15
REMARK                            x       y       z     vdW  Elec       q    Type
REMARK                         _______ _______ _______ _____ _____    ______ ____
ROOT
ATOM      1  F   UNL     1      44.354   6.190  10.983  0.00  0.00    +0.000 F 
ATOM      2  C   UNL     1      45.108   5.463  11.820  0.00  0.00    +0.000 A 
ATOM      3  C   UNL     1      46.198   6.074  12.471  0.00  0.00    +0.000 A 
ATOM      4  C   UNL     1      46.975   5.254  13.312  0.00  0.00    +0.000 A 
ATOM      5  C   UNL     1      46.678   3.899  13.490  0.00  0.00    +0.000 A 
ATOM      6  C   UNL     1      45.586   3.332  12.839  0.00  0.00    +0.000 A 
ATOM      7  C   UNL     1      44.785   4.114  11.996  0.00  0.00    +0.000 A 
ENDROOT
BRANCH   3   8
ATOM      8  C   UNL     1      46.517   7.512  12.288  0.00  0.00    +0.000 A 
ATOM      9  C   UNL     1      47.833   7.987  12.222  0.00  0.00    +0.000 A 
ATOM     10  N   UNL     1      48.193   9.287  12.056  0.00  0.00    +0.000 NA
ATOM     11  C   UNL     1      47.189  10.181  11.941  0.00  0.00    +0.000 A 
ATOM     12  C   UNL     1      45.851   9.831  11.979  0.00  0.00    +0.000 A 
ATOM     13 CL   UNL     1      44.626  11.020  11.805  0.00  0.00    +0.000 Cl
ATOM     14  C   UNL     1      45.516   8.490  12.159  0.00  0.00    +0.000 A 
ENDBRANCH   3   8
BRANCH   7  15
ATOM     15  C   UNL     1      43.604   3.503  11.297  0.00  0.00    +0.000 C 
ATOM     16  F   UNL     1      42.459   4.231  11.342  0.00  0.00    +0.000 F 
ATOM     17  F   UNL     1      43.852   3.283   9.975  0.00  0.00    +0.000 F 
ATOM     18  F   UNL     1      43.282   2.282  11.815  0.00  0.00    +0.000 F 
ENDBRANCH   7  15
TORSDOF 2
ENDMDL
MODEL 8
REMARK VINA RESULT:    -5.196      2.889      3.649
REMARK INTER + INTRA:          -6.411
REMARK INTER:                  -5.885
REMARK INTRA:                  -0.526
REMARK UNBOUND:                -0.607
REMARK  Name = 
REMARK  2 active torsions:
REMARK  status: ('A' for Active; 'I' for Inactive)
REMARK    1  A    between atoms: C_3  and  C_4
REMARK    2  A    between atoms: C_14  and  C_15
REMARK                            x       y       z     vdW  Elec       q    Type
REMARK                         _______ _______ _______ _____ _____    ______ ____
ROOT
ATOM      1  F   UNL     1      46.624   4.302  12.646  0.00  0.00    +0.000 F 
ATOM      2  C   UNL     1      45.832   5.297  12.222  0.00  0.00    +0.000 A 
ATOM      3  C   UNL     1      46.302   6.625  12.283  0.00  0.00    +0.000 A 
ATOM      4  C   UNL     1      45.416   7.632  11.856  0.00  0.00    +0.000 A 
ATOM      5  C   UNL     1      44.131   7.328  11.396  0.00  0.00    +0.000 A 
ATOM      6  C   UNL     1      43.705   6.004  11.338  0.00  0.00    +0.000 A 
ATOM      7  C   UNL     1      44.558   4.972  11.750  0.00  0.00    +0.000 A 
ENDROOT
BRANCH   3   8
ATOM      8  C   UNL     1      47.666   6.954  12.769  0.00  0.00    +0.000 A 
ATOM      9  C   UNL     1      48.084   6.675  14.076  0.00  0.00    +0.000 A 
ATOM     10  N   UNL     1      49.314   6.949  14.585  0.00  0.00    +0.000 NA
ATOM     11  C   UNL     1      50.196   7.533  13.748  0.00  0.00    +0.000 A 
ATOM     12  C   UNL     1      49.902   7.847  12.433  0.00  0.00    +0.000 A 
ATOM     13 CL   UNL     1      51.082   8.572  11.418  0.00  0.00    +0.000 Cl
ATOM     14  C   UNL     1      48.629   7.561  11.945  0.00  0.00    +0.000 A 
ENDBRANCH   3   8
BRANCH   7  15
ATOM     15  C   UNL     1      44.099   3.542  11.684  0.00  0.00    +0.000 C 
ATOM     16  F   UNL     1      44.121   2.868  12.862  0.00  0.00    +0.000 F 
ATOM     17  F   UNL     1      42.821   3.438  11.221  0.00  0.00    +0.000 F 
ATOM     18  F   UNL     1      44.859   2.804  10.824  0.00  0.00    +0.000 F 
ENDBRANCH   7  15
TORSDOF 2
ENDMDL
MODEL 9
REMARK VINA RESULT:    -5.185      4.367      6.608
REMARK INTER + INTRA:          -6.398
REMARK INTER:                  -5.944
REMARK INTRA:                  -0.454
REMARK UNBOUND:                -0.607
REMARK  Name = 
REMARK  2 active torsions:
REMARK  status: ('A' for Active; 'I' for Inactive)
REMARK    1  A    between atoms: C_3  and  C_4
REMARK    2  A    between atoms: C_14  and  C_15
REMARK                            x       y       z     vdW  Elec       q    Type
REMARK                         _______ _______ _______ _____ _____    ______ ____
ROOT
ATOM      1  F   UNL     1      47.588   5.655  15.056  0.00  0.00    +0.000 F 
ATOM      2  C   UNL     1      47.966   6.376  13.990  0.00  0.00    +0.000 A 
ATOM      3  C   UNL     1      47.238   6.260  12.788  0.00  0.00    +0.000 A 
ATOM      4  C   UNL     1      47.700   7.014  11.693  0.00  0.00    +0.000 A 
ATOM      5  C   UNL     1      48.826   7.837  11.793  0.00  0.00    +0.000 A 
ATOM      6  C   UNL     1      49.512   7.936  13.000  0.00  0.00    +0.000 A 
ATOM      7  C   UNL     1      49.084   7.205  14.116  0.00  0.00    +0.000 A 
ENDROOT
BRANCH   3   8
ATOM      8  C   UNL     1      46.042   5.389  12.675  0.00  0.00    +0.000 A 
ATOM      9  C   UNL     1      46.087   4.014  12.936  0.00  0.00    +0.000 A 
ATOM     10  N   UNL     1      45.031   3.162  12.851  0.00  0.00    +0.000 NA
ATOM     11  C   UNL     1      43.848   3.701  12.491  0.00  0.00    +0.000 A 
ATOM     12  C   UNL     1      43.677   5.047  12.220  0.00  0.00    +0.000 A 
ATOM     13 CL   UNL     1      42.136   5.667  11.787  0.00  0.00    +0.000 Cl
ATOM     14  C   UNL     1      44.782   5.892  12.307  0.00  0.00    +0.000 A 
ENDBRANCH   3   8
BRANCH   7  15
ATOM     15  C   UNL     1      49.823   7.315  15.420  0.00  0.00    +0.000 C 
ATOM     16  F   UNL     1      49.145   7.928  16.424  0.00  0.00    +0.000 F 
ATOM     17  F   UNL     1      50.182   6.093  15.906  0.00  0.00    +0.000 F 
ATOM     18  F   UNL     1      50.989   8.011  15.286  0.00  0.00    +0.000 F 
ENDBRANCH   7  15
TORSDOF 2
ENDMDL
