MODEL 1
REMARK VINA RESULT:    -7.860      0.000      0.000
REMARK INTER + INTRA:         -12.152
REMARK INTER:                 -11.076
REMARK INTRA:                  -1.076
REMARK UNBOUND:                -1.076
REMARK  Name = 
REMARK  7 active torsions:
REMARK  status: ('A' for Active; 'I' for Inactive)
REMARK    1  A    between atoms: C_2  and  C_21
REMARK    2  A    between atoms: N_3  and  C_4
REMARK    3  A    between atoms: C_4  and  C_5
REMARK    4  A    between atoms: C_8  and  C_9
REMARK    5  A    between atoms: C_9  and  O_10
REMARK    6  A    between atoms: O_10  and  C_11
REMARK    7  A    between atoms: C_11  and  C_12
REMARK                            x       y       z     vdW  Elec       q    Type
REMARK                         _______ _______ _______ _____ _____    ______ ____
ROOT
ATOM      1  C   UNL     1      46.440   7.097  12.812  0.00  0.00    +0.000 A 
ATOM      2  C   UNL     1      45.429   7.727  12.075  0.00  0.00    +0.000 A 
ATOM      3  C   UNL     1      44.459   6.972  11.407  0.00  0.00    +0.000 A 
ATOM      4  C   UNL     1      44.470   5.572  11.469  0.00  0.00    +0.000 A 
ATOM      5  C   UNL     1      45.471   4.944  12.223  0.00  0.00    +0.000 A 
ATOM      6  C   UNL     1      46.442   5.698  12.891  0.00  0.00    +0.000 A 
ENDROOT
BRANCH   1   7
ATOM      7  C   UNL     1      47.492   7.904  13.529  0.00  0.00    +0.000 C 
BRANCH   7  10
ATOM      8  O   UNL     1      50.135   7.582  14.358  0.00  0.00    +0.000 OA
ATOM      9  C   UNL     1      49.247   7.134  15.076  0.00  0.00    +0.000 C 
ATOM     10  N   UNL     1      47.920   7.251  14.740  0.00  0.00    +0.000 N 
ATOM     11  H   UNL     1      47.218   6.877  15.373  0.00  0.00    +0.000 HD
BRANCH   9  12
ATOM     12  C   UNL     1      49.516   6.457  16.317  0.00  0.00    +0.000 A 
ATOM     13  C   UNL     1      50.389   6.838  17.320  0.00  0.00    +0.000 A 
ATOM     14  N   UNL     1      50.379   5.953  18.368  0.00  0.00    +0.000 NA
ATOM     15  C   UNL     1      49.511   5.021  18.038  0.00  0.00    +0.000 A 
ATOM     16  N   UNL     1      49.135   3.925  18.755  0.00  0.00    +0.000 NA
ATOM     17  C   UNL     1      48.264   3.168  18.173  0.00  0.00    +0.000 A 
ATOM     18  C   UNL     1      47.710   3.467  16.809  0.00  0.00    +0.000 A 
ATOM     19  N   UNL     1      48.046   4.511  16.119  0.00  0.00    +0.000 NA
ATOM     20  N   UNL     1      48.968   5.288  16.781  0.00  0.00    +0.000 N 
ENDBRANCH   9  12
ENDBRANCH   7  10
ENDBRANCH   1   7
BRANCH   4  21
ATOM     21  C   UNL     1      43.413   4.759  10.764  0.00  0.00    +0.000 C 
BRANCH  21  22
ATOM     22  O   UNL     1      44.031   3.702  10.036  0.00  0.00    +0.000 OA
BRANCH  22  23
ATOM     23  C   UNL     1      44.496   4.134   8.758  0.00  0.00    +0.000 C 
BRANCH  23  24
ATOM     24  C   UNL     1      45.365   3.071   8.146  0.00  0.00    +0.000 A 
ATOM     25  C   UNL     1      45.507   1.826   8.757  0.00  0.00    +0.000 A 
ATOM     26  N   UNL     1      46.291   0.830   8.283  0.00  0.00    +0.000 NA
ATOM     27  C   UNL     1      46.976   1.088   7.142  0.00  0.00    +0.000 A 
ATOM     28  C   UNL     1      46.919   2.297   6.467  0.00  0.00    +0.000 A 
ATOM     29 CL   UNL     1      47.825   2.551   5.033  0.00  0.00    +0.000 Cl
ATOM     30  C   UNL     1      46.109   3.302   6.982  0.00  0.00    +0.000 A 
ENDBRANCH  23  24
ENDBRANCH  22  23
ENDBRANCH  21  22
ENDBRANCH   4  21
TORSDOF 7
ENDMDL
MODEL 2
REMARK VINA RESULT:    -7.726      1.079      1.561
REMARK INTER + INTRA:         -11.963
REMARK INTER:                 -10.910
REMARK INTRA:                  -1.053
REMARK UNBOUND:                -1.076
REMARK  Name = 
REMARK  7 active torsions:
REMARK  status: ('A' for Active; 'I' for Inactive)
REMARK    1  A    between atoms: C_2  and  C_21
REMARK    2  A    between atoms: N_3  and  C_4
REMARK    3  A    between atoms: C_4  and  C_5
REMARK    4  A    between atoms: C_8  and  C_9
REMARK    5  A    between atoms: C_9  and  O_10
REMARK    6  A    between atoms: O_10  and  C_11
REMARK    7  A    between atoms: C_11  and  C_12
REMARK                            x       y       z     vdW  Elec       q    Type
REMARK                         _______ _______ _______ _____ _____    ______ ____
ROOT
ATOM      1  C   UNL     1      46.256   7.167  12.974  0.00  0.00    +0.000 A 
ATOM      2  C   UNL     1      46.020   5.840  13.356  0.00  0.00    +0.000 A 
ATOM      3  C   UNL     1      44.928   5.133  12.840  0.00  0.00    +0.000 A 
ATOM      4  C   UNL     1      44.055   5.732  11.922  0.00  0.00    +0.000 A 
ATOM      5  C   UNL     1      44.303   7.053  11.526  0.00  0.00    +0.000 A 
ATOM      6  C   UNL     1      45.394   7.761  12.041  0.00  0.00    +0.000 A 
ENDROOT
BRANCH   1   7
ATOM      7  C   UNL     1      47.425   7.937  13.532  0.00  0.00    +0.000 C 
BRANCH   7  10
ATOM      8  O   UNL     1      50.021   7.107  14.128  0.00  0.00    +0.000 OA
ATOM      9  C   UNL     1      49.166   7.000  15.002  0.00  0.00    +0.000 C 
ATOM     10  N   UNL     1      47.864   7.384  14.788  0.00  0.00    +0.000 N 
ATOM     11  H   UNL     1      47.193   7.290  15.546  0.00  0.00    +0.000 HD
BRANCH   9  12
ATOM     12  C   UNL     1      49.451   6.468  16.308  0.00  0.00    +0.000 A 
ATOM     13  C   UNL     1      50.253   7.017  17.291  0.00  0.00    +0.000 A 
ATOM     14  N   UNL     1      50.284   6.237  18.419  0.00  0.00    +0.000 NA
ATOM     15  C   UNL     1      49.512   5.204  18.158  0.00  0.00    +0.000 A 
ATOM     16  N   UNL     1      49.209   4.150  18.967  0.00  0.00    +0.000 NA
ATOM     17  C   UNL     1      48.426   3.267  18.438  0.00  0.00    +0.000 A 
ATOM     18  C   UNL     1      47.895   3.388  17.038  0.00  0.00    +0.000 A 
ATOM     19  N   UNL     1      48.161   4.388  16.261  0.00  0.00    +0.000 NA
ATOM     20  N   UNL     1      48.991   5.303  16.868  0.00  0.00    +0.000 N 
ENDBRANCH   9  12
ENDBRANCH   7  10
ENDBRANCH   1   7
BRANCH   4  21
ATOM     21  C   UNL     1      42.889   4.962  11.351  0.00  0.00    +0.000 C 
BRANCH  21  22
ATOM     22  O   UNL     1      43.252   4.417  10.086  0.00  0.00    +0.000 OA
BRANCH  22  23
ATOM     23  C   UNL     1      44.004   3.213  10.219  0.00  0.00    +0.000 C 
BRANCH  23  24
ATOM     24  C   UNL     1      45.070   3.159   9.160  0.00  0.00    +0.000 A 
ATOM     25  C   UNL     1      45.524   4.323   8.543  0.00  0.00    +0.000 A 
ATOM     26  N   UNL     1      46.458   4.353   7.565  0.00  0.00    +0.000 NA
ATOM     27  C   UNL     1      46.964   3.158   7.173  0.00  0.00    +0.000 A 
ATOM     28  C   UNL     1      46.569   1.943   7.708  0.00  0.00    +0.000 A 
ATOM     29 CL   UNL     1      47.251   0.470   7.153  0.00  0.00    +0.000 Cl
ATOM     30  C   UNL     1      45.604   1.945   8.708  0.00  0.00    +0.000 A 
ENDBRANCH  23  24
ENDBRANCH  22  23
ENDBRANCH  21  22
ENDBRANCH   4  21
TORSDOF 7
ENDMDL
MODEL 3
REMARK VINA RESULT:    -7.476      2.015      2.699
REMARK INTER + INTRA:         -11.611
REMARK INTER:                 -10.637
REMARK INTRA:                  -0.975
REMARK UNBOUND:                -1.076
REMARK  Name = 
REMARK  7 active torsions:
REMARK  status: ('A' for Active; 'I' for Inactive)
REMARK    1  A    between atoms: C_2  and  C_21
REMARK    2  A    between atoms: N_3  and  C_4
REMARK    3  A    between atoms: C_4  and  C_5
REMARK    4  A    between atoms: C_8  and  C_9
REMARK    5  A    between atoms: C_9  and  O_10
REMARK    6  A    between atoms: O_10  and  C_11
REMARK    7  A    between atoms: C_11  and  C_12
REMARK                            x       y       z     vdW  Elec       q    Type
REMARK                         _______ _______ _______ _____ _____    ______ ____
ROOT
ATOM      1  C   UNL     1      47.222   6.150  13.153  0.00  0.00    +0.000 A 
ATOM      2  C   UNL     1      46.423   5.067  13.542  0.00  0.00    +0.000 A 
ATOM      3  C   UNL     1      45.301   4.702  12.789  0.00  0.00    +0.000 A 
ATOM      4  C   UNL     1      44.960   5.403  11.624  0.00  0.00    +0.000 A 
ATOM      5  C   UNL     1      45.771   6.474  11.226  0.00  0.00    +0.000 A 
ATOM      6  C   UNL     1      46.893   6.840  11.979  0.00  0.00    +0.000 A 
ENDROOT
BRANCH   1   7
ATOM      7  C   UNL     1      48.426   6.552  13.964  0.00  0.00    +0.000 C 
BRANCH   7  10
ATOM      8  O   UNL     1      50.079   5.818  16.088  0.00  0.00    +0.000 OA
ATOM      9  C   UNL     1      48.975   6.284  16.351  0.00  0.00    +0.000 C 
ATOM     10  N   UNL     1      48.101   6.670  15.363  0.00  0.00    +0.000 N 
ATOM     11  H   UNL     1      47.202   7.064  15.628  0.00  0.00    +0.000 HD
BRANCH   9  12
ATOM     12  C   UNL     1      48.507   6.465  17.700  0.00  0.00    +0.000 A 
ATOM     13  C   UNL     1      48.328   5.500  18.673  0.00  0.00    +0.000 A 
ATOM     14  N   UNL     1      47.877   6.039  19.851  0.00  0.00    +0.000 NA
ATOM     15  C   UNL     1      47.769   7.332  19.631  0.00  0.00    +0.000 A 
ATOM     16  N   UNL     1      47.370   8.306  20.496  0.00  0.00    +0.000 NA
ATOM     17  C   UNL     1      47.349   9.499  20.000  0.00  0.00    +0.000 A 
ATOM     18  C   UNL     1      47.729   9.793  18.576  0.00  0.00    +0.000 A 
ATOM     19  N   UNL     1      48.123   8.882  17.744  0.00  0.00    +0.000 NA
ATOM     20  N   UNL     1      48.135   7.632  18.318  0.00  0.00    +0.000 N 
ENDBRANCH   9  12
ENDBRANCH   7  10
ENDBRANCH   1   7
BRANCH   4  21
ATOM     21  C   UNL     1      43.762   4.998  10.802  0.00  0.00    +0.000 C 
BRANCH  21  22
ATOM     22  O   UNL     1      44.084   3.849  10.024  0.00  0.00    +0.000 OA
BRANCH  22  23
ATOM     23  C   UNL     1      44.506   4.198   8.707  0.00  0.00    +0.000 C 
BRANCH  23  24
ATOM     24  C   UNL     1      45.357   3.097   8.136  0.00  0.00    +0.000 A 
ATOM     25  C   UNL     1      45.456   1.865   8.780  0.00  0.00    +0.000 A 
ATOM     26  N   UNL     1      46.221   0.836   8.344  0.00  0.00    +0.000 NA
ATOM     27  C   UNL     1      46.931   1.048   7.209  0.00  0.00    +0.000 A 
ATOM     28  C   UNL     1      46.918   2.241   6.504  0.00  0.00    +0.000 A 
ATOM     29 CL   UNL     1      47.853   2.435   5.079  0.00  0.00    +0.000 Cl
ATOM     30  C   UNL     1      46.127   3.279   6.979  0.00  0.00    +0.000 A 
ENDBRANCH  23  24
ENDBRANCH  22  23
ENDBRANCH  21  22
ENDBRANCH   4  21
TORSDOF 7
ENDMDL
MODEL 4
REMARK VINA RESULT:    -7.457      2.339      3.030
REMARK INTER + INTRA:         -11.584
REMARK INTER:                 -10.489
REMARK INTRA:                  -1.095
REMARK UNBOUND:                -1.076
REMARK  Name = 
REMARK  7 active torsions:
REMARK  status: ('A' for Active; 'I' for Inactive)
REMARK    1  A    between atoms: C_2  and  C_21
REMARK    2  A    between atoms: N_3  and  C_4
REMARK    3  A    between atoms: C_4  and  C_5
REMARK    4  A    between atoms: C_8  and  C_9
REMARK    5  A    between atoms: C_9  and  O_10
REMARK    6  A    between atoms: O_10  and  C_11
REMARK    7  A    between atoms: C_11  and  C_12
REMARK                            x       y       z     vdW  Elec       q    Type
REMARK                         _______ _______ _______ _____ _____    ______ ____
ROOT
ATOM      1  C   UNL     1      47.029   6.161  13.373  0.00  0.00    +0.000 A 
ATOM      2  C   UNL     1      46.572   6.928  12.294  0.00  0.00    +0.000 A 
ATOM      3  C   UNL     1      45.353   6.630  11.673  0.00  0.00    +0.000 A 
ATOM      4  C   UNL     1      44.560   5.567  12.125  0.00  0.00    +0.000 A 
ATOM      5  C   UNL     1      45.010   4.812  13.217  0.00  0.00    +0.000 A 
ATOM      6  C   UNL     1      46.228   5.110  13.837  0.00  0.00    +0.000 A 
ENDROOT
BRANCH   1   7
ATOM      7  C   UNL     1      48.344   6.473  14.040  0.00  0.00    +0.000 C 
BRANCH   7  10
ATOM      8  O   UNL     1      49.407   5.174  16.269  0.00  0.00    +0.000 OA
ATOM      9  C   UNL     1      48.715   6.171  16.457  0.00  0.00    +0.000 C 
ATOM     10  N   UNL     1      48.154   6.867  15.414  0.00  0.00    +0.000 N 
ATOM     11  H   UNL     1      47.600   7.695  15.617  0.00  0.00    +0.000 HD
BRANCH   9  12
ATOM     12  C   UNL     1      48.436   6.688  17.770  0.00  0.00    +0.000 A 
ATOM     13  C   UNL     1      48.353   5.986  18.959  0.00  0.00    +0.000 A 
ATOM     14  N   UNL     1      48.081   6.811  20.021  0.00  0.00    +0.000 NA
ATOM     15  C   UNL     1      47.992   8.022  19.515  0.00  0.00    +0.000 A 
ATOM     16  N   UNL     1      47.746   9.194  20.167  0.00  0.00    +0.000 NA
ATOM     17  C   UNL     1      47.703  10.239  19.408  0.00  0.00    +0.000 A 
ATOM     18  C   UNL     1      47.902  10.171  17.921  0.00  0.00    +0.000 A 
ATOM     19  N   UNL     1      48.150   9.070  17.286  0.00  0.00    +0.000 NA
ATOM     20  N   UNL     1      48.192   7.988  18.135  0.00  0.00    +0.000 N 
ENDBRANCH   9  12
ENDBRANCH   7  10
ENDBRANCH   1   7
BRANCH   4  21
ATOM     21  C   UNL     1      43.237   5.258  11.468  0.00  0.00    +0.000 C 
BRANCH  21  22
ATOM     22  O   UNL     1      43.465   4.706  10.174  0.00  0.00    +0.000 OA
BRANCH  22  23
ATOM     23  C   UNL     1      43.969   3.373  10.244  0.00  0.00    +0.000 C 
BRANCH  23  24
ATOM     24  C   UNL     1      45.011   3.167   9.180  0.00  0.00    +0.000 A 
ATOM     25  C   UNL     1      45.507   4.244   8.448  0.00  0.00    +0.000 A 
ATOM     26  N   UNL     1      46.423   4.136   7.458  0.00  0.00    +0.000 NA
ATOM     27  C   UNL     1      46.866   2.886   7.176  0.00  0.00    +0.000 A 
ATOM     28  C   UNL     1      46.424   1.747   7.830  0.00  0.00    +0.000 A 
ATOM     29 CL   UNL     1      47.026   0.197   7.409  0.00  0.00    +0.000 Cl
ATOM     30  C   UNL     1      45.479   1.891   8.839  0.00  0.00    +0.000 A 
ENDBRANCH  23  24
ENDBRANCH  22  23
ENDBRANCH  21  22
ENDBRANCH   4  21
TORSDOF 7
ENDMDL
MODEL 5
REMARK VINA RESULT:    -6.999      2.973      8.735
REMARK INTER + INTRA:         -10.939
REMARK INTER:                  -9.755
REMARK INTRA:                  -1.184
REMARK UNBOUND:                -1.076
REMARK  Name = 
REMARK  7 active torsions:
REMARK  status: ('A' for Active; 'I' for Inactive)
REMARK    1  A    between atoms: C_2  and  C_21
REMARK    2  A    between atoms: N_3  and  C_4
REMARK    3  A    between atoms: C_4  and  C_5
REMARK    4  A    between atoms: C_8  and  C_9
REMARK    5  A    between atoms: C_9  and  O_10
REMARK    6  A    between atoms: O_10  and  C_11
REMARK    7  A    between atoms: C_11  and  C_12
REMARK                            x       y       z     vdW  Elec       q    Type
REMARK                         _______ _______ _______ _____ _____    ______ ____
ROOT
ATOM      1  C   UNL     1      46.121   7.404  12.404  0.00  0.00    +0.000 A 
ATOM      2  C   UNL     1      46.222   8.652  13.033  0.00  0.00    +0.000 A 
ATOM      3  C   UNL     1      47.190   8.878  14.017  0.00  0.00    +0.000 A 
ATOM      4  C   UNL     1      48.087   7.865  14.387  0.00  0.00    +0.000 A 
ATOM      5  C   UNL     1      47.997   6.624  13.744  0.00  0.00    +0.000 A 
ATOM      6  C   UNL     1      47.029   6.397  12.759  0.00  0.00    +0.000 A 
ENDROOT
BRANCH   1   7
ATOM      7  C   UNL     1      45.076   7.153  11.348  0.00  0.00    +0.000 C 
BRANCH   7  10
ATOM      8  O   UNL     1      43.068   5.350  10.641  0.00  0.00    +0.000 OA
ATOM      9  C   UNL     1      44.230   5.048  10.387  0.00  0.00    +0.000 C 
ATOM     10  N   UNL     1      45.277   5.880  10.703  0.00  0.00    +0.000 N 
ATOM     11  H   UNL     1      46.222   5.594  10.461  0.00  0.00    +0.000 HD
BRANCH   9  12
ATOM     12  C   UNL     1      44.591   3.812   9.745  0.00  0.00    +0.000 A 
ATOM     13  C   UNL     1      44.123   2.541  10.026  0.00  0.00    +0.000 A 
ATOM     14  N   UNL     1      44.681   1.598   9.200  0.00  0.00    +0.000 NA
ATOM     15  C   UNL     1      45.493   2.259   8.404  0.00  0.00    +0.000 A 
ATOM     16  N   UNL     1      46.273   1.771   7.399  0.00  0.00    +0.000 NA
ATOM     17  C   UNL     1      46.986   2.658   6.784  0.00  0.00    +0.000 A 
ATOM     18  C   UNL     1      46.964   4.114   7.152  0.00  0.00    +0.000 A 
ATOM     19  N   UNL     1      46.219   4.598   8.095  0.00  0.00    +0.000 NA
ATOM     20  N   UNL     1      45.476   3.619   8.714  0.00  0.00    +0.000 N 
ENDBRANCH   9  12
ENDBRANCH   7  10
ENDBRANCH   1   7
BRANCH   4  21
ATOM     21  C   UNL     1      49.143   8.115  15.435  0.00  0.00    +0.000 C 
BRANCH  21  22
ATOM     22  O   UNL     1      48.699   7.606  16.690  0.00  0.00    +0.000 OA
BRANCH  22  23
ATOM     23  C   UNL     1      49.678   6.767  17.302  0.00  0.00    +0.000 C 
BRANCH  23  24
ATOM     24  C   UNL     1      49.243   5.331  17.215  0.00  0.00    +0.000 A 
ATOM     25  C   UNL     1      47.897   4.999  17.072  0.00  0.00    +0.000 A 
ATOM     26  N   UNL     1      47.425   3.732  17.015  0.00  0.00    +0.000 NA
ATOM     27  C   UNL     1      48.343   2.740  17.113  0.00  0.00    +0.000 A 
ATOM     28  C   UNL     1      49.701   2.960  17.276  0.00  0.00    +0.000 A 
ATOM     29 CL   UNL     1      50.800   1.649  17.402  0.00  0.00    +0.000 Cl
ATOM     30  C   UNL     1      50.154   4.272  17.336  0.00  0.00    +0.000 A 
ENDBRANCH  23  24
ENDBRANCH  22  23
ENDBRANCH  21  22
ENDBRANCH   4  21
TORSDOF 7
ENDMDL
MODEL 6
REMARK VINA RESULT:    -6.911      1.925      2.269
REMARK INTER + INTRA:         -10.815
REMARK INTER:                  -9.782
REMARK INTRA:                  -1.033
REMARK UNBOUND:                -1.076
REMARK  Name = 
REMARK  7 active torsions:
REMARK  status: ('A' for Active; 'I' for Inactive)
REMARK    1  A    between atoms: C_2  and  C_21
REMARK    2  A    between atoms: N_3  and  C_4
REMARK    3  A    between atoms: C_4  and  C_5
REMARK    4  A    between atoms: C_8  and  C_9
REMARK    5  A    between atoms: C_9  and  O_10
REMARK    6  A    between atoms: O_10  and  C_11
REMARK    7  A    between atoms: C_11  and  C_12
REMARK                            x       y       z     vdW  Elec       q    Type
REMARK                         _______ _______ _______ _____ _____    ______ ____
ROOT
ATOM      1  C   UNL     1      47.316   6.225  13.862  0.00  0.00    +0.000 A 
ATOM      2  C   UNL     1      46.503   7.117  13.150  0.00  0.00    +0.000 A 
ATOM      3  C   UNL     1      45.307   6.683  12.568  0.00  0.00    +0.000 A 
ATOM      4  C   UNL     1      44.891   5.351  12.693  0.00  0.00    +0.000 A 
ATOM      5  C   UNL     1      45.695   4.464  13.421  0.00  0.00    +0.000 A 
ATOM      6  C   UNL     1      46.891   4.897  14.004  0.00  0.00    +0.000 A 
ENDROOT
BRANCH   1   7
ATOM      7  C   UNL     1      48.608   6.685  14.485  0.00  0.00    +0.000 C 
BRANCH   7  10
ATOM      8  O   UNL     1      49.796   8.574  16.159  0.00  0.00    +0.000 OA
ATOM      9  C   UNL     1      49.133   7.680  16.677  0.00  0.00    +0.000 C 
ATOM     10  N   UNL     1      48.517   6.711  15.923  0.00  0.00    +0.000 N 
ATOM     11  H   UNL     1      47.966   5.998  16.395  0.00  0.00    +0.000 HD
BRANCH   9  12
ATOM     12  C   UNL     1      48.948   7.573  18.100  0.00  0.00    +0.000 A 
ATOM     13  C   UNL     1      48.782   8.597  19.014  0.00  0.00    +0.000 A 
ATOM     14  N   UNL     1      48.620   8.121  20.290  0.00  0.00    +0.000 NA
ATOM     15  C   UNL     1      48.682   6.811  20.190  0.00  0.00    +0.000 A 
ATOM     16  N   UNL     1      48.566   5.882  21.181  0.00  0.00    +0.000 NA
ATOM     17  C   UNL     1      48.681   4.654  20.791  0.00  0.00    +0.000 A 
ATOM     18  C   UNL     1      48.929   4.277  19.358  0.00  0.00    +0.000 A 
ATOM     19  N   UNL     1      49.029   5.145  18.403  0.00  0.00    +0.000 NA
ATOM     20  N   UNL     1      48.894   6.434  18.864  0.00  0.00    +0.000 N 
ENDBRANCH   9  12
ENDBRANCH   7  10
ENDBRANCH   1   7
BRANCH   4  21
ATOM     21  C   UNL     1      43.592   4.888  12.081  0.00  0.00    +0.000 C 
BRANCH  21  22
ATOM     22  O   UNL     1      43.754   4.740  10.673  0.00  0.00    +0.000 OA
BRANCH  22  23
ATOM     23  C   UNL     1      43.865   3.370  10.290  0.00  0.00    +0.000 C 
BRANCH  23  24
ATOM     24  C   UNL     1      44.917   3.224   9.225  0.00  0.00    +0.000 A 
ATOM     25  C   UNL     1      45.365   4.331   8.506  0.00  0.00    +0.000 A 
ATOM     26  N   UNL     1      46.286   4.275   7.517  0.00  0.00    +0.000 NA
ATOM     27  C   UNL     1      46.785   3.050   7.222  0.00  0.00    +0.000 A 
ATOM     28  C   UNL     1      46.395   1.885   7.863  0.00  0.00    +0.000 A 
ATOM     29 CL   UNL     1      47.067   0.369   7.425  0.00  0.00    +0.000 Cl
ATOM     30  C   UNL     1      45.443   1.974   8.871  0.00  0.00    +0.000 A 
ENDBRANCH  23  24
ENDBRANCH  22  23
ENDBRANCH  21  22
ENDBRANCH   4  21
TORSDOF 7
ENDMDL
MODEL 7
REMARK VINA RESULT:    -6.748      3.882      8.187
REMARK INTER + INTRA:         -10.585
REMARK INTER:                  -9.099
REMARK INTRA:                  -1.486
REMARK UNBOUND:                -1.076
REMARK  Name = 
REMARK  7 active torsions:
REMARK  status: ('A' for Active; 'I' for Inactive)
REMARK    1  A    between atoms: C_2  and  C_21
REMARK    2  A    between atoms: N_3  and  C_4
REMARK    3  A    between atoms: C_4  and  C_5
REMARK    4  A    between atoms: C_8  and  C_9
REMARK    5  A    between atoms: C_9  and  O_10
REMARK    6  A    between atoms: O_10  and  C_11
REMARK    7  A    between atoms: C_11  and  C_12
REMARK                            x       y       z     vdW  Elec       q    Type
REMARK                         _______ _______ _______ _____ _____    ______ ____
ROOT
ATOM      1  C   UNL     1      48.213   8.040  13.796  0.00  0.00    +0.000 A 
ATOM      2  C   UNL     1      48.713   6.859  14.359  0.00  0.00    +0.000 A 
ATOM      3  C   UNL     1      49.040   6.800  15.718  0.00  0.00    +0.000 A 
ATOM      4  C   UNL     1      48.863   7.915  16.548  0.00  0.00    +0.000 A 
ATOM      5  C   UNL     1      48.344   9.090  15.987  0.00  0.00    +0.000 A 
ATOM      6  C   UNL     1      48.018   9.151  14.628  0.00  0.00    +0.000 A 
ENDROOT
BRANCH   1   7
ATOM      7  C   UNL     1      47.867   8.112  12.331  0.00  0.00    +0.000 C 
BRANCH   7  10
ATOM      8  O   UNL     1      45.164   8.741  12.616  0.00  0.00    +0.000 OA
ATOM      9  C   UNL     1      45.455   7.632  12.180  0.00  0.00    +0.000 C 
ATOM     10  N   UNL     1      46.762   7.244  12.010  0.00  0.00    +0.000 N 
ATOM     11  H   UNL     1      46.956   6.320  11.632  0.00  0.00    +0.000 HD
BRANCH   9  12
ATOM     12  C   UNL     1      44.465   6.655  11.813  0.00  0.00    +0.000 A 
ATOM     13  C   UNL     1      43.217   6.877  11.260  0.00  0.00    +0.000 A 
ATOM     14  N   UNL     1      42.544   5.704  11.030  0.00  0.00    +0.000 NA
ATOM     15  C   UNL     1      43.352   4.747  11.431  0.00  0.00    +0.000 A 
ATOM     16  N   UNL     1      43.147   3.400  11.401  0.00  0.00    +0.000 NA
ATOM     17  C   UNL     1      44.118   2.691  11.876  0.00  0.00    +0.000 A 
ATOM     18  C   UNL     1      45.375   3.302  12.426  0.00  0.00    +0.000 A 
ATOM     19  N   UNL     1      45.593   4.579  12.450  0.00  0.00    +0.000 NA
ATOM     20  N   UNL     1      44.537   5.289  11.929  0.00  0.00    +0.000 N 
ENDBRANCH   9  12
ENDBRANCH   7  10
ENDBRANCH   1   7
BRANCH   4  21
ATOM     21  C   UNL     1      49.197   7.845  18.017  0.00  0.00    +0.000 C 
BRANCH  21  22
ATOM     22  O   UNL     1      48.102   7.274  18.728  0.00  0.00    +0.000 OA
BRANCH  22  23
ATOM     23  C   UNL     1      48.477   6.083  19.419  0.00  0.00    +0.000 C 
BRANCH  23  24
ATOM     24  C   UNL     1      48.333   4.898  18.505  0.00  0.00    +0.000 A 
ATOM     25  C   UNL     1      47.098   4.572  17.947  0.00  0.00    +0.000 A 
ATOM     26  N   UNL     1      46.883   3.508  17.140  0.00  0.00    +0.000 NA
ATOM     27  C   UNL     1      47.955   2.720  16.878  0.00  0.00    +0.000 A 
ATOM     28  C   UNL     1      49.220   2.945  17.396  0.00  0.00    +0.000 A 
ATOM     29 CL   UNL     1      50.525   1.895  17.026  0.00  0.00    +0.000 Cl
ATOM     30  C   UNL     1      49.407   4.043  18.226  0.00  0.00    +0.000 A 
ENDBRANCH  23  24
ENDBRANCH  22  23
ENDBRANCH  21  22
ENDBRANCH   4  21
TORSDOF 7
ENDMDL
MODEL 8
REMARK VINA RESULT:    -6.649      3.455      8.425
REMARK INTER + INTRA:         -10.445
REMARK INTER:                  -9.125
REMARK INTRA:                  -1.320
REMARK UNBOUND:                -1.076
REMARK  Name = 
REMARK  7 active torsions:
REMARK  status: ('A' for Active; 'I' for Inactive)
REMARK    1  A    between atoms: C_2  and  C_21
REMARK    2  A    between atoms: N_3  and  C_4
REMARK    3  A    between atoms: C_4  and  C_5
REMARK    4  A    between atoms: C_8  and  C_9
REMARK    5  A    between atoms: C_9  and  O_10
REMARK    6  A    between atoms: O_10  and  C_11
REMARK    7  A    between atoms: C_11  and  C_12
REMARK                            x       y       z     vdW  Elec       q    Type
REMARK                         _______ _______ _______ _____ _____    ______ ____
ROOT
ATOM      1  C   UNL     1      48.374   8.100  13.318  0.00  0.00    +0.000 A 
ATOM      2  C   UNL     1      47.799   8.724  14.432  0.00  0.00    +0.000 A 
ATOM      3  C   UNL     1      48.486   8.786  15.650  0.00  0.00    +0.000 A 
ATOM      4  C   UNL     1      49.769   8.235  15.778  0.00  0.00    +0.000 A 
ATOM      5  C   UNL     1      50.351   7.627  14.657  0.00  0.00    +0.000 A 
ATOM      6  C   UNL     1      49.664   7.565  13.440  0.00  0.00    +0.000 A 
ENDROOT
BRANCH   1   7
ATOM      7  C   UNL     1      47.636   8.024  12.007  0.00  0.00    +0.000 C 
BRANCH   7  10
ATOM      8  O   UNL     1      45.009   7.476  12.771  0.00  0.00    +0.000 OA
ATOM      9  C   UNL     1      45.662   6.571  12.260  0.00  0.00    +0.000 C 
ATOM     10  N   UNL     1      46.962   6.759  11.857  0.00  0.00    +0.000 N 
ATOM     11  H   UNL     1      47.460   5.984  11.425  0.00  0.00    +0.000 HD
BRANCH   9  12
ATOM     12  C   UNL     1      45.128   5.253  12.042  0.00  0.00    +0.000 A 
ATOM     13  C   UNL     1      44.626   4.374  12.984  0.00  0.00    +0.000 A 
ATOM     14  N   UNL     1      44.190   3.206  12.412  0.00  0.00    +0.000 NA
ATOM     15  C   UNL     1      44.412   3.339  11.122  0.00  0.00    +0.000 A 
ATOM     16  N   UNL     1      44.141   2.453  10.123  0.00  0.00    +0.000 NA
ATOM     17  C   UNL     1      44.480   2.848   8.939  0.00  0.00    +0.000 A 
ATOM     18  C   UNL     1      45.129   4.178   8.682  0.00  0.00    +0.000 A 
ATOM     19  N   UNL     1      45.381   5.038   9.617  0.00  0.00    +0.000 NA
ATOM     20  N   UNL     1      44.998   4.577  10.855  0.00  0.00    +0.000 N 
ENDBRANCH   9  12
ENDBRANCH   7  10
ENDBRANCH   1   7
BRANCH   4  21
ATOM     21  C   UNL     1      50.518   8.318  17.085  0.00  0.00    +0.000 C 
BRANCH  21  22
ATOM     22  O   UNL     1      50.154   7.218  17.913  0.00  0.00    +0.000 OA
BRANCH  22  23
ATOM     23  C   UNL     1      51.185   6.234  17.977  0.00  0.00    +0.000 C 
BRANCH  23  24
ATOM     24  C   UNL     1      50.628   4.888  17.604  0.00  0.00    +0.000 A 
ATOM     25  C   UNL     1      49.308   4.755  17.177  0.00  0.00    +0.000 A 
ATOM     26  N   UNL     1      48.727   3.577  16.851  0.00  0.00    +0.000 NA
ATOM     27  C   UNL     1      49.500   2.469  16.963  0.00  0.00    +0.000 A 
ATOM     28  C   UNL     1      50.816   2.489  17.395  0.00  0.00    +0.000 A 
ATOM     29 CL   UNL     1      51.727   1.041  17.520  0.00  0.00    +0.000 Cl
ATOM     30  C   UNL     1      51.382   3.714  17.728  0.00  0.00    +0.000 A 
ENDBRANCH  23  24
ENDBRANCH  22  23
ENDBRANCH  21  22
ENDBRANCH   4  21
TORSDOF 7
ENDMDL
MODEL 9
REMARK VINA RESULT:    -6.580      3.300      8.372
REMARK INTER + INTRA:         -10.348
REMARK INTER:                  -8.854
REMARK INTRA:                  -1.494
REMARK UNBOUND:                -1.076
REMARK  Name = 
REMARK  7 active torsions:
REMARK  status: ('A' for Active; 'I' for Inactive)
REMARK    1  A    between atoms: C_2  and  C_21
REMARK    2  A    between atoms: N_3  and  C_4
REMARK    3  A    between atoms: C_4  and  C_5
REMARK    4  A    between atoms: C_8  and  C_9
REMARK    5  A    between atoms: C_9  and  O_10
REMARK    6  A    between atoms: O_10  and  C_11
REMARK    7  A    between atoms: C_11  and  C_12
REMARK                            x       y       z     vdW  Elec       q    Type
REMARK                         _______ _______ _______ _____ _____    ______ ____
ROOT
ATOM      1  C   UNL     1      48.417   8.173  13.284  0.00  0.00    +0.000 A 
ATOM      2  C   UNL     1      47.905   8.850  14.399  0.00  0.00    +0.000 A 
ATOM      3  C   UNL     1      48.632   8.907  15.593  0.00  0.00    +0.000 A 
ATOM      4  C   UNL     1      49.890   8.298  15.697  0.00  0.00    +0.000 A 
ATOM      5  C   UNL     1      50.409   7.638  14.575  0.00  0.00    +0.000 A 
ATOM      6  C   UNL     1      49.683   7.581  13.381  0.00  0.00    +0.000 A 
ENDROOT
BRANCH   1   7
ATOM      7  C   UNL     1      47.636   8.103  11.997  0.00  0.00    +0.000 C 
BRANCH   7  10
ATOM      8  O   UNL     1      45.057   7.466  12.848  0.00  0.00    +0.000 OA
ATOM      9  C   UNL     1      45.714   6.590  12.292  0.00  0.00    +0.000 C 
ATOM     10  N   UNL     1      46.992   6.823  11.844  0.00  0.00    +0.000 N 
ATOM     11  H   UNL     1      47.493   6.071  11.377  0.00  0.00    +0.000 HD
BRANCH   9  12
ATOM     12  C   UNL     1      45.208   5.263  12.065  0.00  0.00    +0.000 A 
ATOM     13  C   UNL     1      44.729   4.365  13.002  0.00  0.00    +0.000 A 
ATOM     14  N   UNL     1      44.316   3.193  12.421  0.00  0.00    +0.000 NA
ATOM     15  C   UNL     1      44.530   3.341  11.132  0.00  0.00    +0.000 A 
ATOM     16  N   UNL     1      44.274   2.458  10.126  0.00  0.00    +0.000 NA
ATOM     17  C   UNL     1      44.599   2.870   8.945  0.00  0.00    +0.000 A 
ATOM     18  C   UNL     1      45.217   4.216   8.696  0.00  0.00    +0.000 A 
ATOM     19  N   UNL     1      45.455   5.074   9.637  0.00  0.00    +0.000 NA
ATOM     20  N   UNL     1      45.087   4.594  10.873  0.00  0.00    +0.000 N 
ENDBRANCH   9  12
ENDBRANCH   7  10
ENDBRANCH   1   7
BRANCH   4  21
ATOM     21  C   UNL     1      50.681   8.376  16.980  0.00  0.00    +0.000 C 
BRANCH  21  22
ATOM     22  O   UNL     1      50.230   7.368  17.880  0.00  0.00    +0.000 OA
BRANCH  22  23
ATOM     23  C   UNL     1      51.180   6.314  18.020  0.00  0.00    +0.000 C 
BRANCH  23  24
ATOM     24  C   UNL     1      50.528   4.996  17.707  0.00  0.00    +0.000 A 
ATOM     25  C   UNL     1      51.294   3.848  17.509  0.00  0.00    +0.000 A 
ATOM     26  N   UNL     1      50.783   2.635  17.198  0.00  0.00    +0.000 NA
ATOM     27  C   UNL     1      49.435   2.560  17.069  0.00  0.00    +0.000 A 
ATOM     28  C   UNL     1      48.586   3.643  17.226  0.00  0.00    +0.000 A 
ATOM     29 CL   UNL     1      46.889   3.470  17.037  0.00  0.00    +0.000 Cl
ATOM     30  C   UNL     1      49.141   4.877  17.541  0.00  0.00    +0.000 A 
ENDBRANCH  23  24
ENDBRANCH  22  23
ENDBRANCH  21  22
ENDBRANCH   4  21
TORSDOF 7
ENDMDL
