MODEL 1
REMARK VINA RESULT:    -7.771      0.000      0.000
REMARK INTER + INTRA:         -12.099
REMARK INTER:                 -10.951
REMARK INTRA:                  -1.149
REMARK UNBOUND:                -1.149
REMARK  Name = 
REMARK  7 active torsions:
REMARK  status: ('A' for Active; 'I' for Inactive)
REMARK    1  A    between atoms: C_2  and  C_20
REMARK    2  A    between atoms: N_3  and  C_4
REMARK    3  A    between atoms: C_4  and  C_5
REMARK    4  A    between atoms: C_8  and  C_9
REMARK    5  A    between atoms: C_9  and  N_10
REMARK    6  A    between atoms: N_10  and  C_11
REMARK    7  A    between atoms: C_11  and  C_12
REMARK                            x       y       z     vdW  Elec       q    Type
REMARK                         _______ _______ _______ _____ _____    ______ ____
ROOT
ATOM      1  C   UNL     1      46.872   7.520  13.089  0.00  0.00    +0.000 C 
ENDROOT
BRANCH   1   2
ATOM      2  C   UNL     1      45.967   6.494  12.468  0.00  0.00    +0.000 A 
ATOM      3  C   UNL     1      46.055   6.219  11.108  0.00  0.00    +0.000 A 
ATOM      4  N   UNL     1      45.268   5.309  10.495  0.00  0.00    +0.000 NA
ATOM      5  C   UNL     1      44.377   4.660  11.295  0.00  0.00    +0.000 A 
ATOM      6  C   UNL     1      44.259   4.968  12.645  0.00  0.00    +0.000 A 
ATOM      7  N   UNL     1      45.043   5.885  13.258  0.00  0.00    +0.000 NA
BRANCH   5   8
ATOM      8  C   UNL     1      43.522   3.573  10.681  0.00  0.00    +0.000 C 
BRANCH   8   9
ATOM      9  N   UNL     1      43.881   3.228   9.292  0.00  0.00    +0.000 NA
ATOM     10  H   UNL     1      44.428   4.017   8.937  0.00  0.00    +0.000 HD
BRANCH   9  11
ATOM     11  C   UNL     1      44.728   2.029   9.219  0.00  0.00    +0.000 C 
BRANCH  11  12
ATOM     12  C   UNL     1      45.982   2.303   8.370  0.00  0.00    +0.000 C 
ATOM     13  C   UNL     1      45.713   3.324   7.256  0.00  0.00    +0.000 C 
ATOM     14  C   UNL     1      46.930   3.470   6.351  0.00  0.00    +0.000 C 
ATOM     15  O   UNL     1      47.318   2.206   5.813  0.00  0.00    +0.000 OA
ATOM     16  C   UNL     1      47.691   1.282   6.832  0.00  0.00    +0.000 C 
ATOM     17  C   UNL     1      46.516   0.999   7.758  0.00  0.00    +0.000 C 
ENDBRANCH  11  12
ENDBRANCH   9  11
ENDBRANCH   8   9
ENDBRANCH   5   8
ENDBRANCH   1   2
BRANCH   1  20
ATOM     18  O   UNL     1      49.515   6.797  13.740  0.00  0.00    +0.000 OA
ATOM     19  C   UNL     1      48.646   6.715  14.602  0.00  0.00    +0.000 C 
ATOM     20  N   UNL     1      47.352   7.089  14.377  0.00  0.00    +0.000 N 
ATOM     21  H   UNL     1      46.653   6.996  15.103  0.00  0.00    +0.000 HD
BRANCH  19  22
ATOM     22  C   UNL     1      48.942   6.256  15.959  0.00  0.00    +0.000 A 
ATOM     23  C   UNL     1      49.823   6.953  16.770  0.00  0.00    +0.000 A 
ATOM     24  S   UNL     1      50.006   6.260  18.320  0.00  0.00    +0.000 S 
ATOM     25  C   UNL     1      48.934   4.992  17.944  0.00  0.00    +0.000 A 
ATOM     26  N   UNL     1      48.639   4.025  18.857  0.00  0.00    +0.000 NA
ATOM     27  C   UNL     1      47.819   3.123  18.424  0.00  0.00    +0.000 A 
ATOM     28  N   UNL     1      47.271   3.096  17.167  0.00  0.00    +0.000 N 
ATOM     29  C   UNL     1      47.541   4.048  16.219  0.00  0.00    +0.000 A 
ATOM     30  O   UNL     1      47.013   3.998  15.115  0.00  0.00    +0.000 OA
ATOM     31  C   UNL     1      48.444   5.096  16.656  0.00  0.00    +0.000 A 
ATOM     32  H   UNL     1      46.628   2.367  16.896  0.00  0.00    +0.000 HD
ENDBRANCH  19  22
ENDBRANCH   1  20
TORSDOF 7
ENDMDL
MODEL 2
REMARK VINA RESULT:    -7.343      2.252      3.442
REMARK INTER + INTRA:         -11.496
REMARK INTER:                 -10.550
REMARK INTRA:                  -0.946
REMARK UNBOUND:                -1.149
REMARK  Name = 
REMARK  7 active torsions:
REMARK  status: ('A' for Active; 'I' for Inactive)
REMARK    1  A    between atoms: C_2  and  C_20
REMARK    2  A    between atoms: N_3  and  C_4
REMARK    3  A    between atoms: C_4  and  C_5
REMARK    4  A    between atoms: C_8  and  C_9
REMARK    5  A    between atoms: C_9  and  N_10
REMARK    6  A    between atoms: N_10  and  C_11
REMARK    7  A    between atoms: C_11  and  C_12
REMARK                            x       y       z     vdW  Elec       q    Type
REMARK                         _______ _______ _______ _____ _____    ______ ____
ROOT
ATOM      1  C   UNL     1      47.405   3.948  15.233  0.00  0.00    +0.000 C 
ENDROOT
BRANCH   1   2
ATOM      2  C   UNL     1      46.689   4.320  13.967  0.00  0.00    +0.000 A 
ATOM      3  C   UNL     1      46.673   5.642  13.537  0.00  0.00    +0.000 A 
ATOM      4  N   UNL     1      46.045   6.036  12.409  0.00  0.00    +0.000 NA
ATOM      5  C   UNL     1      45.429   5.052  11.698  0.00  0.00    +0.000 A 
ATOM      6  C   UNL     1      45.407   3.738  12.152  0.00  0.00    +0.000 A 
ATOM      7  N   UNL     1      46.030   3.345  13.287  0.00  0.00    +0.000 NA
BRANCH   5   8
ATOM      8  C   UNL     1      44.775   5.418  10.384  0.00  0.00    +0.000 C 
BRANCH   8   9
ATOM      9  N   UNL     1      45.449   4.863   9.194  0.00  0.00    +0.000 NA
ATOM     10  H   UNL     1      46.289   4.391   9.539  0.00  0.00    +0.000 HD
BRANCH   9  11
ATOM     11  C   UNL     1      44.623   3.859   8.508  0.00  0.00    +0.000 C 
BRANCH  11  12
ATOM     12  C   UNL     1      45.501   2.927   7.655  0.00  0.00    +0.000 C 
ATOM     13  C   UNL     1      45.900   1.654   8.414  0.00  0.00    +0.000 C 
ATOM     14  C   UNL     1      46.879   0.821   7.597  0.00  0.00    +0.000 C 
ATOM     15  O   UNL     1      48.026   1.590   7.237  0.00  0.00    +0.000 OA
ATOM     16  C   UNL     1      47.686   2.710   6.425  0.00  0.00    +0.000 C 
ATOM     17  C   UNL     1      46.764   3.661   7.177  0.00  0.00    +0.000 C 
ENDBRANCH  11  12
ENDBRANCH   9  11
ENDBRANCH   8   9
ENDBRANCH   5   8
ENDBRANCH   1   2
BRANCH   1  20
ATOM     18  O   UNL     1      49.611   4.784  16.772  0.00  0.00    +0.000 OA
ATOM     19  C   UNL     1      48.537   5.363  16.907  0.00  0.00    +0.000 C 
ATOM     20  N   UNL     1      47.435   5.045  16.165  0.00  0.00    +0.000 N 
ATOM     21  H   UNL     1      46.559   5.530  16.309  0.00  0.00    +0.000 HD
BRANCH  19  22
ATOM     22  C   UNL     1      48.370   6.476  17.840  0.00  0.00    +0.000 A 
ATOM     23  C   UNL     1      48.246   6.253  19.202  0.00  0.00    +0.000 A 
ATOM     24  S   UNL     1      48.086   7.690  20.110  0.00  0.00    +0.000 S 
ATOM     25  C   UNL     1      48.150   8.653  18.708  0.00  0.00    +0.000 A 
ATOM     26  N   UNL     1      48.068  10.011  18.781  0.00  0.00    +0.000 NA
ATOM     27  C   UNL     1      48.120  10.605  17.634  0.00  0.00    +0.000 A 
ATOM     28  N   UNL     1      48.243   9.972  16.424  0.00  0.00    +0.000 N 
ATOM     29  C   UNL     1      48.329   8.609  16.305  0.00  0.00    +0.000 A 
ATOM     30  O   UNL     1      48.459   8.084  15.206  0.00  0.00    +0.000 OA
ATOM     31  C   UNL     1      48.292   7.890  17.564  0.00  0.00    +0.000 A 
ATOM     32  H   UNL     1      48.289  10.497  15.564  0.00  0.00    +0.000 HD
ENDBRANCH  19  22
ENDBRANCH   1  20
TORSDOF 7
ENDMDL
MODEL 3
REMARK VINA RESULT:    -7.261      2.256      3.901
REMARK INTER + INTRA:         -11.381
REMARK INTER:                 -10.377
REMARK INTRA:                  -1.005
REMARK UNBOUND:                -1.149
REMARK  Name = 
REMARK  7 active torsions:
REMARK  status: ('A' for Active; 'I' for Inactive)
REMARK    1  A    between atoms: C_2  and  C_20
REMARK    2  A    between atoms: N_3  and  C_4
REMARK    3  A    between atoms: C_4  and  C_5
REMARK    4  A    between atoms: C_8  and  C_9
REMARK    5  A    between atoms: C_9  and  N_10
REMARK    6  A    between atoms: N_10  and  C_11
REMARK    7  A    between atoms: C_11  and  C_12
REMARK                            x       y       z     vdW  Elec       q    Type
REMARK                         _______ _______ _______ _____ _____    ______ ____
ROOT
ATOM      1  C   UNL     1      47.238   4.731  14.673  0.00  0.00    +0.000 C 
ENDROOT
BRANCH   1   2
ATOM      2  C   UNL     1      46.233   4.636  13.561  0.00  0.00    +0.000 A 
ATOM      3  C   UNL     1      45.692   5.792  13.009  0.00  0.00    +0.000 A 
ATOM      4  N   UNL     1      44.784   5.768  12.009  0.00  0.00    +0.000 NA
ATOM      5  C   UNL     1      44.431   4.533  11.558  0.00  0.00    +0.000 A 
ATOM      6  C   UNL     1      44.939   3.378  12.141  0.00  0.00    +0.000 A 
ATOM      7  N   UNL     1      45.842   3.401  13.147  0.00  0.00    +0.000 NA
BRANCH   5   8
ATOM      8  C   UNL     1      43.478   4.443  10.386  0.00  0.00    +0.000 C 
BRANCH   8   9
ATOM      9  N   UNL     1      43.918   3.532   9.312  0.00  0.00    +0.000 NA
ATOM     10  H   UNL     1      43.103   3.388   8.711  0.00  0.00    +0.000 HD
BRANCH   9  11
ATOM     11  C   UNL     1      44.982   4.123   8.487  0.00  0.00    +0.000 C 
BRANCH  11  12
ATOM     12  C   UNL     1      45.671   3.040   7.637  0.00  0.00    +0.000 C 
ATOM     13  C   UNL     1      45.964   1.769   8.447  0.00  0.00    +0.000 C 
ATOM     14  C   UNL     1      46.766   0.773   7.619  0.00  0.00    +0.000 C 
ATOM     15  O   UNL     1      47.970   1.368   7.134  0.00  0.00    +0.000 OA
ATOM     16  C   UNL     1      47.711   2.477   6.277  0.00  0.00    +0.000 C 
ATOM     17  C   UNL     1      46.975   3.578   7.029  0.00  0.00    +0.000 C 
ENDBRANCH  11  12
ENDBRANCH   9  11
ENDBRANCH   8   9
ENDBRANCH   5   8
ENDBRANCH   1   2
BRANCH   1  20
ATOM     18  O   UNL     1      49.383   5.571  16.293  0.00  0.00    +0.000 OA
ATOM     19  C   UNL     1      48.724   6.415  15.692  0.00  0.00    +0.000 C 
ATOM     20  N   UNL     1      47.699   6.083  14.853  0.00  0.00    +0.000 N 
ATOM     21  H   UNL     1      47.164   6.802  14.383  0.00  0.00    +0.000 HD
BRANCH  19  22
ATOM     22  C   UNL     1      49.022   7.844  15.790  0.00  0.00    +0.000 A 
ATOM     23  C   UNL     1      48.950   8.506  17.005  0.00  0.00    +0.000 A 
ATOM     24  S   UNL     1      49.361  10.160  16.898  0.00  0.00    +0.000 S 
ATOM     25  C   UNL     1      49.622  10.047  15.219  0.00  0.00    +0.000 A 
ATOM     26  N   UNL     1      50.008  11.132  14.492  0.00  0.00    +0.000 NA
ATOM     27  C   UNL     1      50.156  10.895  13.228  0.00  0.00    +0.000 A 
ATOM     28  N   UNL     1      49.953   9.680  12.627  0.00  0.00    +0.000 N 
ATOM     29  C   UNL     1      49.565   8.563  13.321  0.00  0.00    +0.000 A 
ATOM     30  O   UNL     1      49.416   7.491  12.748  0.00  0.00    +0.000 OA
ATOM     31  C   UNL     1      49.400   8.767  14.747  0.00  0.00    +0.000 A 
ATOM     32  H   UNL     1      50.097   9.559  11.636  0.00  0.00    +0.000 HD
ENDBRANCH  19  22
ENDBRANCH   1  20
TORSDOF 7
ENDMDL
MODEL 4
REMARK VINA RESULT:    -7.211      2.343      3.046
REMARK INTER + INTRA:         -11.310
REMARK INTER:                 -10.577
REMARK INTRA:                  -0.733
REMARK UNBOUND:                -1.149
REMARK  Name = 
REMARK  7 active torsions:
REMARK  status: ('A' for Active; 'I' for Inactive)
REMARK    1  A    between atoms: C_2  and  C_20
REMARK    2  A    between atoms: N_3  and  C_4
REMARK    3  A    between atoms: C_4  and  C_5
REMARK    4  A    between atoms: C_8  and  C_9
REMARK    5  A    between atoms: C_9  and  N_10
REMARK    6  A    between atoms: N_10  and  C_11
REMARK    7  A    between atoms: C_11  and  C_12
REMARK                            x       y       z     vdW  Elec       q    Type
REMARK                         _______ _______ _______ _____ _____    ______ ____
ROOT
ATOM      1  C   UNL     1      47.334   4.095  15.268  0.00  0.00    +0.000 C 
ENDROOT
BRANCH   1   2
ATOM      2  C   UNL     1      46.720   4.604  13.995  0.00  0.00    +0.000 A 
ATOM      3  C   UNL     1      47.347   5.613  13.273  0.00  0.00    +0.000 A 
ATOM      4  N   UNL     1      46.842   6.112  12.125  0.00  0.00    +0.000 NA
ATOM      5  C   UNL     1      45.674   5.556  11.700  0.00  0.00    +0.000 A 
ATOM      6  C   UNL     1      45.025   4.579  12.446  0.00  0.00    +0.000 A 
ATOM      7  N   UNL     1      45.527   4.085  13.601  0.00  0.00    +0.000 NA
BRANCH   5   8
ATOM      8  C   UNL     1      45.099   6.017  10.378  0.00  0.00    +0.000 C 
BRANCH   8   9
ATOM      9  N   UNL     1      45.583   5.260   9.207  0.00  0.00    +0.000 NA
ATOM     10  H   UNL     1      46.491   4.874   9.476  0.00  0.00    +0.000 HD
BRANCH   9  11
ATOM     11  C   UNL     1      44.699   4.134   8.873  0.00  0.00    +0.000 C 
BRANCH  11  12
ATOM     12  C   UNL     1      45.412   3.151   7.927  0.00  0.00    +0.000 C 
ATOM     13  C   UNL     1      45.774   1.834   8.629  0.00  0.00    +0.000 C 
ATOM     14  C   UNL     1      46.597   0.940   7.711  0.00  0.00    +0.000 C 
ATOM     15  O   UNL     1      47.765   1.621   7.251  0.00  0.00    +0.000 OA
ATOM     16  C   UNL     1      47.442   2.781   6.488  0.00  0.00    +0.000 C 
ATOM     17  C   UNL     1      46.679   3.788   7.338  0.00  0.00    +0.000 C 
ENDBRANCH  11  12
ENDBRANCH   9  11
ENDBRANCH   8   9
ENDBRANCH   5   8
ENDBRANCH   1   2
BRANCH   1  20
ATOM     18  O   UNL     1      49.663   4.852  16.658  0.00  0.00    +0.000 OA
ATOM     19  C   UNL     1      48.605   5.417  16.917  0.00  0.00    +0.000 C 
ATOM     20  N   UNL     1      47.444   5.137  16.255  0.00  0.00    +0.000 N 
ATOM     21  H   UNL     1      46.583   5.608  16.502  0.00  0.00    +0.000 HD
BRANCH  19  22
ATOM     22  C   UNL     1      48.518   6.474  17.924  0.00  0.00    +0.000 A 
ATOM     23  C   UNL     1      48.499   7.809  17.556  0.00  0.00    +0.000 A 
ATOM     24  S   UNL     1      48.369   8.874  18.885  0.00  0.00    +0.000 S 
ATOM     25  C   UNL     1      48.361   7.583  19.994  0.00  0.00    +0.000 A 
ATOM     26  N   UNL     1      48.266   7.807  21.335  0.00  0.00    +0.000 NA
ATOM     27  C   UNL     1      48.284   6.730  22.052  0.00  0.00    +0.000 A 
ATOM     28  N   UNL     1      48.390   5.456  21.556  0.00  0.00    +0.000 N 
ATOM     29  C   UNL     1      48.487   5.186  20.215  0.00  0.00    +0.000 A 
ATOM     30  O   UNL     1      48.558   4.032  19.813  0.00  0.00    +0.000 OA
ATOM     31  C   UNL     1      48.456   6.358  19.361  0.00  0.00    +0.000 A 
ATOM     32  H   UNL     1      48.387   4.656  22.171  0.00  0.00    +0.000 HD
ENDBRANCH  19  22
ENDBRANCH   1  20
TORSDOF 7
ENDMDL
MODEL 5
REMARK VINA RESULT:    -7.129      2.042      2.514
REMARK INTER + INTRA:         -11.195
REMARK INTER:                 -10.254
REMARK INTRA:                  -0.942
REMARK UNBOUND:                -1.149
REMARK  Name = 
REMARK  7 active torsions:
REMARK  status: ('A' for Active; 'I' for Inactive)
REMARK    1  A    between atoms: C_2  and  C_20
REMARK    2  A    between atoms: N_3  and  C_4
REMARK    3  A    between atoms: C_4  and  C_5
REMARK    4  A    between atoms: C_8  and  C_9
REMARK    5  A    between atoms: C_9  and  N_10
REMARK    6  A    between atoms: N_10  and  C_11
REMARK    7  A    between atoms: C_11  and  C_12
REMARK                            x       y       z     vdW  Elec       q    Type
REMARK                         _______ _______ _______ _____ _____    ______ ____
ROOT
ATOM      1  C   UNL     1      48.016   6.782  13.818  0.00  0.00    +0.000 C 
ENDROOT
BRANCH   1   2
ATOM      2  C   UNL     1      46.953   6.016  13.085  0.00  0.00    +0.000 A 
ATOM      3  C   UNL     1      46.682   6.301  11.751  0.00  0.00    +0.000 A 
ATOM      4  N   UNL     1      45.738   5.646  11.042  0.00  0.00    +0.000 NA
ATOM      5  C   UNL     1      45.063   4.671  11.710  0.00  0.00    +0.000 A 
ATOM      6  C   UNL     1      45.303   4.418  13.056  0.00  0.00    +0.000 A 
ATOM      7  N   UNL     1      46.244   5.079  13.769  0.00  0.00    +0.000 NA
BRANCH   5   8
ATOM      8  C   UNL     1      44.048   3.849  10.947  0.00  0.00    +0.000 C 
BRANCH   8   9
ATOM      9  N   UNL     1      44.458   2.453  10.698  0.00  0.00    +0.000 NA
ATOM     10  H   UNL     1      43.781   1.867  11.195  0.00  0.00    +0.000 HD
BRANCH   9  11
ATOM     11  C   UNL     1      44.391   2.102   9.272  0.00  0.00    +0.000 C 
BRANCH  11  12
ATOM     12  C   UNL     1      45.745   2.361   8.589  0.00  0.00    +0.000 C 
ATOM     13  C   UNL     1      45.656   3.469   7.531  0.00  0.00    +0.000 C 
ATOM     14  C   UNL     1      46.973   3.606   6.777  0.00  0.00    +0.000 C 
ATOM     15  O   UNL     1      47.356   2.362   6.193  0.00  0.00    +0.000 OA
ATOM     16  C   UNL     1      47.566   1.351   7.175  0.00  0.00    +0.000 C 
ATOM     17  C   UNL     1      46.281   1.073   7.944  0.00  0.00    +0.000 C 
ENDBRANCH  11  12
ENDBRANCH   9  11
ENDBRANCH   8   9
ENDBRANCH   5   8
ENDBRANCH   1   2
BRANCH   1  20
ATOM     18  O   UNL     1      50.221   6.534  15.552  0.00  0.00    +0.000 OA
ATOM     19  C   UNL     1      49.090   6.378  16.001  0.00  0.00    +0.000 C 
ATOM     20  N   UNL     1      47.970   6.526  15.234  0.00  0.00    +0.000 N 
ATOM     21  H   UNL     1      47.050   6.376  15.628  0.00  0.00    +0.000 HD
BRANCH  19  22
ATOM     22  C   UNL     1      48.852   6.070  17.411  0.00  0.00    +0.000 A 
ATOM     23  C   UNL     1      49.107   4.806  17.918  0.00  0.00    +0.000 A 
ATOM     24  S   UNL     1      48.784   4.670  19.589  0.00  0.00    +0.000 S 
ATOM     25  C   UNL     1      48.268   6.290  19.681  0.00  0.00    +0.000 A 
ATOM     26  N   UNL     1      47.849   6.831  20.859  0.00  0.00    +0.000 NA
ATOM     27  C   UNL     1      47.478   8.067  20.770  0.00  0.00    +0.000 A 
ATOM     28  N   UNL     1      47.484   8.809  19.617  0.00  0.00    +0.000 N 
ATOM     29  C   UNL     1      47.897   8.305  18.411  0.00  0.00    +0.000 A 
ATOM     30  O   UNL     1      47.907   9.009  17.409  0.00  0.00    +0.000 OA
ATOM     31  C   UNL     1      48.341   6.925  18.455  0.00  0.00    +0.000 A 
ATOM     32  H   UNL     1      47.191   9.775  19.619  0.00  0.00    +0.000 HD
ENDBRANCH  19  22
ENDBRANCH   1  20
TORSDOF 7
ENDMDL
MODEL 6
REMARK VINA RESULT:    -7.108      2.692      4.589
REMARK INTER + INTRA:         -11.165
REMARK INTER:                 -10.069
REMARK INTRA:                  -1.097
REMARK UNBOUND:                -1.149
REMARK  Name = 
REMARK  7 active torsions:
REMARK  status: ('A' for Active; 'I' for Inactive)
REMARK    1  A    between atoms: C_2  and  C_20
REMARK    2  A    between atoms: N_3  and  C_4
REMARK    3  A    between atoms: C_4  and  C_5
REMARK    4  A    between atoms: C_8  and  C_9
REMARK    5  A    between atoms: C_9  and  N_10
REMARK    6  A    between atoms: N_10  and  C_11
REMARK    7  A    between atoms: C_11  and  C_12
REMARK                            x       y       z     vdW  Elec       q    Type
REMARK                         _______ _______ _______ _____ _____    ______ ____
ROOT
ATOM      1  C   UNL     1      47.330   5.415  14.827  0.00  0.00    +0.000 C 
ENDROOT
BRANCH   1   2
ATOM      2  C   UNL     1      46.311   4.759  13.940  0.00  0.00    +0.000 A 
ATOM      3  C   UNL     1      46.552   3.494  13.417  0.00  0.00    +0.000 A 
ATOM      4  N   UNL     1      45.674   2.856  12.614  0.00  0.00    +0.000 NA
ATOM      5  C   UNL     1      44.518   3.525  12.349  0.00  0.00    +0.000 A 
ATOM      6  C   UNL     1      44.297   4.808  12.836  0.00  0.00    +0.000 A 
ATOM      7  N   UNL     1      45.180   5.450  13.635  0.00  0.00    +0.000 NA
BRANCH   5   8
ATOM      8  C   UNL     1      43.461   2.829  11.520  0.00  0.00    +0.000 C 
BRANCH   8   9
ATOM      9  N   UNL     1      43.952   2.290  10.237  0.00  0.00    +0.000 NA
ATOM     10  H   UNL     1      43.145   1.847   9.789  0.00  0.00    +0.000 HD
BRANCH   9  11
ATOM     11  C   UNL     1      44.435   3.349   9.339  0.00  0.00    +0.000 C 
BRANCH  11  12
ATOM     12  C   UNL     1      45.712   2.898   8.608  0.00  0.00    +0.000 C 
ATOM     13  C   UNL     1      45.852   3.559   7.230  0.00  0.00    +0.000 C 
ATOM     14  C   UNL     1      47.047   2.990   6.476  0.00  0.00    +0.000 C 
ATOM     15  O   UNL     1      46.948   1.571   6.362  0.00  0.00    +0.000 OA
ATOM     16  C   UNL     1      46.943   0.931   7.636  0.00  0.00    +0.000 C 
ATOM     17  C   UNL     1      45.735   1.370   8.453  0.00  0.00    +0.000 C 
ENDBRANCH  11  12
ENDBRANCH   9  11
ENDBRANCH   8   9
ENDBRANCH   5   8
ENDBRANCH   1   2
BRANCH   1  20
ATOM     18  O   UNL     1      49.021   6.245  12.733  0.00  0.00    +0.000 OA
ATOM     19  C   UNL     1      48.459   7.095  13.417  0.00  0.00    +0.000 C 
ATOM     20  N   UNL     1      47.589   6.772  14.419  0.00  0.00    +0.000 N 
ATOM     21  H   UNL     1      47.153   7.494  14.977  0.00  0.00    +0.000 HD
BRANCH  19  22
ATOM     22  C   UNL     1      48.638   8.526  13.174  0.00  0.00    +0.000 A 
ATOM     23  C   UNL     1      49.861   9.138  13.391  0.00  0.00    +0.000 A 
ATOM     24  S   UNL     1      49.857  10.806  13.022  0.00  0.00    +0.000 S 
ATOM     25  C   UNL     1      48.211  10.765  12.587  0.00  0.00    +0.000 A 
ATOM     26  N   UNL     1      47.567  11.888  12.163  0.00  0.00    +0.000 NA
ATOM     27  C   UNL     1      46.318  11.704  11.879  0.00  0.00    +0.000 A 
ATOM     28  N   UNL     1      45.656  10.508  11.982  0.00  0.00    +0.000 N 
ATOM     29  C   UNL     1      46.265   9.355  12.404  0.00  0.00    +0.000 A 
ATOM     30  O   UNL     1      45.642   8.303  12.461  0.00  0.00    +0.000 OA
ATOM     31  C   UNL     1      47.673   9.499  12.721  0.00  0.00    +0.000 A 
ATOM     32  H   UNL     1      44.681  10.430  11.733  0.00  0.00    +0.000 HD
ENDBRANCH  19  22
ENDBRANCH   1  20
TORSDOF 7
ENDMDL
MODEL 7
REMARK VINA RESULT:    -7.078      1.774      2.170
REMARK INTER + INTRA:         -11.124
REMARK INTER:                 -10.220
REMARK INTRA:                  -0.904
REMARK UNBOUND:                -1.149
REMARK  Name = 
REMARK  7 active torsions:
REMARK  status: ('A' for Active; 'I' for Inactive)
REMARK    1  A    between atoms: C_2  and  C_20
REMARK    2  A    between atoms: N_3  and  C_4
REMARK    3  A    between atoms: C_4  and  C_5
REMARK    4  A    between atoms: C_8  and  C_9
REMARK    5  A    between atoms: C_9  and  N_10
REMARK    6  A    between atoms: N_10  and  C_11
REMARK    7  A    between atoms: C_11  and  C_12
REMARK                            x       y       z     vdW  Elec       q    Type
REMARK                         _______ _______ _______ _____ _____    ______ ____
ROOT
ATOM      1  C   UNL     1      48.309   6.730  13.947  0.00  0.00    +0.000 C 
ENDROOT
BRANCH   1   2
ATOM      2  C   UNL     1      47.277   5.857  13.292  0.00  0.00    +0.000 A 
ATOM      3  C   UNL     1      46.435   6.382  12.318  0.00  0.00    +0.000 A 
ATOM      4  N   UNL     1      45.488   5.646  11.697  0.00  0.00    +0.000 NA
ATOM      5  C   UNL     1      45.410   4.340  12.075  0.00  0.00    +0.000 A 
ATOM      6  C   UNL     1      46.221   3.828  13.081  0.00  0.00    +0.000 A 
ATOM      7  N   UNL     1      47.165   4.567  13.708  0.00  0.00    +0.000 NA
BRANCH   5   8
ATOM      8  C   UNL     1      44.422   3.445  11.359  0.00  0.00    +0.000 C 
BRANCH   8   9
ATOM      9  N   UNL     1      44.997   2.682  10.234  0.00  0.00    +0.000 NA
ATOM     10  H   UNL     1      44.474   1.803  10.191  0.00  0.00    +0.000 HD
BRANCH   9  11
ATOM     11  C   UNL     1      44.818   3.371   8.948  0.00  0.00    +0.000 C 
BRANCH  11  12
ATOM     12  C   UNL     1      45.640   2.681   7.846  0.00  0.00    +0.000 C 
ATOM     13  C   UNL     1      46.173   1.313   8.293  0.00  0.00    +0.000 C 
ATOM     14  C   UNL     1      47.094   0.718   7.235  0.00  0.00    +0.000 C 
ATOM     15  O   UNL     1      48.161   1.615   6.928  0.00  0.00    +0.000 OA
ATOM     16  C   UNL     1      47.687   2.847   6.392  0.00  0.00    +0.000 C 
ATOM     17  C   UNL     1      46.811   3.572   7.405  0.00  0.00    +0.000 C 
ENDBRANCH  11  12
ENDBRANCH   9  11
ENDBRANCH   8   9
ENDBRANCH   5   8
ENDBRANCH   1   2
BRANCH   1  20
ATOM     18  O   UNL     1      49.619   8.441  15.759  0.00  0.00    +0.000 OA
ATOM     19  C   UNL     1      48.869   7.574  16.195  0.00  0.00    +0.000 C 
ATOM     20  N   UNL     1      48.164   6.736  15.379  0.00  0.00    +0.000 N 
ATOM     21  H   UNL     1      47.565   6.020  15.768  0.00  0.00    +0.000 HD
BRANCH  19  22
ATOM     22  C   UNL     1      48.633   7.404  17.629  0.00  0.00    +0.000 A 
ATOM     23  C   UNL     1      48.223   8.469  18.415  0.00  0.00    +0.000 A 
ATOM     24  S   UNL     1      47.982   8.047  20.052  0.00  0.00    +0.000 S 
ATOM     25  C   UNL     1      48.444   6.434  19.765  0.00  0.00    +0.000 A 
ATOM     26  N   UNL     1      48.456   5.515  20.771  0.00  0.00    +0.000 NA
ATOM     27  C   UNL     1      48.840   4.335  20.403  0.00  0.00    +0.000 A 
ATOM     28  N   UNL     1      49.212   3.991  19.130  0.00  0.00    +0.000 N 
ATOM     29  C   UNL     1      49.214   4.883  18.089  0.00  0.00    +0.000 A 
ATOM     30  O   UNL     1      49.534   4.528  16.962  0.00  0.00    +0.000 OA
ATOM     31  C   UNL     1      48.776   6.220  18.441  0.00  0.00    +0.000 A 
ATOM     32  H   UNL     1      49.491   3.047  18.907  0.00  0.00    +0.000 HD
ENDBRANCH  19  22
ENDBRANCH   1  20
TORSDOF 7
ENDMDL
MODEL 8
REMARK VINA RESULT:    -7.008      2.895      8.280
REMARK INTER + INTRA:         -11.024
REMARK INTER:                  -9.835
REMARK INTRA:                  -1.189
REMARK UNBOUND:                -1.149
REMARK  Name = 
REMARK  7 active torsions:
REMARK  status: ('A' for Active; 'I' for Inactive)
REMARK    1  A    between atoms: C_2  and  C_20
REMARK    2  A    between atoms: N_3  and  C_4
REMARK    3  A    between atoms: C_4  and  C_5
REMARK    4  A    between atoms: C_8  and  C_9
REMARK    5  A    between atoms: C_9  and  N_10
REMARK    6  A    between atoms: N_10  and  C_11
REMARK    7  A    between atoms: C_11  and  C_12
REMARK                            x       y       z     vdW  Elec       q    Type
REMARK                         _______ _______ _______ _____ _____    ______ ____
ROOT
ATOM      1  C   UNL     1      47.647   7.728  11.954  0.00  0.00    +0.000 C 
ENDROOT
BRANCH   1   2
ATOM      2  C   UNL     1      48.220   7.721  13.342  0.00  0.00    +0.000 A 
ATOM      3  C   UNL     1      47.759   8.625  14.292  0.00  0.00    +0.000 A 
ATOM      4  N   UNL     1      48.238   8.667  15.554  0.00  0.00    +0.000 NA
ATOM      5  C   UNL     1      49.203   7.754  15.852  0.00  0.00    +0.000 A 
ATOM      6  C   UNL     1      49.695   6.880  14.890  0.00  0.00    +0.000 A 
ATOM      7  N   UNL     1      49.220   6.844  13.623  0.00  0.00    +0.000 NA
BRANCH   5   8
ATOM      8  C   UNL     1      49.722   7.698  17.272  0.00  0.00    +0.000 C 
BRANCH   8   9
ATOM      9  N   UNL     1      49.250   6.535  18.048  0.00  0.00    +0.000 NA
ATOM     10  H   UNL     1      48.593   6.038  17.441  0.00  0.00    +0.000 HD
BRANCH   9  11
ATOM     11  C   UNL     1      50.342   5.609  18.379  0.00  0.00    +0.000 C 
BRANCH  11  12
ATOM     12  C   UNL     1      49.921   4.155  18.103  0.00  0.00    +0.000 C 
ATOM     13  C   UNL     1      51.071   3.321  17.522  0.00  0.00    +0.000 C 
ATOM     14  C   UNL     1      50.587   1.930  17.132  0.00  0.00    +0.000 C 
ATOM     15  O   UNL     1      49.492   2.010  16.219  0.00  0.00    +0.000 OA
ATOM     16  C   UNL     1      48.368   2.674  16.790  0.00  0.00    +0.000 C 
ATOM     17  C   UNL     1      48.718   4.112  17.149  0.00  0.00    +0.000 C 
ENDBRANCH  11  12
ENDBRANCH   9  11
ENDBRANCH   8   9
ENDBRANCH   5   8
ENDBRANCH   1   2
BRANCH   1  20
ATOM     18  O   UNL     1      44.868   7.410  12.280  0.00  0.00    +0.000 OA
ATOM     19  C   UNL     1      45.538   6.449  11.916  0.00  0.00    +0.000 C 
ATOM     20  N   UNL     1      46.883   6.536  11.692  0.00  0.00    +0.000 N 
ATOM     21  H   UNL     1      47.412   5.722  11.408  0.00  0.00    +0.000 HD
BRANCH  19  22
ATOM     22  C   UNL     1      44.936   5.144  11.643  0.00  0.00    +0.000 A 
ATOM     23  C   UNL     1      44.246   4.458  12.629  0.00  0.00    +0.000 A 
ATOM     24  S   UNL     1      43.605   2.969  12.092  0.00  0.00    +0.000 S 
ATOM     25  C   UNL     1      44.254   3.184  10.533  0.00  0.00    +0.000 A 
ATOM     26  N   UNL     1      44.067   2.253   9.557  0.00  0.00    +0.000 NA
ATOM     27  C   UNL     1      44.629   2.549   8.430  0.00  0.00    +0.000 A 
ATOM     28  N   UNL     1      45.359   3.684   8.189  0.00  0.00    +0.000 N 
ATOM     29  C   UNL     1      45.571   4.647   9.142  0.00  0.00    +0.000 A 
ATOM     30  O   UNL     1      46.212   5.657   8.879  0.00  0.00    +0.000 OA
ATOM     31  C   UNL     1      44.949   4.374  10.424  0.00  0.00    +0.000 A 
ATOM     32  H   UNL     1      45.762   3.861   7.281  0.00  0.00    +0.000 HD
ENDBRANCH  19  22
ENDBRANCH   1  20
TORSDOF 7
ENDMDL
