MODEL 1
REMARK VINA RESULT:    -7.926      0.000      0.000
REMARK INTER + INTRA:         -11.671
REMARK INTER:                 -10.705
REMARK INTRA:                  -0.965
REMARK UNBOUND:                -0.965
REMARK  Name = 
REMARK  8 active torsions:
REMARK  status: ('A' for Active; 'I' for Inactive)
REMARK    1  A    between atoms: C_1  and  C_2
REMARK    2  A    between atoms: C_2  and  C_3
REMARK    3  A    between atoms: C_2  and  N_17
REMARK    4  A    between atoms: C_3  and  C_4
REMARK    5  A    between atoms: C_8  and  C_9
REMARK    6  A    between atoms: N_17  and  C_18
REMARK    7  A    between atoms: N_17  and  C_19
REMARK    8  A    between atoms: C_22  and  C_23
REMARK                            x       y       z     vdW  Elec       q    Type
REMARK                         _______ _______ _______ _____ _____    ______ ____
ROOT
ATOM      1  C   UNL     1      48.702   7.707  11.360  0.00  0.00    +0.000 C 
ATOM      2  C   UNL     1      47.721   7.082  12.363  0.00  0.00    +0.000 C 
ENDROOT
BRANCH   2   3
ATOM      3  N   UNL     1      48.022   7.325  13.805  0.00  0.00    +0.000 N 
ATOM      4  C   UNL     1      48.595   8.582  14.293  0.00  0.00    +0.000 C 
BRANCH   3   5
ATOM      5  C   UNL     1      47.932   6.293  14.748  0.00  0.00    +0.000 A 
ATOM      6  C   UNL     1      48.532   6.405  16.014  0.00  0.00    +0.000 A 
ATOM      7  C   UNL     1      48.485   5.365  16.943  0.00  0.00    +0.000 A 
ATOM      8  C   UNL     1      47.817   4.207  16.591  0.00  0.00    +0.000 A 
ATOM      9  N   UNL     1      47.193   4.034  15.397  0.00  0.00    +0.000 NA
ATOM     10  C   UNL     1      47.269   5.079  14.526  0.00  0.00    +0.000 A 
BRANCH   8  11
ATOM     11  C   UNL     1      47.772   3.065  17.559  0.00  0.00    +0.000 C 
ATOM     12  N   UNL     1      48.931   2.824  18.245  0.00  0.00    +0.000 N 
ATOM     13  O   UNL     1      46.768   2.387  17.738  0.00  0.00    +0.000 OA
ATOM     14  H   UNL     1      49.739   3.416  18.080  0.00  0.00    +0.000 HD
ATOM     15  H   UNL     1      48.963   2.077  18.920  0.00  0.00    +0.000 HD
ENDBRANCH   8  11
ENDBRANCH   3   5
ENDBRANCH   2   3
BRANCH   2  16
ATOM     16  C   UNL     1      46.256   7.465  11.988  0.00  0.00    +0.000 C 
BRANCH  16  17
ATOM     17  C   UNL     1      45.359   6.462  11.285  0.00  0.00    +0.000 A 
ATOM     18  C   UNL     1      43.989   6.366  11.514  0.00  0.00    +0.000 A 
ATOM     19  C   UNL     1      43.231   5.342  10.966  0.00  0.00    +0.000 A 
ATOM     20  C   UNL     1      43.833   4.422  10.121  0.00  0.00    +0.000 A 
ATOM     21  C   UNL     1      45.185   4.542   9.752  0.00  0.00    +0.000 A 
ATOM     22  C   UNL     1      45.939   5.550  10.381  0.00  0.00    +0.000 A 
BRANCH  21  23
ATOM     23  C   UNL     1      45.748   3.659   8.707  0.00  0.00    +0.000 A 
ATOM     24  C   UNL     1      46.314   4.153   7.518  0.00  0.00    +0.000 A 
ATOM     25  C   UNL     1      46.811   3.282   6.538  0.00  0.00    +0.000 A 
ATOM     26  C   UNL     1      46.763   1.906   6.731  0.00  0.00    +0.000 A 
ATOM     27  C   UNL     1      46.211   1.403   7.897  0.00  0.00    +0.000 A 
ATOM     28  F   UNL     1      46.160   0.087   8.092  0.00  0.00    +0.000 F 
ATOM     29  C   UNL     1      45.703   2.259   8.870  0.00  0.00    +0.000 A 
ENDBRANCH  21  23
ENDBRANCH  16  17
ENDBRANCH   2  16
TORSDOF 6
ENDMDL
MODEL 2
REMARK VINA RESULT:    -7.783      4.037      8.234
REMARK INTER + INTRA:         -11.479
REMARK INTER:                 -11.065
REMARK INTRA:                  -0.414
REMARK UNBOUND:                -0.965
REMARK  Name = 
REMARK  8 active torsions:
REMARK  status: ('A' for Active; 'I' for Inactive)
REMARK    1  A    between atoms: C_1  and  C_2
REMARK    2  A    between atoms: C_2  and  C_3
REMARK    3  A    between atoms: C_2  and  N_17
REMARK    4  A    between atoms: C_3  and  C_4
REMARK    5  A    between atoms: C_8  and  C_9
REMARK    6  A    between atoms: N_17  and  C_18
REMARK    7  A    between atoms: N_17  and  C_19
REMARK    8  A    between atoms: C_22  and  C_23
REMARK                            x       y       z     vdW  Elec       q    Type
REMARK                         _______ _______ _______ _____ _____    ______ ____
ROOT
ATOM      1  C   UNL     1      43.567   6.092  11.923  0.00  0.00    +0.000 C 
ATOM      2  C   UNL     1      44.622   4.981  11.818  0.00  0.00    +0.000 C 
ENDROOT
BRANCH   2   3
ATOM      3  N   UNL     1      44.251   3.809  10.970  0.00  0.00    +0.000 N 
ATOM      4  C   UNL     1      43.290   2.791  11.405  0.00  0.00    +0.000 C 
BRANCH   3   5
ATOM      5  C   UNL     1      44.933   3.530   9.780  0.00  0.00    +0.000 A 
ATOM      6  C   UNL     1      45.313   2.219   9.445  0.00  0.00    +0.000 A 
ATOM      7  C   UNL     1      46.033   1.937   8.283  0.00  0.00    +0.000 A 
ATOM      8  C   UNL     1      46.360   2.990   7.449  0.00  0.00    +0.000 A 
ATOM      9  N   UNL     1      46.007   4.279   7.693  0.00  0.00    +0.000 NA
ATOM     10  C   UNL     1      45.307   4.499   8.840  0.00  0.00    +0.000 A 
BRANCH   8  11
ATOM     11  C   UNL     1      47.152   2.720   6.207  0.00  0.00    +0.000 C 
ATOM     12  N   UNL     1      48.501   2.575   6.385  0.00  0.00    +0.000 N 
ATOM     13  O   UNL     1      46.638   2.630   5.099  0.00  0.00    +0.000 OA
ATOM     14  H   UNL     1      48.889   2.643   7.320  0.00  0.00    +0.000 HD
ATOM     15  H   UNL     1      49.089   2.380   5.590  0.00  0.00    +0.000 HD
ENDBRANCH   8  11
ENDBRANCH   3   5
ENDBRANCH   2   3
BRANCH   2  16
ATOM     16  C   UNL     1      46.003   5.589  11.421  0.00  0.00    +0.000 C 
BRANCH  16  17
ATOM     17  C   UNL     1      46.914   6.176  12.485  0.00  0.00    +0.000 A 
ATOM     18  C   UNL     1      47.597   7.379  12.329  0.00  0.00    +0.000 A 
ATOM     19  C   UNL     1      48.534   7.807  13.258  0.00  0.00    +0.000 A 
ATOM     20  C   UNL     1      48.758   7.054  14.401  0.00  0.00    +0.000 A 
ATOM     21  C   UNL     1      48.006   5.897  14.674  0.00  0.00    +0.000 A 
ATOM     22  C   UNL     1      47.116   5.456  13.678  0.00  0.00    +0.000 A 
BRANCH  21  23
ATOM     23  C   UNL     1      48.137   5.222  15.984  0.00  0.00    +0.000 A 
ATOM     24  C   UNL     1      49.053   5.640  16.966  0.00  0.00    +0.000 A 
ATOM     25  C   UNL     1      49.167   4.957  18.185  0.00  0.00    +0.000 A 
ATOM     26  C   UNL     1      48.364   3.853  18.450  0.00  0.00    +0.000 A 
ATOM     27  C   UNL     1      47.457   3.429  17.494  0.00  0.00    +0.000 A 
ATOM     28  F   UNL     1      46.683   2.373  17.738  0.00  0.00    +0.000 F 
ATOM     29  C   UNL     1      47.344   4.093  16.276  0.00  0.00    +0.000 A 
ENDBRANCH  21  23
ENDBRANCH  16  17
ENDBRANCH   2  16
TORSDOF 6
ENDMDL
MODEL 3
REMARK VINA RESULT:    -7.504      1.767      2.757
REMARK INTER + INTRA:         -11.102
REMARK INTER:                  -9.552
REMARK INTRA:                  -1.550
REMARK UNBOUND:                -0.965
REMARK  Name = 
REMARK  8 active torsions:
REMARK  status: ('A' for Active; 'I' for Inactive)
REMARK    1  A    between atoms: C_1  and  C_2
REMARK    2  A    between atoms: C_2  and  C_3
REMARK    3  A    between atoms: C_2  and  N_17
REMARK    4  A    between atoms: C_3  and  C_4
REMARK    5  A    between atoms: C_8  and  C_9
REMARK    6  A    between atoms: N_17  and  C_18
REMARK    7  A    between atoms: N_17  and  C_19
REMARK    8  A    between atoms: C_22  and  C_23
REMARK                            x       y       z     vdW  Elec       q    Type
REMARK                         _______ _______ _______ _____ _____    ______ ____
ROOT
ATOM      1  C   UNL     1      51.342   8.316  13.227  0.00  0.00    +0.000 C 
ATOM      2  C   UNL     1      49.898   7.801  13.309  0.00  0.00    +0.000 C 
ENDROOT
BRANCH   2   3
ATOM      3  N   UNL     1      49.237   7.927  14.642  0.00  0.00    +0.000 N 
ATOM      4  C   UNL     1      49.114   9.206  15.347  0.00  0.00    +0.000 C 
BRANCH   3   5
ATOM      5  C   UNL     1      48.851   6.795  15.370  0.00  0.00    +0.000 A 
ATOM      6  C   UNL     1      47.887   5.901  14.875  0.00  0.00    +0.000 A 
ATOM      7  C   UNL     1      47.463   4.794  15.613  0.00  0.00    +0.000 A 
ATOM      8  C   UNL     1      48.029   4.587  16.857  0.00  0.00    +0.000 A 
ATOM      9  N   UNL     1      48.982   5.393  17.393  0.00  0.00    +0.000 NA
ATOM     10  C   UNL     1      49.359   6.458  16.632  0.00  0.00    +0.000 A 
BRANCH   8  11
ATOM     11  C   UNL     1      47.576   3.421  17.681  0.00  0.00    +0.000 C 
ATOM     12  N   UNL     1      48.350   3.132  18.772  0.00  0.00    +0.000 N 
ATOM     13  O   UNL     1      46.578   2.764  17.409  0.00  0.00    +0.000 OA
ATOM     14  H   UNL     1      49.161   3.706  18.972  0.00  0.00    +0.000 HD
ATOM     15  H   UNL     1      48.093   2.366  19.374  0.00  0.00    +0.000 HD
ENDBRANCH   8  11
ENDBRANCH   3   5
ENDBRANCH   2   3
BRANCH   2  16
ATOM     16  C   UNL     1      49.042   8.419  12.160  0.00  0.00    +0.000 C 
BRANCH  16  17
ATOM     17  C   UNL     1      47.559   8.111  12.060  0.00  0.00    +0.000 A 
ATOM     18  C   UNL     1      46.567   8.952  12.558  0.00  0.00    +0.000 A 
ATOM     19  C   UNL     1      45.235   8.567  12.581  0.00  0.00    +0.000 A 
ATOM     20  C   UNL     1      44.866   7.343  12.044  0.00  0.00    +0.000 A 
ATOM     21  C   UNL     1      45.805   6.508  11.412  0.00  0.00    +0.000 A 
ATOM     22  C   UNL     1      47.156   6.897  11.469  0.00  0.00    +0.000 A 
BRANCH  21  23
ATOM     23  C   UNL     1      45.352   5.301  10.687  0.00  0.00    +0.000 A 
ATOM     24  C   UNL     1      45.657   5.068   9.334  0.00  0.00    +0.000 A 
ATOM     25  C   UNL     1      45.184   3.926   8.673  0.00  0.00    +0.000 A 
ATOM     26  C   UNL     1      44.411   2.991   9.351  0.00  0.00    +0.000 A 
ATOM     27  C   UNL     1      44.102   3.204  10.684  0.00  0.00    +0.000 A 
ATOM     28  F   UNL     1      43.362   2.315  11.343  0.00  0.00    +0.000 F 
ATOM     29  C   UNL     1      44.556   4.342  11.346  0.00  0.00    +0.000 A 
ENDBRANCH  21  23
ENDBRANCH  16  17
ENDBRANCH   2  16
TORSDOF 6
ENDMDL
MODEL 4
REMARK VINA RESULT:    -7.279      3.351      4.151
REMARK INTER + INTRA:         -10.798
REMARK INTER:                  -9.990
REMARK INTRA:                  -0.808
REMARK UNBOUND:                -0.965
REMARK  Name = 
REMARK  8 active torsions:
REMARK  status: ('A' for Active; 'I' for Inactive)
REMARK    1  A    between atoms: C_1  and  C_2
REMARK    2  A    between atoms: C_2  and  C_3
REMARK    3  A    between atoms: C_2  and  N_17
REMARK    4  A    between atoms: C_3  and  C_4
REMARK    5  A    between atoms: C_8  and  C_9
REMARK    6  A    between atoms: N_17  and  C_18
REMARK    7  A    between atoms: N_17  and  C_19
REMARK    8  A    between atoms: C_22  and  C_23
REMARK                            x       y       z     vdW  Elec       q    Type
REMARK                         _______ _______ _______ _____ _____    ______ ____
ROOT
ATOM      1  C   UNL     1      45.831   5.766  13.190  0.00  0.00    +0.000 C 
ATOM      2  C   UNL     1      45.111   6.933  12.497  0.00  0.00    +0.000 C 
ENDROOT
BRANCH   2   3
ATOM      3  N   UNL     1      45.800   8.256  12.568  0.00  0.00    +0.000 N 
ATOM      4  C   UNL     1      45.130   9.516  12.233  0.00  0.00    +0.000 C 
BRANCH   3   5
ATOM      5  C   UNL     1      47.179   8.345  12.796  0.00  0.00    +0.000 A 
ATOM      6  C   UNL     1      48.108   8.016  11.794  0.00  0.00    +0.000 A 
ATOM      7  C   UNL     1      49.484   8.058  12.025  0.00  0.00    +0.000 A 
ATOM      8  C   UNL     1      49.921   8.445  13.278  0.00  0.00    +0.000 A 
ATOM      9  N   UNL     1      49.085   8.800  14.289  0.00  0.00    +0.000 NA
ATOM     10  C   UNL     1      47.753   8.741  14.011  0.00  0.00    +0.000 A 
BRANCH   8  11
ATOM     11  C   UNL     1      51.391   8.476  13.562  0.00  0.00    +0.000 C 
ATOM     12  N   UNL     1      51.819   7.639  14.556  0.00  0.00    +0.000 N 
ATOM     13  O   UNL     1      52.170   9.196  12.950  0.00  0.00    +0.000 OA
ATOM     14  H   UNL     1      51.147   7.048  15.033  0.00  0.00    +0.000 HD
ATOM     15  H   UNL     1      52.799   7.605  14.789  0.00  0.00    +0.000 HD
ENDBRANCH   8  11
ENDBRANCH   3   5
ENDBRANCH   2   3
BRANCH   2  16
ATOM     16  C   UNL     1      44.730   6.537  11.038  0.00  0.00    +0.000 C 
BRANCH  16  17
ATOM     17  C   UNL     1      44.512   5.080  10.672  0.00  0.00    +0.000 A 
ATOM     18  C   UNL     1      43.609   4.251  11.331  0.00  0.00    +0.000 A 
ATOM     19  C   UNL     1      43.546   2.891  11.068  0.00  0.00    +0.000 A 
ATOM     20  C   UNL     1      44.357   2.346  10.084  0.00  0.00    +0.000 A 
ATOM     21  C   UNL     1      45.197   3.155   9.297  0.00  0.00    +0.000 A 
ATOM     22  C   UNL     1      45.287   4.517   9.638  0.00  0.00    +0.000 A 
BRANCH  21  23
ATOM     23  C   UNL     1      45.907   2.575   8.136  0.00  0.00    +0.000 A 
ATOM     24  C   UNL     1      46.389   1.254   8.123  0.00  0.00    +0.000 A 
ATOM     25  C   UNL     1      47.083   0.749   7.014  0.00  0.00    +0.000 A 
ATOM     26  C   UNL     1      47.298   1.548   5.897  0.00  0.00    +0.000 A 
ATOM     27  C   UNL     1      46.829   2.851   5.892  0.00  0.00    +0.000 A 
ATOM     28  F   UNL     1      47.030   3.624   4.827  0.00  0.00    +0.000 F 
ATOM     29  C   UNL     1      46.150   3.365   6.993  0.00  0.00    +0.000 A 
ENDBRANCH  21  23
ENDBRANCH  16  17
ENDBRANCH   2  16
TORSDOF 6
ENDMDL
MODEL 5
REMARK VINA RESULT:    -7.211      1.498      2.274
REMARK INTER + INTRA:         -10.706
REMARK INTER:                 -10.586
REMARK INTRA:                  -0.120
REMARK UNBOUND:                -0.965
REMARK  Name = 
REMARK  8 active torsions:
REMARK  status: ('A' for Active; 'I' for Inactive)
REMARK    1  A    between atoms: C_1  and  C_2
REMARK    2  A    between atoms: C_2  and  C_3
REMARK    3  A    between atoms: C_2  and  N_17
REMARK    4  A    between atoms: C_3  and  C_4
REMARK    5  A    between atoms: C_8  and  C_9
REMARK    6  A    between atoms: N_17  and  C_18
REMARK    7  A    between atoms: N_17  and  C_19
REMARK    8  A    between atoms: C_22  and  C_23
REMARK                            x       y       z     vdW  Elec       q    Type
REMARK                         _______ _______ _______ _____ _____    ______ ____
ROOT
ATOM      1  C   UNL     1      44.355   6.048  13.220  0.00  0.00    +0.000 C 
ATOM      2  C   UNL     1      45.449   6.750  12.403  0.00  0.00    +0.000 C 
ENDROOT
BRANCH   2   3
ATOM      3  N   UNL     1      46.848   6.562  12.891  0.00  0.00    +0.000 N 
ATOM      4  C   UNL     1      47.997   7.233  12.276  0.00  0.00    +0.000 C 
BRANCH   3   5
ATOM      5  C   UNL     1      47.154   5.597  13.857  0.00  0.00    +0.000 A 
ATOM      6  C   UNL     1      47.720   5.953  15.093  0.00  0.00    +0.000 A 
ATOM      7  C   UNL     1      48.071   4.994  16.045  0.00  0.00    +0.000 A 
ATOM      8  C   UNL     1      47.837   3.665  15.745  0.00  0.00    +0.000 A 
ATOM      9  N   UNL     1      47.272   3.245  14.583  0.00  0.00    +0.000 NA
ATOM     10  C   UNL     1      46.950   4.221  13.689  0.00  0.00    +0.000 A 
BRANCH   8  11
ATOM     11  C   UNL     1      48.225   2.612  16.737  0.00  0.00    +0.000 C 
ATOM     12  N   UNL     1      49.054   1.631  16.265  0.00  0.00    +0.000 N 
ATOM     13  O   UNL     1      47.837   2.620  17.899  0.00  0.00    +0.000 OA
ATOM     14  H   UNL     1      49.365   1.664  15.300  0.00  0.00    +0.000 HD
ATOM     15  H   UNL     1      49.361   0.899  16.886  0.00  0.00    +0.000 HD
ENDBRANCH   8  11
ENDBRANCH   3   5
ENDBRANCH   2   3
BRANCH   2  16
ATOM     16  C   UNL     1      45.294   6.403  10.890  0.00  0.00    +0.000 C 
BRANCH  16  17
ATOM     17  C   UNL     1      44.873   5.007  10.464  0.00  0.00    +0.000 A 
ATOM     18  C   UNL     1      43.813   4.316  11.045  0.00  0.00    +0.000 A 
ATOM     19  C   UNL     1      43.554   2.990  10.733  0.00  0.00    +0.000 A 
ATOM     20  C   UNL     1      44.327   2.348   9.778  0.00  0.00    +0.000 A 
ATOM     21  C   UNL     1      45.329   3.032   9.066  0.00  0.00    +0.000 A 
ATOM     22  C   UNL     1      45.610   4.354   9.457  0.00  0.00    +0.000 A 
BRANCH  21  23
ATOM     23  C   UNL     1      46.007   2.376   7.928  0.00  0.00    +0.000 A 
ATOM     24  C   UNL     1      46.454   1.043   7.975  0.00  0.00    +0.000 A 
ATOM     25  C   UNL     1      47.120   0.464   6.885  0.00  0.00    +0.000 A 
ATOM     26  C   UNL     1      47.340   1.199   5.726  0.00  0.00    +0.000 A 
ATOM     27  C   UNL     1      46.906   2.512   5.662  0.00  0.00    +0.000 A 
ATOM     28  F   UNL     1      47.113   3.225   4.557  0.00  0.00    +0.000 F 
ATOM     29  C   UNL     1      46.256   3.100   6.744  0.00  0.00    +0.000 A 
ENDBRANCH  21  23
ENDBRANCH  16  17
ENDBRANCH   2  16
TORSDOF 6
ENDMDL
MODEL 6
REMARK VINA RESULT:    -6.918      3.824      7.295
REMARK INTER + INTRA:         -10.310
REMARK INTER:                  -8.908
REMARK INTRA:                  -1.402
REMARK UNBOUND:                -0.965
REMARK  Name = 
REMARK  8 active torsions:
REMARK  status: ('A' for Active; 'I' for Inactive)
REMARK    1  A    between atoms: C_1  and  C_2
REMARK    2  A    between atoms: C_2  and  C_3
REMARK    3  A    between atoms: C_2  and  N_17
REMARK    4  A    between atoms: C_3  and  C_4
REMARK    5  A    between atoms: C_8  and  C_9
REMARK    6  A    between atoms: N_17  and  C_18
REMARK    7  A    between atoms: N_17  and  C_19
REMARK    8  A    between atoms: C_22  and  C_23
REMARK                            x       y       z     vdW  Elec       q    Type
REMARK                         _______ _______ _______ _____ _____    ______ ____
ROOT
ATOM      1  C   UNL     1      47.257  10.090  12.124  0.00  0.00    +0.000 C 
ATOM      2  C   UNL     1      47.520   8.922  13.086  0.00  0.00    +0.000 C 
ENDROOT
BRANCH   2   3
ATOM      3  N   UNL     1      47.885   7.622  12.447  0.00  0.00    +0.000 N 
ATOM      4  C   UNL     1      49.190   7.385  11.825  0.00  0.00    +0.000 C 
BRANCH   3   5
ATOM      5  C   UNL     1      46.931   6.615  12.258  0.00  0.00    +0.000 A 
ATOM      6  C   UNL     1      46.695   5.637  13.239  0.00  0.00    +0.000 A 
ATOM      7  C   UNL     1      45.779   4.603  13.040  0.00  0.00    +0.000 A 
ATOM      8  C   UNL     1      45.089   4.565  11.843  0.00  0.00    +0.000 A 
ATOM      9  N   UNL     1      45.246   5.487  10.857  0.00  0.00    +0.000 NA
ATOM     10  C   UNL     1      46.152   6.474  11.101  0.00  0.00    +0.000 A 
BRANCH   8  11
ATOM     11  C   UNL     1      44.118   3.454  11.592  0.00  0.00    +0.000 C 
ATOM     12  N   UNL     1      43.958   2.565  12.620  0.00  0.00    +0.000 N 
ATOM     13  O   UNL     1      43.497   3.339  10.543  0.00  0.00    +0.000 OA
ATOM     14  H   UNL     1      44.479   2.700  13.480  0.00  0.00    +0.000 HD
ATOM     15  H   UNL     1      43.310   1.800  12.519  0.00  0.00    +0.000 HD
ENDBRANCH   8  11
ENDBRANCH   3   5
ENDBRANCH   2   3
BRANCH   2  16
ATOM     16  C   UNL     1      48.540   9.353  14.185  0.00  0.00    +0.000 C 
BRANCH  16  17
ATOM     17  C   UNL     1      48.447   8.772  15.585  0.00  0.00    +0.000 A 
ATOM     18  C   UNL     1      48.099   9.523  16.705  0.00  0.00    +0.000 A 
ATOM     19  C   UNL     1      48.170   8.993  17.984  0.00  0.00    +0.000 A 
ATOM     20  C   UNL     1      48.538   7.667  18.157  0.00  0.00    +0.000 A 
ATOM     21  C   UNL     1      48.777   6.824  17.056  0.00  0.00    +0.000 A 
ATOM     22  C   UNL     1      48.763   7.413  15.778  0.00  0.00    +0.000 A 
BRANCH  21  23
ATOM     23  C   UNL     1      48.983   5.375  17.265  0.00  0.00    +0.000 A 
ATOM     24  C   UNL     1      50.260   4.798  17.381  0.00  0.00    +0.000 A 
ATOM     25  C   UNL     1      50.415   3.414  17.550  0.00  0.00    +0.000 A 
ATOM     26  C   UNL     1      49.301   2.586  17.618  0.00  0.00    +0.000 A 
ATOM     27  C   UNL     1      48.036   3.137  17.507  0.00  0.00    +0.000 A 
ATOM     28  F   UNL     1      46.963   2.352  17.570  0.00  0.00    +0.000 F 
ATOM     29  C   UNL     1      47.872   4.508  17.326  0.00  0.00    +0.000 A 
ENDBRANCH  21  23
ENDBRANCH  16  17
ENDBRANCH   2  16
TORSDOF 6
ENDMDL
MODEL 7
REMARK VINA RESULT:    -6.414      2.376      3.547
REMARK INTER + INTRA:          -9.629
REMARK INTER:                  -8.527
REMARK INTRA:                  -1.103
REMARK UNBOUND:                -0.965
REMARK  Name = 
REMARK  8 active torsions:
REMARK  status: ('A' for Active; 'I' for Inactive)
REMARK    1  A    between atoms: C_1  and  C_2
REMARK    2  A    between atoms: C_2  and  C_3
REMARK    3  A    between atoms: C_2  and  N_17
REMARK    4  A    between atoms: C_3  and  C_4
REMARK    5  A    between atoms: C_8  and  C_9
REMARK    6  A    between atoms: N_17  and  C_18
REMARK    7  A    between atoms: N_17  and  C_19
REMARK    8  A    between atoms: C_22  and  C_23
REMARK                            x       y       z     vdW  Elec       q    Type
REMARK                         _______ _______ _______ _____ _____    ______ ____
ROOT
ATOM      1  C   UNL     1      50.732   9.817  12.458  0.00  0.00    +0.000 C 
ATOM      2  C   UNL     1      50.371   8.457  13.074  0.00  0.00    +0.000 C 
ENDROOT
BRANCH   2   3
ATOM      3  N   UNL     1      49.744   8.502  14.428  0.00  0.00    +0.000 N 
ATOM      4  C   UNL     1      49.227   9.739  15.020  0.00  0.00    +0.000 C 
BRANCH   3   5
ATOM      5  C   UNL     1      49.772   7.389  15.278  0.00  0.00    +0.000 A 
ATOM      6  C   UNL     1      50.927   7.052  16.004  0.00  0.00    +0.000 A 
ATOM      7  C   UNL     1      50.979   5.920  16.818  0.00  0.00    +0.000 A 
ATOM      8  C   UNL     1      49.848   5.129  16.906  0.00  0.00    +0.000 A 
ATOM      9  N   UNL     1      48.688   5.403  16.253  0.00  0.00    +0.000 NA
ATOM     10  C   UNL     1      48.691   6.519  15.472  0.00  0.00    +0.000 A 
BRANCH   8  11
ATOM     11  C   UNL     1      49.882   3.895  17.753  0.00  0.00    +0.000 C 
ATOM     12  N   UNL     1      51.126   3.379  17.996  0.00  0.00    +0.000 N 
ATOM     13  O   UNL     1      48.871   3.375  18.208  0.00  0.00    +0.000 OA
ATOM     14  H   UNL     1      51.942   3.845  17.614  0.00  0.00    +0.000 HD
ATOM     15  H   UNL     1      51.218   2.555  18.570  0.00  0.00    +0.000 HD
ENDBRANCH   8  11
ENDBRANCH   3   5
ENDBRANCH   2   3
BRANCH   2  16
ATOM     16  C   UNL     1      49.539   7.613  12.060  0.00  0.00    +0.000 C 
BRANCH  16  17
ATOM     17  C   UNL     1      48.025   7.729  12.028  0.00  0.00    +0.000 A 
ATOM     18  C   UNL     1      47.349   8.946  12.060  0.00  0.00    +0.000 A 
ATOM     19  C   UNL     1      45.969   9.006  12.180  0.00  0.00    +0.000 A 
ATOM     20  C   UNL     1      45.233   7.831  12.210  0.00  0.00    +0.000 A 
ATOM     21  C   UNL     1      45.849   6.576  12.053  0.00  0.00    +0.000 A 
ATOM     22  C   UNL     1      47.255   6.550  12.004  0.00  0.00    +0.000 A 
BRANCH  21  23
ATOM     23  C   UNL     1      45.022   5.360  11.902  0.00  0.00    +0.000 A 
ATOM     24  C   UNL     1      44.283   4.807  12.963  0.00  0.00    +0.000 A 
ATOM     25  C   UNL     1      43.533   3.635  12.788  0.00  0.00    +0.000 A 
ATOM     26  C   UNL     1      43.499   3.001  11.551  0.00  0.00    +0.000 A 
ATOM     27  C   UNL     1      44.220   3.533  10.495  0.00  0.00    +0.000 A 
ATOM     28  F   UNL     1      44.193   2.934   9.307  0.00  0.00    +0.000 F 
ATOM     29  C   UNL     1      44.977   4.689  10.662  0.00  0.00    +0.000 A 
ENDBRANCH  21  23
ENDBRANCH  16  17
ENDBRANCH   2  16
TORSDOF 6
ENDMDL
MODEL 8
REMARK VINA RESULT:    -6.314      3.554      5.410
REMARK INTER + INTRA:          -9.495
REMARK INTER:                  -9.195
REMARK INTRA:                  -0.300
REMARK UNBOUND:                -0.965
REMARK  Name = 
REMARK  8 active torsions:
REMARK  status: ('A' for Active; 'I' for Inactive)
REMARK    1  A    between atoms: C_1  and  C_2
REMARK    2  A    between atoms: C_2  and  C_3
REMARK    3  A    between atoms: C_2  and  N_17
REMARK    4  A    between atoms: C_3  and  C_4
REMARK    5  A    between atoms: C_8  and  C_9
REMARK    6  A    between atoms: N_17  and  C_18
REMARK    7  A    between atoms: N_17  and  C_19
REMARK    8  A    between atoms: C_22  and  C_23
REMARK                            x       y       z     vdW  Elec       q    Type
REMARK                         _______ _______ _______ _____ _____    ______ ____
ROOT
ATOM      1  C   UNL     1      44.647   5.822  13.314  0.00  0.00    +0.000 C 
ATOM      2  C   UNL     1      45.329   6.821  12.368  0.00  0.00    +0.000 C 
ENDROOT
BRANCH   2   3
ATOM      3  N   UNL     1      46.788   7.042  12.597  0.00  0.00    +0.000 N 
ATOM      4  C   UNL     1      47.615   6.118  13.377  0.00  0.00    +0.000 C 
BRANCH   3   5
ATOM      5  C   UNL     1      47.409   8.239  12.218  0.00  0.00    +0.000 A 
ATOM      6  C   UNL     1      46.728   9.466  12.277  0.00  0.00    +0.000 A 
ATOM      7  C   UNL     1      47.323  10.658  11.860  0.00  0.00    +0.000 A 
ATOM      8  C   UNL     1      48.622  10.606  11.389  0.00  0.00    +0.000 A 
ATOM      9  N   UNL     1      49.352   9.462  11.325  0.00  0.00    +0.000 NA
ATOM     10  C   UNL     1      48.724   8.329  11.744  0.00  0.00    +0.000 A 
BRANCH   8  11
ATOM     11  C   UNL     1      49.277  11.865  10.913  0.00  0.00    +0.000 C 
ATOM     12  N   UNL     1      49.850  11.801   9.672  0.00  0.00    +0.000 N 
ATOM     13  O   UNL     1      49.303  12.893  11.578  0.00  0.00    +0.000 OA
ATOM     14  H   UNL     1      49.798  10.936   9.144  0.00  0.00    +0.000 HD
ATOM     15  H   UNL     1      50.298  12.618   9.288  0.00  0.00    +0.000 HD
ENDBRANCH   8  11
ENDBRANCH   3   5
ENDBRANCH   2   3
BRANCH   2  16
ATOM     16  C   UNL     1      45.006   6.461  10.885  0.00  0.00    +0.000 C 
BRANCH  16  17
ATOM     17  C   UNL     1      44.704   5.026  10.494  0.00  0.00    +0.000 A 
ATOM     18  C   UNL     1      43.729   4.251  11.118  0.00  0.00    +0.000 A 
ATOM     19  C   UNL     1      43.585   2.901  10.835  0.00  0.00    +0.000 A 
ATOM     20  C   UNL     1      44.385   2.315   9.867  0.00  0.00    +0.000 A 
ATOM     21  C   UNL     1      45.299   3.075   9.114  0.00  0.00    +0.000 A 
ATOM     22  C   UNL     1      45.468   4.424   9.475  0.00  0.00    +0.000 A 
BRANCH  21  23
ATOM     23  C   UNL     1      46.001   2.462   7.965  0.00  0.00    +0.000 A 
ATOM     24  C   UNL     1      46.484   1.142   7.987  0.00  0.00    +0.000 A 
ATOM     25  C   UNL     1      47.171   0.606   6.888  0.00  0.00    +0.000 A 
ATOM     26  C   UNL     1      47.378   1.372   5.747  0.00  0.00    +0.000 A 
ATOM     27  C   UNL     1      46.908   2.674   5.709  0.00  0.00    +0.000 A 
ATOM     28  F   UNL     1      47.102   3.416   4.621  0.00  0.00    +0.000 F 
ATOM     29  C   UNL     1      46.237   3.220   6.799  0.00  0.00    +0.000 A 
ENDBRANCH  21  23
ENDBRANCH  16  17
ENDBRANCH   2  16
TORSDOF 6
ENDMDL
MODEL 9
REMARK VINA RESULT:    -6.236      5.373      7.595
REMARK INTER + INTRA:          -9.388
REMARK INTER:                  -8.307
REMARK INTRA:                  -1.081
REMARK UNBOUND:                -0.965
REMARK  Name = 
REMARK  8 active torsions:
REMARK  status: ('A' for Active; 'I' for Inactive)
REMARK    1  A    between atoms: C_1  and  C_2
REMARK    2  A    between atoms: C_2  and  C_3
REMARK    3  A    between atoms: C_2  and  N_17
REMARK    4  A    between atoms: C_3  and  C_4
REMARK    5  A    between atoms: C_8  and  C_9
REMARK    6  A    between atoms: N_17  and  C_18
REMARK    7  A    between atoms: N_17  and  C_19
REMARK    8  A    between atoms: C_22  and  C_23
REMARK                            x       y       z     vdW  Elec       q    Type
REMARK                         _______ _______ _______ _____ _____    ______ ____
ROOT
ATOM      1  C   UNL     1      45.970  11.113  10.626  0.00  0.00    +0.000 C 
ATOM      2  C   UNL     1      44.604  11.022  11.324  0.00  0.00    +0.000 C 
ENDROOT
BRANCH   2   3
ATOM      3  N   UNL     1      43.424  10.854  10.424  0.00  0.00    +0.000 N 
ATOM      4  C   UNL     1      43.551  10.724   8.970  0.00  0.00    +0.000 C 
BRANCH   3   5
ATOM      5  C   UNL     1      42.118  10.983  10.911  0.00  0.00    +0.000 A 
ATOM      6  C   UNL     1      41.645  12.203  11.422  0.00  0.00    +0.000 A 
ATOM      7  C   UNL     1      40.359  12.330  11.950  0.00  0.00    +0.000 A 
ATOM      8  C   UNL     1      39.543  11.215  11.950  0.00  0.00    +0.000 A 
ATOM      9  N   UNL     1      39.920  10.008  11.452  0.00  0.00    +0.000 NA
ATOM     10  C   UNL     1      41.184   9.939  10.950  0.00  0.00    +0.000 A 
BRANCH   8  11
ATOM     11  C   UNL     1      38.167  11.315  12.532  0.00  0.00    +0.000 C 
ATOM     12  N   UNL     1      37.972  12.341  13.417  0.00  0.00    +0.000 N 
ATOM     13  O   UNL     1      37.265  10.540  12.240  0.00  0.00    +0.000 OA
ATOM     14  H   UNL     1      38.739  12.971  13.624  0.00  0.00    +0.000 HD
ATOM     15  H   UNL     1      37.065  12.470  13.835  0.00  0.00    +0.000 HD
ENDBRANCH   8  11
ENDBRANCH   3   5
ENDBRANCH   2   3
BRANCH   2  16
ATOM     16  C   UNL     1      44.651   9.947  12.453  0.00  0.00    +0.000 C 
BRANCH  16  17
ATOM     17  C   UNL     1      45.544   8.727  12.313  0.00  0.00    +0.000 A 
ATOM     18  C   UNL     1      46.816   8.641  12.873  0.00  0.00    +0.000 A 
ATOM     19  C   UNL     1      47.659   7.574  12.599  0.00  0.00    +0.000 A 
ATOM     20  C   UNL     1      47.210   6.536  11.797  0.00  0.00    +0.000 A 
ATOM     21  C   UNL     1      45.891   6.506  11.307  0.00  0.00    +0.000 A 
ATOM     22  C   UNL     1      45.088   7.637  11.547  0.00  0.00    +0.000 A 
BRANCH  21  23
ATOM     23  C   UNL     1      45.387   5.301  10.614  0.00  0.00    +0.000 A 
ATOM     24  C   UNL     1      45.659   5.033   9.260  0.00  0.00    +0.000 A 
ATOM     25  C   UNL     1      45.137   3.894   8.630  0.00  0.00    +0.000 A 
ATOM     26  C   UNL     1      44.347   2.998   9.341  0.00  0.00    +0.000 A 
ATOM     27  C   UNL     1      44.071   3.246  10.675  0.00  0.00    +0.000 A 
ATOM     28  F   UNL     1      43.315   2.394  11.364  0.00  0.00    +0.000 F 
ATOM     29  C   UNL     1      44.572   4.381  11.306  0.00  0.00    +0.000 A 
ENDBRANCH  21  23
ENDBRANCH  16  17
ENDBRANCH   2  16
TORSDOF 6
ENDMDL
