MODEL 1
REMARK VINA RESULT:    -6.995      0.000      0.000
REMARK INTER + INTRA:         -10.133
REMARK INTER:                  -9.244
REMARK INTRA:                  -0.888
REMARK UNBOUND:                -0.888
REMARK  Name = 
REMARK  7 active torsions:
REMARK  status: ('A' for Active; 'I' for Inactive)
REMARK    1  A    between atoms: C_1  and  C_2
REMARK    2  A    between atoms: C_7  and  C_8
REMARK    3  A    between atoms: C_8  and  C_9
REMARK    4  A    between atoms: C_9  and  N_10
REMARK    5  A    between atoms: N_10  and  C_11
REMARK    6  A    between atoms: C_15  and  C_16
REMARK    7  A    between atoms: C_16  and  N_17
REMARK                            x       y       z     vdW  Elec       q    Type
REMARK                         _______ _______ _______ _____ _____    ______ ____
ROOT
ATOM      1  N   UNL     1      44.684   2.351  10.555  0.00  0.00    +0.000 N 
ATOM      2  H   UNL     1      44.530   1.343  10.571  0.00  0.00    +0.000 HD
ENDROOT
BRANCH   1   3
ATOM      3  C   UNL     1      45.289   2.738   9.336  0.00  0.00    +0.000 A 
ATOM      4  C   UNL     1      45.405   4.080   8.952  0.00  0.00    +0.000 A 
ATOM      5  C   UNL     1      46.069   4.449   7.782  0.00  0.00    +0.000 A 
ATOM      6  C   UNL     1      46.663   3.482   6.982  0.00  0.00    +0.000 A 
ATOM      7  C   UNL     1      46.601   2.129   7.338  0.00  0.00    +0.000 A 
ATOM      8  C   UNL     1      45.935   1.777   8.534  0.00  0.00    +0.000 A 
BRANCH   7   9
ATOM      9  C   UNL     1      47.317   1.076   6.523  0.00  0.00    +0.000 C 
BRANCH   9  10
ATOM     10  N   UNL     1      48.356   1.622   5.647  0.00  0.00    +0.000 NA
ATOM     11  H   UNL     1      48.252   1.211   4.721  0.00  0.00    +0.000 HD
ATOM     12  H   UNL     1      49.270   1.339   5.991  0.00  0.00    +0.000 HD
ENDBRANCH   9  10
ENDBRANCH   7   9
ENDBRANCH   1   3
BRANCH   1  13
ATOM     13  C   UNL     1      43.473   3.098  10.943  0.00  0.00    +0.000 C 
BRANCH  13  14
ATOM     14  C   UNL     1      43.520   3.570  12.398  0.00  0.00    +0.000 C 
BRANCH  14  21
ATOM     15  C   UNL     1      44.083   6.473  11.611  0.00  0.00    +0.000 C 
ATOM     16  C   UNL     1      45.080   5.610  12.331  0.00  0.00    +0.000 A 
ATOM     17  C   UNL     1      46.320   6.160  12.688  0.00  0.00    +0.000 A 
ATOM     18  C   UNL     1      47.257   5.391  13.366  0.00  0.00    +0.000 A 
ATOM     19  C   UNL     1      46.923   4.090  13.677  0.00  0.00    +0.000 A 
ATOM     20  N   UNL     1      45.741   3.522  13.353  0.00  0.00    +0.000 NA
ATOM     21  C   UNL     1      44.830   4.273  12.679  0.00  0.00    +0.000 A 
ENDBRANCH  14  21
ENDBRANCH  13  14
ENDBRANCH   1  13
TORSDOF 6
ENDMDL
MODEL 2
REMARK VINA RESULT:    -6.775      1.016      1.765
REMARK INTER + INTRA:          -9.841
REMARK INTER:                  -9.020
REMARK INTRA:                  -0.822
REMARK UNBOUND:                -0.888
REMARK  Name = 
REMARK  7 active torsions:
REMARK  status: ('A' for Active; 'I' for Inactive)
REMARK    1  A    between atoms: C_1  and  C_2
REMARK    2  A    between atoms: C_7  and  C_8
REMARK    3  A    between atoms: C_8  and  C_9
REMARK    4  A    between atoms: C_9  and  N_10
REMARK    5  A    between atoms: N_10  and  C_11
REMARK    6  A    between atoms: C_15  and  C_16
REMARK    7  A    between atoms: C_16  and  N_17
REMARK                            x       y       z     vdW  Elec       q    Type
REMARK                         _______ _______ _______ _____ _____    ______ ____
ROOT
ATOM      1  N   UNL     1      44.332   2.392  10.672  0.00  0.00    +0.000 N 
ATOM      2  H   UNL     1      43.937   1.458  10.566  0.00  0.00    +0.000 HD
ENDROOT
BRANCH   1   3
ATOM      3  C   UNL     1      45.051   2.758   9.509  0.00  0.00    +0.000 A 
ATOM      4  C   UNL     1      45.206   4.092   9.115  0.00  0.00    +0.000 A 
ATOM      5  C   UNL     1      45.980   4.441   8.008  0.00  0.00    +0.000 A 
ATOM      6  C   UNL     1      46.646   3.460   7.285  0.00  0.00    +0.000 A 
ATOM      7  C   UNL     1      46.548   2.113   7.658  0.00  0.00    +0.000 A 
ATOM      8  C   UNL     1      45.770   1.782   8.790  0.00  0.00    +0.000 A 
BRANCH   7   9
ATOM      9  C   UNL     1      47.337   1.046   6.933  0.00  0.00    +0.000 C 
BRANCH   9  10
ATOM     10  N   UNL     1      48.187   1.574   5.864  0.00  0.00    +0.000 NA
ATOM     11  H   UNL     1      48.313   0.849   5.159  0.00  0.00    +0.000 HD
ATOM     12  H   UNL     1      49.111   1.780   6.239  0.00  0.00    +0.000 HD
ENDBRANCH   9  10
ENDBRANCH   7   9
ENDBRANCH   1   3
BRANCH   1  13
ATOM     13  C   UNL     1      43.326   3.362  11.144  0.00  0.00    +0.000 C 
BRANCH  13  14
ATOM     14  C   UNL     1      43.650   3.909  12.536  0.00  0.00    +0.000 C 
BRANCH  14  21
ATOM     15  C   UNL     1      46.596   3.661  13.324  0.00  0.00    +0.000 C 
ATOM     16  C   UNL     1      45.996   4.926  12.781  0.00  0.00    +0.000 A 
ATOM     17  C   UNL     1      46.823   6.044  12.596  0.00  0.00    +0.000 A 
ATOM     18  C   UNL     1      46.301   7.224  12.082  0.00  0.00    +0.000 A 
ATOM     19  C   UNL     1      44.961   7.250  11.758  0.00  0.00    +0.000 A 
ATOM     20  N   UNL     1      44.130   6.198  11.920  0.00  0.00    +0.000 NA
ATOM     21  C   UNL     1      44.642   5.047  12.434  0.00  0.00    +0.000 A 
ENDBRANCH  14  21
ENDBRANCH  13  14
ENDBRANCH   1  13
TORSDOF 6
ENDMDL
MODEL 3
REMARK VINA RESULT:    -6.008      1.811      2.794
REMARK INTER + INTRA:          -8.828
REMARK INTER:                  -8.055
REMARK INTRA:                  -0.773
REMARK UNBOUND:                -0.888
REMARK  Name = 
REMARK  7 active torsions:
REMARK  status: ('A' for Active; 'I' for Inactive)
REMARK    1  A    between atoms: C_1  and  C_2
REMARK    2  A    between atoms: C_7  and  C_8
REMARK    3  A    between atoms: C_8  and  C_9
REMARK    4  A    between atoms: C_9  and  N_10
REMARK    5  A    between atoms: N_10  and  C_11
REMARK    6  A    between atoms: C_15  and  C_16
REMARK    7  A    between atoms: C_16  and  N_17
REMARK                            x       y       z     vdW  Elec       q    Type
REMARK                         _______ _______ _______ _____ _____    ______ ____
ROOT
ATOM      1  N   UNL     1      44.545   5.844  10.320  0.00  0.00    +0.000 N 
ATOM      2  H   UNL     1      45.402   6.314  10.612  0.00  0.00    +0.000 HD
ENDROOT
BRANCH   1   3
ATOM      3  C   UNL     1      44.836   4.552   9.822  0.00  0.00    +0.000 A 
ATOM      4  C   UNL     1      44.158   3.410  10.264  0.00  0.00    +0.000 A 
ATOM      5  C   UNL     1      44.405   2.154   9.710  0.00  0.00    +0.000 A 
ATOM      6  C   UNL     1      45.319   2.017   8.673  0.00  0.00    +0.000 A 
ATOM      7  C   UNL     1      46.002   3.134   8.175  0.00  0.00    +0.000 A 
ATOM      8  C   UNL     1      45.727   4.399   8.740  0.00  0.00    +0.000 A 
BRANCH   7   9
ATOM      9  C   UNL     1      46.933   3.011   6.990  0.00  0.00    +0.000 C 
BRANCH   9  10
ATOM     10  N   UNL     1      46.796   4.102   6.024  0.00  0.00    +0.000 NA
ATOM     11  H   UNL     1      46.667   4.975   6.532  0.00  0.00    +0.000 HD
ATOM     12  H   UNL     1      45.953   3.959   5.471  0.00  0.00    +0.000 HD
ENDBRANCH   9  10
ENDBRANCH   7   9
ENDBRANCH   1   3
BRANCH   1  13
ATOM     13  C   UNL     1      43.498   5.918  11.357  0.00  0.00    +0.000 C 
BRANCH  13  14
ATOM     14  C   UNL     1      44.042   5.627  12.757  0.00  0.00    +0.000 C 
BRANCH  14  21
ATOM     15  C   UNL     1      46.586   4.134  13.570  0.00  0.00    +0.000 C 
ATOM     16  C   UNL     1      46.552   5.612  13.306  0.00  0.00    +0.000 A 
ATOM     17  C   UNL     1      47.743   6.347  13.406  0.00  0.00    +0.000 A 
ATOM     18  C   UNL     1      47.746   7.713  13.155  0.00  0.00    +0.000 A 
ATOM     19  C   UNL     1      46.553   8.308  12.799  0.00  0.00    +0.000 A 
ATOM     20  N   UNL     1      45.386   7.637  12.690  0.00  0.00    +0.000 NA
ATOM     21  C   UNL     1      45.383   6.303  12.949  0.00  0.00    +0.000 A 
ENDBRANCH  14  21
ENDBRANCH  13  14
ENDBRANCH   1  13
TORSDOF 6
ENDMDL
MODEL 4
REMARK VINA RESULT:    -5.790      1.665      3.021
REMARK INTER + INTRA:          -8.540
REMARK INTER:                  -7.625
REMARK INTRA:                  -0.914
REMARK UNBOUND:                -0.888
REMARK  Name = 
REMARK  7 active torsions:
REMARK  status: ('A' for Active; 'I' for Inactive)
REMARK    1  A    between atoms: C_1  and  C_2
REMARK    2  A    between atoms: C_7  and  C_8
REMARK    3  A    between atoms: C_8  and  C_9
REMARK    4  A    between atoms: C_9  and  N_10
REMARK    5  A    between atoms: N_10  and  C_11
REMARK    6  A    between atoms: C_15  and  C_16
REMARK    7  A    between atoms: C_16  and  N_17
REMARK                            x       y       z     vdW  Elec       q    Type
REMARK                         _______ _______ _______ _____ _____    ______ ____
ROOT
ATOM      1  N   UNL     1      45.364   5.438   9.164  0.00  0.00    +0.000 N 
ATOM      2  H   UNL     1      44.948   5.989   8.413  0.00  0.00    +0.000 HD
ENDROOT
BRANCH   1   3
ATOM      3  C   UNL     1      45.663   4.132   8.710  0.00  0.00    +0.000 A 
ATOM      4  C   UNL     1      45.188   2.987   9.361  0.00  0.00    +0.000 A 
ATOM      5  C   UNL     1      45.430   1.708   8.858  0.00  0.00    +0.000 A 
ATOM      6  C   UNL     1      46.129   1.547   7.670  0.00  0.00    +0.000 A 
ATOM      7  C   UNL     1      46.599   2.662   6.965  0.00  0.00    +0.000 A 
ATOM      8  C   UNL     1      46.332   3.949   7.483  0.00  0.00    +0.000 A 
BRANCH   7   9
ATOM      9  C   UNL     1      47.285   2.504   5.626  0.00  0.00    +0.000 C 
BRANCH   9  10
ATOM     10  N   UNL     1      48.604   1.875   5.717  0.00  0.00    +0.000 NA
ATOM     11  H   UNL     1      48.563   1.125   6.404  0.00  0.00    +0.000 HD
ATOM     12  H   UNL     1      49.278   2.554   6.065  0.00  0.00    +0.000 HD
ENDBRANCH   9  10
ENDBRANCH   7   9
ENDBRANCH   1   3
BRANCH   1  13
ATOM     13  C   UNL     1      46.465   6.160   9.830  0.00  0.00    +0.000 C 
BRANCH  13  14
ATOM     14  C   UNL     1      46.038   6.768  11.168  0.00  0.00    +0.000 C 
BRANCH  14  21
ATOM     15  C   UNL     1      46.451   4.553  13.237  0.00  0.00    +0.000 C 
ATOM     16  C   UNL     1      45.097   4.961  12.732  0.00  0.00    +0.000 A 
ATOM     17  C   UNL     1      43.959   4.322  13.247  0.00  0.00    +0.000 A 
ATOM     18  C   UNL     1      42.693   4.687  12.810  0.00  0.00    +0.000 A 
ATOM     19  C   UNL     1      42.598   5.692  11.871  0.00  0.00    +0.000 A 
ATOM     20  N   UNL     1      43.666   6.333  11.350  0.00  0.00    +0.000 NA
ATOM     21  C   UNL     1      44.906   5.966  11.771  0.00  0.00    +0.000 A 
ENDBRANCH  14  21
ENDBRANCH  13  14
ENDBRANCH   1  13
TORSDOF 6
ENDMDL
MODEL 5
REMARK VINA RESULT:    -5.733      1.904      2.695
REMARK INTER + INTRA:          -8.465
REMARK INTER:                  -7.768
REMARK INTRA:                  -0.696
REMARK UNBOUND:                -0.888
REMARK  Name = 
REMARK  7 active torsions:
REMARK  status: ('A' for Active; 'I' for Inactive)
REMARK    1  A    between atoms: C_1  and  C_2
REMARK    2  A    between atoms: C_7  and  C_8
REMARK    3  A    between atoms: C_8  and  C_9
REMARK    4  A    between atoms: C_9  and  N_10
REMARK    5  A    between atoms: N_10  and  C_11
REMARK    6  A    between atoms: C_15  and  C_16
REMARK    7  A    between atoms: C_16  and  N_17
REMARK                            x       y       z     vdW  Elec       q    Type
REMARK                         _______ _______ _______ _____ _____    ______ ____
ROOT
ATOM      1  N   UNL     1      45.087   5.946  10.315  0.00  0.00    +0.000 N 
ATOM      2  H   UNL     1      45.982   6.333  10.613  0.00  0.00    +0.000 HD
ENDROOT
BRANCH   1   3
ATOM      3  C   UNL     1      45.274   4.685   9.701  0.00  0.00    +0.000 A 
ATOM      4  C   UNL     1      44.717   3.510  10.220  0.00  0.00    +0.000 A 
ATOM      5  C   UNL     1      44.849   2.288   9.563  0.00  0.00    +0.000 A 
ATOM      6  C   UNL     1      45.519   2.217   8.348  0.00  0.00    +0.000 A 
ATOM      7  C   UNL     1      46.069   3.370   7.772  0.00  0.00    +0.000 A 
ATOM      8  C   UNL     1      45.912   4.601   8.447  0.00  0.00    +0.000 A 
BRANCH   7   9
ATOM      9  C   UNL     1      46.723   3.322   6.410  0.00  0.00    +0.000 C 
BRANCH   9  10
ATOM     10  N   UNL     1      48.149   2.996   6.458  0.00  0.00    +0.000 NA
ATOM     11  H   UNL     1      48.681   3.806   6.144  0.00  0.00    +0.000 HD
ATOM     12  H   UNL     1      48.346   2.244   5.801  0.00  0.00    +0.000 HD
ENDBRANCH   9  10
ENDBRANCH   7   9
ENDBRANCH   1   3
BRANCH   1  13
ATOM     13  C   UNL     1      44.081   5.998  11.394  0.00  0.00    +0.000 C 
BRANCH  13  14
ATOM     14  C   UNL     1      44.712   6.220  12.770  0.00  0.00    +0.000 C 
BRANCH  14  21
ATOM     15  C   UNL     1      45.095   9.245  12.528  0.00  0.00    +0.000 C 
ATOM     16  C   UNL     1      46.238   8.272  12.531  0.00  0.00    +0.000 A 
ATOM     17  C   UNL     1      47.549   8.764  12.448  0.00  0.00    +0.000 A 
ATOM     18  C   UNL     1      48.628   7.890  12.462  0.00  0.00    +0.000 A 
ATOM     19  C   UNL     1      48.365   6.541  12.569  0.00  0.00    +0.000 A 
ATOM     20  N   UNL     1      47.120   6.025  12.652  0.00  0.00    +0.000 NA
ATOM     21  C   UNL     1      46.065   6.882  12.626  0.00  0.00    +0.000 A 
ENDBRANCH  14  21
ENDBRANCH  13  14
ENDBRANCH   1  13
TORSDOF 6
ENDMDL
MODEL 6
REMARK VINA RESULT:    -5.715      3.581      5.942
REMARK INTER + INTRA:          -8.440
REMARK INTER:                  -7.951
REMARK INTRA:                  -0.490
REMARK UNBOUND:                -0.888
REMARK  Name = 
REMARK  7 active torsions:
REMARK  status: ('A' for Active; 'I' for Inactive)
REMARK    1  A    between atoms: C_1  and  C_2
REMARK    2  A    between atoms: C_7  and  C_8
REMARK    3  A    between atoms: C_8  and  C_9
REMARK    4  A    between atoms: C_9  and  N_10
REMARK    5  A    between atoms: N_10  and  C_11
REMARK    6  A    between atoms: C_15  and  C_16
REMARK    7  A    between atoms: C_16  and  N_17
REMARK                            x       y       z     vdW  Elec       q    Type
REMARK                         _______ _______ _______ _____ _____    ______ ____
ROOT
ATOM      1  N   UNL     1      47.078   3.570  14.493  0.00  0.00    +0.000 N 
ATOM      2  H   UNL     1      46.694   2.649  14.701  0.00  0.00    +0.000 HD
ENDROOT
BRANCH   1   3
ATOM      3  C   UNL     1      46.411   4.143  13.384  0.00  0.00    +0.000 A 
ATOM      4  C   UNL     1      46.734   5.414  12.893  0.00  0.00    +0.000 A 
ATOM      5  C   UNL     1      46.119   5.934  11.754  0.00  0.00    +0.000 A 
ATOM      6  C   UNL     1      45.185   5.177  11.059  0.00  0.00    +0.000 A 
ATOM      7  C   UNL     1      44.850   3.888  11.492  0.00  0.00    +0.000 A 
ATOM      8  C   UNL     1      45.494   3.375  12.640  0.00  0.00    +0.000 A 
BRANCH   7   9
ATOM      9  C   UNL     1      43.900   3.022  10.696  0.00  0.00    +0.000 C 
BRANCH   9  10
ATOM     10  N   UNL     1      43.170   2.051  11.513  0.00  0.00    +0.000 NA
ATOM     11  H   UNL     1      42.648   1.432  10.896  0.00  0.00    +0.000 HD
ATOM     12  H   UNL     1      42.485   2.539  12.085  0.00  0.00    +0.000 HD
ENDBRANCH   9  10
ENDBRANCH   7   9
ENDBRANCH   1   3
BRANCH   1  13
ATOM     13  C   UNL     1      47.168   4.413  15.701  0.00  0.00    +0.000 C 
BRANCH  13  14
ATOM     14  C   UNL     1      47.350   3.586  16.976  0.00  0.00    +0.000 C 
BRANCH  14  21
ATOM     15  C   UNL     1      49.199   5.390  18.616  0.00  0.00    +0.000 C 
ATOM     16  C   UNL     1      49.659   4.114  17.971  0.00  0.00    +0.000 A 
ATOM     17  C   UNL     1      50.990   3.707  18.146  0.00  0.00    +0.000 A 
ATOM     18  C   UNL     1      51.442   2.525  17.574  0.00  0.00    +0.000 A 
ATOM     19  C   UNL     1      50.542   1.774  16.846  0.00  0.00    +0.000 A 
ATOM     20  N   UNL     1      49.254   2.129  16.653  0.00  0.00    +0.000 NA
ATOM     21  C   UNL     1      48.817   3.293  17.205  0.00  0.00    +0.000 A 
ENDBRANCH  14  21
ENDBRANCH  13  14
ENDBRANCH   1  13
TORSDOF 6
ENDMDL
MODEL 7
REMARK VINA RESULT:    -5.505      2.971      6.826
REMARK INTER + INTRA:          -8.163
REMARK INTER:                  -7.450
REMARK INTRA:                  -0.713
REMARK UNBOUND:                -0.888
REMARK  Name = 
REMARK  7 active torsions:
REMARK  status: ('A' for Active; 'I' for Inactive)
REMARK    1  A    between atoms: C_1  and  C_2
REMARK    2  A    between atoms: C_7  and  C_8
REMARK    3  A    between atoms: C_8  and  C_9
REMARK    4  A    between atoms: C_9  and  N_10
REMARK    5  A    between atoms: N_10  and  C_11
REMARK    6  A    between atoms: C_15  and  C_16
REMARK    7  A    between atoms: C_16  and  N_17
REMARK                            x       y       z     vdW  Elec       q    Type
REMARK                         _______ _______ _______ _____ _____    ______ ____
ROOT
ATOM      1  N   UNL     1      46.834   5.606  13.080  0.00  0.00    +0.000 N 
ATOM      2  H   UNL     1      47.375   5.152  12.344  0.00  0.00    +0.000 HD
ENDROOT
BRANCH   1   3
ATOM      3  C   UNL     1      47.593   5.687  14.271  0.00  0.00    +0.000 A 
ATOM      4  C   UNL     1      48.500   6.726  14.511  0.00  0.00    +0.000 A 
ATOM      5  C   UNL     1      49.185   6.831  15.722  0.00  0.00    +0.000 A 
ATOM      6  C   UNL     1      48.954   5.912  16.737  0.00  0.00    +0.000 A 
ATOM      7  C   UNL     1      48.034   4.872  16.557  0.00  0.00    +0.000 A 
ATOM      8  C   UNL     1      47.340   4.790  15.329  0.00  0.00    +0.000 A 
BRANCH   7   9
ATOM      9  C   UNL     1      47.709   3.918  17.684  0.00  0.00    +0.000 C 
BRANCH   9  10
ATOM     10  N   UNL     1      46.534   3.084  17.424  0.00  0.00    +0.000 NA
ATOM     11  H   UNL     1      46.327   3.112  16.427  0.00  0.00    +0.000 HD
ATOM     12  H   UNL     1      45.727   3.481  17.900  0.00  0.00    +0.000 HD
ENDBRANCH   9  10
ENDBRANCH   7   9
ENDBRANCH   1   3
BRANCH   1  13
ATOM     13  C   UNL     1      46.224   6.866  12.613  0.00  0.00    +0.000 C 
BRANCH  13  14
ATOM     14  C   UNL     1      45.300   6.657  11.412  0.00  0.00    +0.000 C 
BRANCH  14  21
ATOM     15  C   UNL     1      45.312   4.585   9.161  0.00  0.00    +0.000 C 
ATOM     16  C   UNL     1      44.632   4.358  10.480  0.00  0.00    +0.000 A 
ATOM     17  C   UNL     1      43.993   3.131  10.712  0.00  0.00    +0.000 A 
ATOM     18  C   UNL     1      43.368   2.886  11.928  0.00  0.00    +0.000 A 
ATOM     19  C   UNL     1      43.406   3.877  12.886  0.00  0.00    +0.000 A 
ATOM     20  N   UNL     1      44.009   5.071  12.704  0.00  0.00    +0.000 NA
ATOM     21  C   UNL     1      44.611   5.313  11.509  0.00  0.00    +0.000 A 
ENDBRANCH  14  21
ENDBRANCH  13  14
ENDBRANCH   1  13
TORSDOF 6
ENDMDL
MODEL 8
REMARK VINA RESULT:    -5.351      3.654      6.223
REMARK INTER + INTRA:          -7.960
REMARK INTER:                  -7.437
REMARK INTRA:                  -0.523
REMARK UNBOUND:                -0.888
REMARK  Name = 
REMARK  7 active torsions:
REMARK  status: ('A' for Active; 'I' for Inactive)
REMARK    1  A    between atoms: C_1  and  C_2
REMARK    2  A    between atoms: C_7  and  C_8
REMARK    3  A    between atoms: C_8  and  C_9
REMARK    4  A    between atoms: C_9  and  N_10
REMARK    5  A    between atoms: N_10  and  C_11
REMARK    6  A    between atoms: C_15  and  C_16
REMARK    7  A    between atoms: C_16  and  N_17
REMARK                            x       y       z     vdW  Elec       q    Type
REMARK                         _______ _______ _______ _____ _____    ______ ____
ROOT
ATOM      1  N   UNL     1      46.930   3.579  14.303  0.00  0.00    +0.000 N 
ATOM      2  H   UNL     1      46.541   2.709  14.666  0.00  0.00    +0.000 HD
ENDROOT
BRANCH   1   3
ATOM      3  C   UNL     1      46.171   4.038  13.201  0.00  0.00    +0.000 A 
ATOM      4  C   UNL     1      45.470   3.164  12.361  0.00  0.00    +0.000 A 
ATOM      5  C   UNL     1      44.666   3.636  11.324  0.00  0.00    +0.000 A 
ATOM      6  C   UNL     1      44.520   5.003  11.121  0.00  0.00    +0.000 A 
ATOM      7  C   UNL     1      45.177   5.918  11.953  0.00  0.00    +0.000 A 
ATOM      8  C   UNL     1      45.975   5.420  13.007  0.00  0.00    +0.000 A 
BRANCH   7   9
ATOM      9  C   UNL     1      44.957   7.406  11.798  0.00  0.00    +0.000 C 
BRANCH   9  10
ATOM     10  N   UNL     1      43.689   7.745  11.149  0.00  0.00    +0.000 NA
ATOM     11  H   UNL     1      43.084   6.926  11.166  0.00  0.00    +0.000 HD
ATOM     12  H   UNL     1      43.860   7.963  10.170  0.00  0.00    +0.000 HD
ENDBRANCH   9  10
ENDBRANCH   7   9
ENDBRANCH   1   3
BRANCH   1  13
ATOM     13  C   UNL     1      47.171   4.562  15.378  0.00  0.00    +0.000 C 
BRANCH  13  14
ATOM     14  C   UNL     1      47.272   3.905  16.757  0.00  0.00    +0.000 C 
BRANCH  14  21
ATOM     15  C   UNL     1      49.138   5.700  18.386  0.00  0.00    +0.000 C 
ATOM     16  C   UNL     1      49.560   4.372  17.827  0.00  0.00    +0.000 A 
ATOM     17  C   UNL     1      50.860   3.911  18.082  0.00  0.00    +0.000 A 
ATOM     18  C   UNL     1      51.276   2.680  17.590  0.00  0.00    +0.000 A 
ATOM     19  C   UNL     1      50.371   1.937  16.861  0.00  0.00    +0.000 A 
ATOM     20  N   UNL     1      49.111   2.343  16.593  0.00  0.00    +0.000 NA
ATOM     21  C   UNL     1      48.711   3.554  17.066  0.00  0.00    +0.000 A 
ENDBRANCH  14  21
ENDBRANCH  13  14
ENDBRANCH   1  13
TORSDOF 6
ENDMDL
MODEL 9
REMARK VINA RESULT:    -5.310      3.420      5.939
REMARK INTER + INTRA:          -7.906
REMARK INTER:                  -7.327
REMARK INTRA:                  -0.579
REMARK UNBOUND:                -0.888
REMARK  Name = 
REMARK  7 active torsions:
REMARK  status: ('A' for Active; 'I' for Inactive)
REMARK    1  A    between atoms: C_1  and  C_2
REMARK    2  A    between atoms: C_7  and  C_8
REMARK    3  A    between atoms: C_8  and  C_9
REMARK    4  A    between atoms: C_9  and  N_10
REMARK    5  A    between atoms: N_10  and  C_11
REMARK    6  A    between atoms: C_15  and  C_16
REMARK    7  A    between atoms: C_16  and  N_17
REMARK                            x       y       z     vdW  Elec       q    Type
REMARK                         _______ _______ _______ _____ _____    ______ ____
ROOT
ATOM      1  N   UNL     1      46.856   5.325  14.532  0.00  0.00    +0.000 N 
ATOM      2  H   UNL     1      47.641   5.975  14.544  0.00  0.00    +0.000 HD
ENDROOT
BRANCH   1   3
ATOM      3  C   UNL     1      46.235   5.326  13.261  0.00  0.00    +0.000 A 
ATOM      4  C   UNL     1      46.634   6.191  12.234  0.00  0.00    +0.000 A 
ATOM      5  C   UNL     1      46.061   6.128  10.964  0.00  0.00    +0.000 A 
ATOM      6  C   UNL     1      45.094   5.173  10.681  0.00  0.00    +0.000 A 
ATOM      7  C   UNL     1      44.682   4.265  11.665  0.00  0.00    +0.000 A 
ATOM      8  C   UNL     1      45.284   4.336  12.942  0.00  0.00    +0.000 A 
BRANCH   7   9
ATOM      9  C   UNL     1      43.695   3.165  11.345  0.00  0.00    +0.000 C 
BRANCH   9  10
ATOM     10  N   UNL     1      43.509   2.210  12.439  0.00  0.00    +0.000 NA
ATOM     11  H   UNL     1      43.509   1.268  12.053  0.00  0.00    +0.000 HD
ATOM     12  H   UNL     1      42.593   2.353  12.859  0.00  0.00    +0.000 HD
ENDBRANCH   9  10
ENDBRANCH   7   9
ENDBRANCH   1   3
BRANCH   1  13
ATOM     13  C   UNL     1      47.230   4.003  15.070  0.00  0.00    +0.000 C 
BRANCH  13  14
ATOM     14  C   UNL     1      47.281   3.989  16.600  0.00  0.00    +0.000 C 
BRANCH  14  21
ATOM     15  C   UNL     1      49.760   2.290  17.173  0.00  0.00    +0.000 C 
ATOM     16  C   UNL     1      49.735   3.783  17.332  0.00  0.00    +0.000 A 
ATOM     17  C   UNL     1      50.905   4.443  17.735  0.00  0.00    +0.000 A 
ATOM     18  C   UNL     1      50.917   5.824  17.878  0.00  0.00    +0.000 A 
ATOM     19  C   UNL     1      49.754   6.512  17.604  0.00  0.00    +0.000 A 
ATOM     20  N   UNL     1      48.606   5.917  17.214  0.00  0.00    +0.000 NA
ATOM     21  C   UNL     1      48.594   4.563  17.086  0.00  0.00    +0.000 A 
ENDBRANCH  14  21
ENDBRANCH  13  14
ENDBRANCH   1  13
TORSDOF 6
ENDMDL
