MODEL 1
REMARK VINA RESULT:    -8.127      0.000      0.000
REMARK INTER + INTRA:         -11.652
REMARK INTER:                 -10.503
REMARK INTRA:                  -1.150
REMARK UNBOUND:                -1.150
REMARK  Name = 
REMARK  6 active torsions:
REMARK  status: ('A' for Active; 'I' for Inactive)
REMARK    1  A    between atoms: C_1  and  O_2
REMARK    2  A    between atoms: O_2  and  C_3
REMARK    3  A    between atoms: C_9  and  N_10
REMARK    4  A    between atoms: N_10  and  C_11
REMARK    5  A    between atoms: C_11  and  C_12
REMARK    6  A    between atoms: C_16  and  C_17
REMARK                            x       y       z     vdW  Elec       q    Type
REMARK                         _______ _______ _______ _____ _____    ______ ____
ROOT
ATOM      1  C   UNL     1      43.611   6.467  11.309  0.00  0.00    +0.000 C 
ENDROOT
BRANCH   1   2
ATOM      2  C   UNL     1      43.713   5.039  10.850  0.00  0.00    +0.000 A 
ATOM      3  C   UNL     1      43.036   4.032  11.514  0.00  0.00    +0.000 A 
ATOM      4  N   UNL     1      43.175   2.732  11.193  0.00  0.00    +0.000 NA
ATOM      5  N   UNL     1      44.013   2.378  10.167  0.00  0.00    +0.000 NA
ATOM      6  C   UNL     1      44.682   3.321   9.460  0.00  0.00    +0.000 A 
ATOM      7  C   UNL     1      44.537   4.667   9.785  0.00  0.00    +0.000 A 
BRANCH   6   8
ATOM      8  C   UNL     1      45.573   2.828   8.391  0.00  0.00    +0.000 A 
ATOM      9  C   UNL     1      45.973   3.644   7.316  0.00  0.00    +0.000 A 
ATOM     10  C   UNL     1      46.828   3.167   6.316  0.00  0.00    +0.000 A 
ATOM     11  C   UNL     1      47.300   1.859   6.367  0.00  0.00    +0.000 A 
ATOM     12  C   UNL     1      46.914   1.026   7.412  0.00  0.00    +0.000 A 
ATOM     13  C   UNL     1      46.059   1.506   8.409  0.00  0.00    +0.000 A 
ENDBRANCH   6   8
ENDBRANCH   1   2
BRANCH   1  14
ATOM     14  N   UNL     1      44.277   6.676  12.564  0.00  0.00    +0.000 N 
ATOM     15  H   UNL     1      43.750   6.769  13.424  0.00  0.00    +0.000 HD
BRANCH  14  22
ATOM     16  C   UNL     1      46.425   5.703  13.333  0.00  0.00    +0.000 A 
ATOM     17  C   UNL     1      47.808   5.895  13.439  0.00  0.00    +0.000 A 
ATOM     18  C   UNL     1      48.377   7.076  12.982  0.00  0.00    +0.000 A 
ATOM     19  C   UNL     1      47.533   8.015  12.426  0.00  0.00    +0.000 A 
ATOM     20 CL   UNL     1      48.156   9.501  11.836  0.00  0.00    +0.000 Cl
ATOM     21  N   UNL     1      46.199   7.867  12.293  0.00  0.00    +0.000 NA
ATOM     22  C   UNL     1      45.642   6.720  12.740  0.00  0.00    +0.000 A 
BRANCH  16  24
ATOM     23  C   UNL     1      46.249   3.338  13.123  0.00  0.00    +0.000 C 
ATOM     24  O   UNL     1      45.812   4.545  13.736  0.00  0.00    +0.000 OA
ENDBRANCH  16  24
ENDBRANCH  14  22
ENDBRANCH   1  14
TORSDOF 5
ENDMDL
MODEL 2
REMARK VINA RESULT:    -7.755      1.826      2.391
REMARK INTER + INTRA:         -11.171
REMARK INTER:                 -10.399
REMARK INTRA:                  -0.773
REMARK UNBOUND:                -1.150
REMARK  Name = 
REMARK  6 active torsions:
REMARK  status: ('A' for Active; 'I' for Inactive)
REMARK    1  A    between atoms: C_1  and  O_2
REMARK    2  A    between atoms: O_2  and  C_3
REMARK    3  A    between atoms: C_9  and  N_10
REMARK    4  A    between atoms: N_10  and  C_11
REMARK    5  A    between atoms: C_11  and  C_12
REMARK    6  A    between atoms: C_16  and  C_17
REMARK                            x       y       z     vdW  Elec       q    Type
REMARK                         _______ _______ _______ _____ _____    ______ ____
ROOT
ATOM      1  C   UNL     1      43.554   6.346  11.238  0.00  0.00    +0.000 C 
ENDROOT
BRANCH   1   2
ATOM      2  C   UNL     1      43.694   4.917  10.794  0.00  0.00    +0.000 A 
ATOM      3  C   UNL     1      43.066   3.896  11.484  0.00  0.00    +0.000 A 
ATOM      4  N   UNL     1      43.241   2.598  11.175  0.00  0.00    +0.000 NA
ATOM      5  N   UNL     1      44.068   2.260  10.135  0.00  0.00    +0.000 NA
ATOM      6  C   UNL     1      44.689   3.215   9.403  0.00  0.00    +0.000 A 
ATOM      7  C   UNL     1      44.507   4.559   9.715  0.00  0.00    +0.000 A 
BRANCH   6   8
ATOM      8  C   UNL     1      45.573   2.739   8.319  0.00  0.00    +0.000 A 
ATOM      9  C   UNL     1      45.932   3.558   7.233  0.00  0.00    +0.000 A 
ATOM     10  C   UNL     1      46.780   3.098   6.220  0.00  0.00    +0.000 A 
ATOM     11  C   UNL     1      47.286   1.803   6.269  0.00  0.00    +0.000 A 
ATOM     12  C   UNL     1      46.942   0.966   7.325  0.00  0.00    +0.000 A 
ATOM     13  C   UNL     1      46.094   1.430   8.336  0.00  0.00    +0.000 A 
ENDBRANCH   6   8
ENDBRANCH   1   2
BRANCH   1  14
ATOM     14  N   UNL     1      44.072   6.550  12.562  0.00  0.00    +0.000 N 
ATOM     15  H   UNL     1      43.451   6.721  13.344  0.00  0.00    +0.000 HD
BRANCH  14  22
ATOM     16  C   UNL     1      46.383   7.450  12.582  0.00  0.00    +0.000 A 
ATOM     17  C   UNL     1      47.699   7.244  13.013  0.00  0.00    +0.000 A 
ATOM     18  C   UNL     1      48.019   6.100  13.729  0.00  0.00    +0.000 A 
ATOM     19  C   UNL     1      46.999   5.210  13.996  0.00  0.00    +0.000 A 
ATOM     20 CL   UNL     1      47.309   3.770  14.876  0.00  0.00    +0.000 Cl
ATOM     21  N   UNL     1      45.717   5.374  13.611  0.00  0.00    +0.000 NA
ATOM     22  C   UNL     1      45.403   6.486  12.911  0.00  0.00    +0.000 A 
BRANCH  16  24
ATOM     23  C   UNL     1      46.666   9.790  12.238  0.00  0.00    +0.000 C 
ATOM     24  O   UNL     1      46.002   8.577  11.901  0.00  0.00    +0.000 OA
ENDBRANCH  16  24
ENDBRANCH  14  22
ENDBRANCH   1  14
TORSDOF 5
ENDMDL
MODEL 3
REMARK VINA RESULT:    -7.406      2.258      2.668
REMARK INTER + INTRA:         -10.720
REMARK INTER:                 -10.134
REMARK INTRA:                  -0.586
REMARK UNBOUND:                -1.150
REMARK  Name = 
REMARK  6 active torsions:
REMARK  status: ('A' for Active; 'I' for Inactive)
REMARK    1  A    between atoms: C_1  and  O_2
REMARK    2  A    between atoms: O_2  and  C_3
REMARK    3  A    between atoms: C_9  and  N_10
REMARK    4  A    between atoms: N_10  and  C_11
REMARK    5  A    between atoms: C_11  and  C_12
REMARK    6  A    between atoms: C_16  and  C_17
REMARK                            x       y       z     vdW  Elec       q    Type
REMARK                         _______ _______ _______ _____ _____    ______ ____
ROOT
ATOM      1  C   UNL     1      45.196   4.867  13.380  0.00  0.00    +0.000 C 
ENDROOT
BRANCH   1   2
ATOM      2  C   UNL     1      44.678   4.018  12.252  0.00  0.00    +0.000 A 
ATOM      3  C   UNL     1      43.509   3.291  12.392  0.00  0.00    +0.000 A 
ATOM      4  N   UNL     1      43.063   2.449  11.442  0.00  0.00    +0.000 NA
ATOM      5  N   UNL     1      43.782   2.299  10.284  0.00  0.00    +0.000 NA
ATOM      6  C   UNL     1      44.919   3.004  10.076  0.00  0.00    +0.000 A 
ATOM      7  C   UNL     1      45.382   3.881  11.053  0.00  0.00    +0.000 A 
BRANCH   6   8
ATOM      8  C   UNL     1      45.625   2.750   8.804  0.00  0.00    +0.000 A 
ATOM      9  C   UNL     1      46.081   1.468   8.446  0.00  0.00    +0.000 A 
ATOM     10  C   UNL     1      46.737   1.238   7.232  0.00  0.00    +0.000 A 
ATOM     11  C   UNL     1      46.956   2.291   6.347  0.00  0.00    +0.000 A 
ATOM     12  C   UNL     1      46.525   3.571   6.678  0.00  0.00    +0.000 A 
ATOM     13  C   UNL     1      45.870   3.796   7.893  0.00  0.00    +0.000 A 
ENDBRANCH   6   8
ENDBRANCH   1   2
BRANCH   1  14
ATOM     14  N   UNL     1      46.297   4.244  14.059  0.00  0.00    +0.000 N 
ATOM     15  H   UNL     1      46.486   3.255  13.946  0.00  0.00    +0.000 HD
BRANCH  14  22
ATOM     16  C   UNL     1      47.408   4.656  16.238  0.00  0.00    +0.000 A 
ATOM     17  C   UNL     1      48.377   5.404  16.916  0.00  0.00    +0.000 A 
ATOM     18  C   UNL     1      49.103   6.372  16.236  0.00  0.00    +0.000 A 
ATOM     19  C   UNL     1      48.833   6.544  14.894  0.00  0.00    +0.000 A 
ATOM     20 CL   UNL     1      49.685   7.718  13.979  0.00  0.00    +0.000 Cl
ATOM     21  N   UNL     1      47.917   5.838  14.199  0.00  0.00    +0.000 NA
ATOM     22  C   UNL     1      47.208   4.897  14.859  0.00  0.00    +0.000 A 
BRANCH  16  24
ATOM     23  C   UNL     1      47.412   2.732  17.640  0.00  0.00    +0.000 C 
ATOM     24  O   UNL     1      46.685   3.665  16.849  0.00  0.00    +0.000 OA
ENDBRANCH  16  24
ENDBRANCH  14  22
ENDBRANCH   1  14
TORSDOF 5
ENDMDL
MODEL 4
REMARK VINA RESULT:    -7.262      2.774      6.192
REMARK INTER + INTRA:         -10.535
REMARK INTER:                  -9.782
REMARK INTRA:                  -0.753
REMARK UNBOUND:                -1.150
REMARK  Name = 
REMARK  6 active torsions:
REMARK  status: ('A' for Active; 'I' for Inactive)
REMARK    1  A    between atoms: C_1  and  O_2
REMARK    2  A    between atoms: O_2  and  C_3
REMARK    3  A    between atoms: C_9  and  N_10
REMARK    4  A    between atoms: N_10  and  C_11
REMARK    5  A    between atoms: C_11  and  C_12
REMARK    6  A    between atoms: C_16  and  C_17
REMARK                            x       y       z     vdW  Elec       q    Type
REMARK                         _______ _______ _______ _____ _____    ______ ____
ROOT
ATOM      1  C   UNL     1      44.419   6.055  11.794  0.00  0.00    +0.000 C 
ENDROOT
BRANCH   1   2
ATOM      2  C   UNL     1      45.869   6.039  12.193  0.00  0.00    +0.000 A 
ATOM      3  C   UNL     1      46.338   5.126  13.120  0.00  0.00    +0.000 A 
ATOM      4  N   UNL     1      47.605   5.139  13.573  0.00  0.00    +0.000 NA
ATOM      5  N   UNL     1      48.478   6.085  13.101  0.00  0.00    +0.000 NA
ATOM      6  C   UNL     1      48.087   6.989  12.170  0.00  0.00    +0.000 A 
ATOM      7  C   UNL     1      46.778   6.976  11.695  0.00  0.00    +0.000 A 
BRANCH   6   8
ATOM      8  C   UNL     1      49.101   7.975  11.748  0.00  0.00    +0.000 A 
ATOM      9  C   UNL     1      50.410   7.597  11.394  0.00  0.00    +0.000 A 
ATOM     10  C   UNL     1      51.357   8.541  10.983  0.00  0.00    +0.000 A 
ATOM     11  C   UNL     1      51.018   9.889  10.922  0.00  0.00    +0.000 A 
ATOM     12  C   UNL     1      49.735  10.295  11.275  0.00  0.00    +0.000 A 
ATOM     13  C   UNL     1      48.791   9.348  11.685  0.00  0.00    +0.000 A 
ENDBRANCH   6   8
ENDBRANCH   1   2
BRANCH   1  14
ATOM     14  N   UNL     1      44.244   5.762  10.399  0.00  0.00    +0.000 N 
ATOM     15  H   UNL     1      43.879   6.460   9.762  0.00  0.00    +0.000 HD
BRANCH  14  22
ATOM     16  C   UNL     1      44.077   3.301  10.138  0.00  0.00    +0.000 A 
ATOM     17  C   UNL     1      44.519   2.183   9.420  0.00  0.00    +0.000 A 
ATOM     18  C   UNL     1      45.450   2.340   8.403  0.00  0.00    +0.000 A 
ATOM     19  C   UNL     1      45.894   3.620   8.139  0.00  0.00    +0.000 A 
ATOM     20 CL   UNL     1      47.044   3.901   6.898  0.00  0.00    +0.000 Cl
ATOM     21  N   UNL     1      45.487   4.725   8.797  0.00  0.00    +0.000 NA
ATOM     22  C   UNL     1      44.583   4.575   9.790  0.00  0.00    +0.000 A 
BRANCH  16  24
ATOM     23  C   UNL     1      43.558   2.662  12.373  0.00  0.00    +0.000 C 
ATOM     24  O   UNL     1      43.135   3.211  11.130  0.00  0.00    +0.000 OA
ENDBRANCH  16  24
ENDBRANCH  14  22
ENDBRANCH   1  14
TORSDOF 5
ENDMDL
MODEL 5
REMARK VINA RESULT:    -7.000      2.627      3.275
REMARK INTER + INTRA:         -10.196
REMARK INTER:                  -9.583
REMARK INTRA:                  -0.614
REMARK UNBOUND:                -1.150
REMARK  Name = 
REMARK  6 active torsions:
REMARK  status: ('A' for Active; 'I' for Inactive)
REMARK    1  A    between atoms: C_1  and  O_2
REMARK    2  A    between atoms: O_2  and  C_3
REMARK    3  A    between atoms: C_9  and  N_10
REMARK    4  A    between atoms: N_10  and  C_11
REMARK    5  A    between atoms: C_11  and  C_12
REMARK    6  A    between atoms: C_16  and  C_17
REMARK                            x       y       z     vdW  Elec       q    Type
REMARK                         _______ _______ _______ _____ _____    ______ ____
ROOT
ATOM      1  C   UNL     1      45.296   5.263  12.743  0.00  0.00    +0.000 C 
ENDROOT
BRANCH   1   2
ATOM      2  C   UNL     1      44.798   4.286  11.714  0.00  0.00    +0.000 A 
ATOM      3  C   UNL     1      43.650   3.546  11.937  0.00  0.00    +0.000 A 
ATOM      4  N   UNL     1      43.224   2.597  11.084  0.00  0.00    +0.000 NA
ATOM      5  N   UNL     1      43.943   2.345   9.943  0.00  0.00    +0.000 NA
ATOM      6  C   UNL     1      45.060   3.055   9.655  0.00  0.00    +0.000 A 
ATOM      7  C   UNL     1      45.502   4.043  10.532  0.00  0.00    +0.000 A 
BRANCH   6   8
ATOM      8  C   UNL     1      45.768   2.687   8.413  0.00  0.00    +0.000 A 
ATOM      9  C   UNL     1      46.309   1.404   8.213  0.00  0.00    +0.000 A 
ATOM     10  C   UNL     1      46.966   1.065   7.025  0.00  0.00    +0.000 A 
ATOM     11  C   UNL     1      47.101   2.007   6.009  0.00  0.00    +0.000 A 
ATOM     12  C   UNL     1      46.585   3.287   6.181  0.00  0.00    +0.000 A 
ATOM     13  C   UNL     1      45.929   3.622   7.370  0.00  0.00    +0.000 A 
ENDBRANCH   6   8
ENDBRANCH   1   2
BRANCH   1  14
ATOM     14  N   UNL     1      46.695   5.088  13.015  0.00  0.00    +0.000 N 
ATOM     15  H   UNL     1      47.345   4.855  12.274  0.00  0.00    +0.000 HD
BRANCH  14  22
ATOM     16  C   UNL     1      48.137   6.336  14.602  0.00  0.00    +0.000 A 
ATOM     17  C   UNL     1      48.667   6.371  15.898  0.00  0.00    +0.000 A 
ATOM     18  C   UNL     1      48.373   5.352  16.792  0.00  0.00    +0.000 A 
ATOM     19  C   UNL     1      47.546   4.338  16.352  0.00  0.00    +0.000 A 
ATOM     20 CL   UNL     1      47.132   3.040  17.394  0.00  0.00    +0.000 Cl
ATOM     21  N   UNL     1      47.004   4.270  15.118  0.00  0.00    +0.000 NA
ATOM     22  C   UNL     1      47.291   5.260  14.245  0.00  0.00    +0.000 A 
BRANCH  16  24
ATOM     23  C   UNL     1      47.468   8.435  13.700  0.00  0.00    +0.000 C 
ATOM     24  O   UNL     1      48.365   7.331  13.688  0.00  0.00    +0.000 OA
ENDBRANCH  16  24
ENDBRANCH  14  22
ENDBRANCH   1  14
TORSDOF 5
ENDMDL
MODEL 6
REMARK VINA RESULT:    -6.991      1.662      2.236
REMARK INTER + INTRA:         -10.184
REMARK INTER:                  -9.481
REMARK INTRA:                  -0.703
REMARK UNBOUND:                -1.150
REMARK  Name = 
REMARK  6 active torsions:
REMARK  status: ('A' for Active; 'I' for Inactive)
REMARK    1  A    between atoms: C_1  and  O_2
REMARK    2  A    between atoms: O_2  and  C_3
REMARK    3  A    between atoms: C_9  and  N_10
REMARK    4  A    between atoms: N_10  and  C_11
REMARK    5  A    between atoms: C_11  and  C_12
REMARK    6  A    between atoms: C_16  and  C_17
REMARK                            x       y       z     vdW  Elec       q    Type
REMARK                         _______ _______ _______ _____ _____    ______ ____
ROOT
ATOM      1  C   UNL     1      44.305   6.094  12.368  0.00  0.00    +0.000 C 
ENDROOT
BRANCH   1   2
ATOM      2  C   UNL     1      44.125   4.828  11.578  0.00  0.00    +0.000 A 
ATOM      3  C   UNL     1      43.230   3.857  11.990  0.00  0.00    +0.000 A 
ATOM      4  N   UNL     1      43.108   2.672  11.363  0.00  0.00    +0.000 NA
ATOM      5  N   UNL     1      43.890   2.406  10.269  0.00  0.00    +0.000 NA
ATOM      6  C   UNL     1      44.764   3.328   9.799  0.00  0.00    +0.000 A 
ATOM      7  C   UNL     1      44.891   4.557  10.441  0.00  0.00    +0.000 A 
BRANCH   6   8
ATOM      8  C   UNL     1      45.571   2.928   8.629  0.00  0.00    +0.000 A 
ATOM      9  C   UNL     1      45.925   3.842   7.619  0.00  0.00    +0.000 A 
ATOM     10  C   UNL     1      46.701   3.453   6.521  0.00  0.00    +0.000 A 
ATOM     11  C   UNL     1      47.137   2.136   6.406  0.00  0.00    +0.000 A 
ATOM     12  C   UNL     1      46.794   1.208   7.384  0.00  0.00    +0.000 A 
ATOM     13  C   UNL     1      46.019   1.601   8.480  0.00  0.00    +0.000 A 
ENDBRANCH   6   8
ENDBRANCH   1   2
BRANCH   1  14
ATOM     14  N   UNL     1      45.684   6.488  12.442  0.00  0.00    +0.000 N 
ATOM     15  H   UNL     1      46.414   5.804  12.600  0.00  0.00    +0.000 HD
BRANCH  14  22
ATOM     16  C   UNL     1      47.509   8.165  12.328  0.00  0.00    +0.000 A 
ATOM     17  C   UNL     1      47.828   9.512  12.123  0.00  0.00    +0.000 A 
ATOM     18  C   UNL     1      46.817  10.432  11.882  0.00  0.00    +0.000 A 
ATOM     19  C   UNL     1      45.521   9.958  11.847  0.00  0.00    +0.000 A 
ATOM     20 CL   UNL     1      44.212  11.028  11.555  0.00  0.00    +0.000 Cl
ATOM     21  N   UNL     1      45.170   8.668  12.027  0.00  0.00    +0.000 NA
ATOM     22  C   UNL     1      46.152   7.771  12.264  0.00  0.00    +0.000 A 
BRANCH  16  24
ATOM     23  C   UNL     1      49.305   7.370  13.675  0.00  0.00    +0.000 C 
ATOM     24  O   UNL     1      48.467   7.207  12.536  0.00  0.00    +0.000 OA
ENDBRANCH  16  24
ENDBRANCH  14  22
ENDBRANCH   1  14
TORSDOF 5
ENDMDL
MODEL 7
REMARK VINA RESULT:    -6.659      2.968      6.774
REMARK INTER + INTRA:          -9.755
REMARK INTER:                  -9.323
REMARK INTRA:                  -0.432
REMARK UNBOUND:                -1.150
REMARK  Name = 
REMARK  6 active torsions:
REMARK  status: ('A' for Active; 'I' for Inactive)
REMARK    1  A    between atoms: C_1  and  O_2
REMARK    2  A    between atoms: O_2  and  C_3
REMARK    3  A    between atoms: C_9  and  N_10
REMARK    4  A    between atoms: N_10  and  C_11
REMARK    5  A    between atoms: C_11  and  C_12
REMARK    6  A    between atoms: C_16  and  C_17
REMARK                            x       y       z     vdW  Elec       q    Type
REMARK                         _______ _______ _______ _____ _____    ______ ____
ROOT
ATOM      1  C   UNL     1      44.615   6.126  11.643  0.00  0.00    +0.000 C 
ENDROOT
BRANCH   1   2
ATOM      2  C   UNL     1      45.950   6.216  12.329  0.00  0.00    +0.000 A 
ATOM      3  C   UNL     1      47.034   6.796  11.695  0.00  0.00    +0.000 A 
ATOM      4  N   UNL     1      48.266   6.814  12.237  0.00  0.00    +0.000 NA
ATOM      5  N   UNL     1      48.468   6.242  13.467  0.00  0.00    +0.000 NA
ATOM      6  C   UNL     1      47.440   5.684  14.150  0.00  0.00    +0.000 A 
ATOM      7  C   UNL     1      46.163   5.669  13.597  0.00  0.00    +0.000 A 
BRANCH   6   8
ATOM      8  C   UNL     1      47.774   5.079  15.456  0.00  0.00    +0.000 A 
ATOM      9  C   UNL     1      48.616   5.720  16.383  0.00  0.00    +0.000 A 
ATOM     10  C   UNL     1      48.914   5.141  17.622  0.00  0.00    +0.000 A 
ATOM     11  C   UNL     1      48.377   3.902  17.960  0.00  0.00    +0.000 A 
ATOM     12  C   UNL     1      47.549   3.240  17.060  0.00  0.00    +0.000 A 
ATOM     13  C   UNL     1      47.254   3.822  15.823  0.00  0.00    +0.000 A 
ENDBRANCH   6   8
ENDBRANCH   1   2
BRANCH   1  14
ATOM     14  N   UNL     1      44.752   5.893  10.233  0.00  0.00    +0.000 N 
ATOM     15  H   UNL     1      44.799   6.666   9.579  0.00  0.00    +0.000 HD
BRANCH  14  22
ATOM     16  C   UNL     1      44.195   3.484  10.035  0.00  0.00    +0.000 A 
ATOM     17  C   UNL     1      44.433   2.298   9.331  0.00  0.00    +0.000 A 
ATOM     18  C   UNL     1      45.343   2.288   8.284  0.00  0.00    +0.000 A 
ATOM     19  C   UNL     1      45.973   3.476   7.977  0.00  0.00    +0.000 A 
ATOM     20 CL   UNL     1      47.112   3.551   6.696  0.00  0.00    +0.000 Cl
ATOM     21  N   UNL     1      45.765   4.644   8.620  0.00  0.00    +0.000 NA
ATOM     22  C   UNL     1      44.881   4.656   9.642  0.00  0.00    +0.000 A 
BRANCH  16  24
ATOM     23  C   UNL     1      43.512   2.733  12.190  0.00  0.00    +0.000 C 
ATOM     24  O   UNL     1      43.282   3.562  11.056  0.00  0.00    +0.000 OA
ENDBRANCH  16  24
ENDBRANCH  14  22
ENDBRANCH   1  14
TORSDOF 5
ENDMDL
MODEL 8
REMARK VINA RESULT:    -6.465      3.230      7.157
REMARK INTER + INTRA:          -9.505
REMARK INTER:                  -8.765
REMARK INTRA:                  -0.740
REMARK UNBOUND:                -1.150
REMARK  Name = 
REMARK  6 active torsions:
REMARK  status: ('A' for Active; 'I' for Inactive)
REMARK    1  A    between atoms: C_1  and  O_2
REMARK    2  A    between atoms: O_2  and  C_3
REMARK    3  A    between atoms: C_9  and  N_10
REMARK    4  A    between atoms: N_10  and  C_11
REMARK    5  A    between atoms: C_11  and  C_12
REMARK    6  A    between atoms: C_16  and  C_17
REMARK                            x       y       z     vdW  Elec       q    Type
REMARK                         _______ _______ _______ _____ _____    ______ ____
ROOT
ATOM      1  C   UNL     1      45.386   6.725  11.270  0.00  0.00    +0.000 C 
ENDROOT
BRANCH   1   2
ATOM      2  C   UNL     1      46.613   6.698  12.139  0.00  0.00    +0.000 A 
ATOM      3  C   UNL     1      47.813   7.218  11.687  0.00  0.00    +0.000 A 
ATOM      4  N   UNL     1      48.953   7.129  12.397  0.00  0.00    +0.000 NA
ATOM      5  N   UNL     1      48.939   6.506  13.618  0.00  0.00    +0.000 NA
ATOM      6  C   UNL     1      47.790   6.002  14.128  0.00  0.00    +0.000 A 
ATOM      7  C   UNL     1      46.606   6.096  13.401  0.00  0.00    +0.000 A 
BRANCH   6   8
ATOM      8  C   UNL     1      47.893   5.334  15.441  0.00  0.00    +0.000 A 
ATOM      9  C   UNL     1      47.174   4.162  15.741  0.00  0.00    +0.000 A 
ATOM     10  C   UNL     1      47.291   3.532  16.985  0.00  0.00    +0.000 A 
ATOM     11  C   UNL     1      48.128   4.065  17.961  0.00  0.00    +0.000 A 
ATOM     12  C   UNL     1      48.844   5.228  17.696  0.00  0.00    +0.000 A 
ATOM     13  C   UNL     1      48.725   5.854  16.452  0.00  0.00    +0.000 A 
ENDBRANCH   6   8
ENDBRANCH   1   2
BRANCH   1  14
ATOM     14  N   UNL     1      45.594   6.035  10.028  0.00  0.00    +0.000 N 
ATOM     15  H   UNL     1      46.072   6.486   9.256  0.00  0.00    +0.000 HD
BRANCH  14  22
ATOM     16  C   UNL     1      45.542   4.008   8.600  0.00  0.00    +0.000 A 
ATOM     17  C   UNL     1      45.103   2.683   8.491  0.00  0.00    +0.000 A 
ATOM     18  C   UNL     1      44.361   2.116   9.518  0.00  0.00    +0.000 A 
ATOM     19  C   UNL     1      44.099   2.901  10.622  0.00  0.00    +0.000 A 
ATOM     20 CL   UNL     1      43.189   2.276  11.936  0.00  0.00    +0.000 Cl
ATOM     21  N   UNL     1      44.512   4.176  10.774  0.00  0.00    +0.000 NA
ATOM     22  C   UNL     1      45.232   4.732   9.774  0.00  0.00    +0.000 A 
BRANCH  16  24
ATOM     23  C   UNL     1      47.091   3.756   6.809  0.00  0.00    +0.000 C 
ATOM     24  O   UNL     1      46.306   4.610   7.633  0.00  0.00    +0.000 OA
ENDBRANCH  16  24
ENDBRANCH  14  22
ENDBRANCH   1  14
TORSDOF 5
ENDMDL
MODEL 9
REMARK VINA RESULT:    -5.968      5.131      8.198
REMARK INTER + INTRA:          -8.862
REMARK INTER:                  -8.152
REMARK INTRA:                  -0.710
REMARK UNBOUND:                -1.150
REMARK  Name = 
REMARK  6 active torsions:
REMARK  status: ('A' for Active; 'I' for Inactive)
REMARK    1  A    between atoms: C_1  and  O_2
REMARK    2  A    between atoms: O_2  and  C_3
REMARK    3  A    between atoms: C_9  and  N_10
REMARK    4  A    between atoms: N_10  and  C_11
REMARK    5  A    between atoms: C_11  and  C_12
REMARK    6  A    between atoms: C_16  and  C_17
REMARK                            x       y       z     vdW  Elec       q    Type
REMARK                         _______ _______ _______ _____ _____    ______ ____
ROOT
ATOM      1  C   UNL     1      46.892   4.098  16.207  0.00  0.00    +0.000 C 
ENDROOT
BRANCH   1   2
ATOM      2  C   UNL     1      48.205   4.443  16.854  0.00  0.00    +0.000 A 
ATOM      3  C   UNL     1      48.502   5.749  17.201  0.00  0.00    +0.000 A 
ATOM      4  N   UNL     1      49.700   6.112  17.695  0.00  0.00    +0.000 NA
ATOM      5  N   UNL     1      50.671   5.160  17.872  0.00  0.00    +0.000 NA
ATOM      6  C   UNL     1      50.431   3.859  17.578  0.00  0.00    +0.000 A 
ATOM      7  C   UNL     1      49.192   3.478  17.072  0.00  0.00    +0.000 A 
BRANCH   6   8
ATOM      8  C   UNL     1      51.553   2.923  17.787  0.00  0.00    +0.000 A 
ATOM      9  C   UNL     1      51.471   1.565  17.425  0.00  0.00    +0.000 A 
ATOM     10  C   UNL     1      52.547   0.691  17.617  0.00  0.00    +0.000 A 
ATOM     11  C   UNL     1      53.731   1.156  18.182  0.00  0.00    +0.000 A 
ATOM     12  C   UNL     1      53.839   2.490  18.559  0.00  0.00    +0.000 A 
ATOM     13  C   UNL     1      52.761   3.361  18.365  0.00  0.00    +0.000 A 
ENDBRANCH   6   8
ENDBRANCH   1   2
BRANCH   1  14
ATOM     14  N   UNL     1      47.046   3.790  14.813  0.00  0.00    +0.000 N 
ATOM     15  H   UNL     1      47.335   2.867  14.513  0.00  0.00    +0.000 HD
BRANCH  14  22
ATOM     16  C   UNL     1      45.569   4.719  13.050  0.00  0.00    +0.000 A 
ATOM     17  C   UNL     1      45.452   5.659  12.020  0.00  0.00    +0.000 A 
ATOM     18  C   UNL     1      46.522   6.489  11.718  0.00  0.00    +0.000 A 
ATOM     19  C   UNL     1      47.668   6.350  12.473  0.00  0.00    +0.000 A 
ATOM     20 CL   UNL     1      49.037   7.337  12.166  0.00  0.00    +0.000 Cl
ATOM     21  N   UNL     1      47.820   5.467  13.482  0.00  0.00    +0.000 NA
ATOM     22  C   UNL     1      46.781   4.656  13.776  0.00  0.00    +0.000 A 
BRANCH  16  24
ATOM     23  C   UNL     1      43.723   3.379  12.367  0.00  0.00    +0.000 C 
ATOM     24  O   UNL     1      44.534   3.896  13.415  0.00  0.00    +0.000 OA
ENDBRANCH  16  24
ENDBRANCH  14  22
ENDBRANCH   1  14
TORSDOF 5
ENDMDL
