MODEL 1
REMARK VINA RESULT:    -7.817      0.000      0.000
REMARK INTER + INTRA:         -12.815
REMARK INTER:                 -11.701
REMARK INTRA:                  -1.114
REMARK UNBOUND:                -1.114
REMARK  Name = 
REMARK  10 active torsions:
REMARK  status: ('A' for Active; 'I' for Inactive)
REMARK    1  A    between atoms: C_1  and  C_2
REMARK    2  A    between atoms: C_2  and  O_3
REMARK    3  A    between atoms: O_3  and  C_4
REMARK    4  A    between atoms: C_6  and  C_7
REMARK    5  A    between atoms: C_9  and  O_10
REMARK    6  A    between atoms: C_12  and  C_13
REMARK    7  A    between atoms: C_17  and  C_18
REMARK    8  A    between atoms: C_18  and  C_19
REMARK    9  A    between atoms: C_19  and  C_20
REMARK   10  A    between atoms: C_25  and  C_26
REMARK                            x       y       z     vdW  Elec       q    Type
REMARK                         _______ _______ _______ _____ _____    ______ ____
ROOT
ATOM      1  C   UNL     1      46.570   4.424  13.810  0.00  0.00    +0.000 A 
ATOM      2  C   UNL     1      47.313   5.565  13.634  0.00  0.00    +0.000 A 
ATOM      3  C   UNL     1      46.876   6.425  12.648  0.00  0.00    +0.000 A 
ATOM      4  N   UNL     1      45.809   6.131  11.875  0.00  0.00    +0.000 NA
ATOM      5  C   UNL     1      45.190   4.958  12.082  0.00  0.00    +0.000 A 
ATOM      6  N   UNL     1      45.517   4.093  13.052  0.00  0.00    +0.000 NA
ENDROOT
BRANCH   3   7
ATOM      7  C   UNL     1      47.486   7.749  12.407  0.00  0.00    +0.000 A 
ATOM      8  C   UNL     1      46.761   8.944  12.563  0.00  0.00    +0.000 A 
ATOM      9  C   UNL     1      47.342  10.171  12.250  0.00  0.00    +0.000 A 
ATOM     10  C   UNL     1      48.654  10.252  11.792  0.00  0.00    +0.000 A 
ATOM     11  C   UNL     1      49.404   9.084  11.658  0.00  0.00    +0.000 A 
ATOM     12  C   UNL     1      48.825   7.848  11.973  0.00  0.00    +0.000 A 
BRANCH   9  13
ATOM     13  O   UNL     1      46.645  11.337  12.366  0.00  0.00    +0.000 OA
ATOM     14  H   UNL     1      47.088  11.917  13.007  0.00  0.00    +0.000 HD
ENDBRANCH   9  13
BRANCH  11  15
ATOM     15  C   UNL     1      50.750   9.144  11.175  0.00  0.00    +0.000 C 
ATOM     16  N   UNL     1      51.846   9.181  10.788  0.00  0.00    +0.000 NA
ENDBRANCH  11  15
ENDBRANCH   3   7
BRANCH   1  17
ATOM     17  O   UNL     1      46.975   3.568  14.817  0.00  0.00    +0.000 OA
BRANCH  17  19
ATOM     18  C   UNL     1      47.186   3.363  17.192  0.00  0.00    +0.000 C 
ATOM     19  C   UNL     1      47.380   4.274  15.994  0.00  0.00    +0.000 C 
ENDBRANCH  17  19
ENDBRANCH   1  17
BRANCH   5  20
ATOM     20  C   UNL     1      44.010   4.607  11.224  0.00  0.00    +0.000 C 
BRANCH  20  21
ATOM     21  C   UNL     1      44.248   4.874   9.733  0.00  0.00    +0.000 C 
BRANCH  21  22
ATOM     22  C   UNL     1      44.764   3.624   9.062  0.00  0.00    +0.000 A 
ATOM     23  C   UNL     1      44.398   2.367   9.543  0.00  0.00    +0.000 A 
ATOM     24  C   UNL     1      44.997   1.222   9.023  0.00  0.00    +0.000 A 
ATOM     25  C   UNL     1      45.997   1.316   8.044  0.00  0.00    +0.000 A 
ATOM     26 CL   UNL     1      46.718  -0.189   7.585  0.00  0.00    +0.000 Cl
ATOM     27  C   UNL     1      46.367   2.569   7.533  0.00  0.00    +0.000 A 
ATOM     28  C   UNL     1      45.711   3.713   8.031  0.00  0.00    +0.000 A 
BRANCH  27  29
ATOM     29  C   UNL     1      47.457   2.840   6.544  0.00  0.00    +0.000 C 
ATOM     30  N   UNL     1      47.173   3.537   5.408  0.00  0.00    +0.000 N 
ATOM     31  O   UNL     1      48.597   2.421   6.719  0.00  0.00    +0.000 OA
ATOM     32  H   UNL     1      46.251   3.888   5.189  0.00  0.00    +0.000 HD
ATOM     33  H   UNL     1      47.912   3.661   4.729  0.00  0.00    +0.000 HD
ENDBRANCH  27  29
ENDBRANCH  21  22
ENDBRANCH  20  21
ENDBRANCH   5  20
TORSDOF 9
ENDMDL
MODEL 2
REMARK VINA RESULT:    -7.779      2.031      2.637
REMARK INTER + INTRA:         -12.759
REMARK INTER:                 -12.213
REMARK INTRA:                  -0.545
REMARK UNBOUND:                -1.114
REMARK  Name = 
REMARK  10 active torsions:
REMARK  status: ('A' for Active; 'I' for Inactive)
REMARK    1  A    between atoms: C_1  and  C_2
REMARK    2  A    between atoms: C_2  and  O_3
REMARK    3  A    between atoms: O_3  and  C_4
REMARK    4  A    between atoms: C_6  and  C_7
REMARK    5  A    between atoms: C_9  and  O_10
REMARK    6  A    between atoms: C_12  and  C_13
REMARK    7  A    between atoms: C_17  and  C_18
REMARK    8  A    between atoms: C_18  and  C_19
REMARK    9  A    between atoms: C_19  and  C_20
REMARK   10  A    between atoms: C_25  and  C_26
REMARK                            x       y       z     vdW  Elec       q    Type
REMARK                         _______ _______ _______ _____ _____    ______ ____
ROOT
ATOM      1  C   UNL     1      46.622   4.174  13.728  0.00  0.00    +0.000 A 
ATOM      2  C   UNL     1      47.225   5.378  13.464  0.00  0.00    +0.000 A 
ATOM      3  C   UNL     1      46.590   6.185  12.544  0.00  0.00    +0.000 A 
ATOM      4  N   UNL     1      45.467   5.785  11.909  0.00  0.00    +0.000 NA
ATOM      5  C   UNL     1      44.993   4.560  12.188  0.00  0.00    +0.000 A 
ATOM      6  N   UNL     1      45.519   3.738  13.107  0.00  0.00    +0.000 NA
ENDROOT
BRANCH   3   7
ATOM      7  C   UNL     1      47.036   7.559  12.232  0.00  0.00    +0.000 A 
ATOM      8  C   UNL     1      48.394   7.878  12.050  0.00  0.00    +0.000 A 
ATOM      9  C   UNL     1      48.788   9.198  11.838  0.00  0.00    +0.000 A 
ATOM     10  C   UNL     1      47.855  10.230  11.784  0.00  0.00    +0.000 A 
ATOM     11  C   UNL     1      46.501   9.934  11.930  0.00  0.00    +0.000 A 
ATOM     12  C   UNL     1      46.099   8.609  12.143  0.00  0.00    +0.000 A 
BRANCH   9  13
ATOM     13  O   UNL     1      50.102   9.531  11.690  0.00  0.00    +0.000 OA
ATOM     14  H   UNL     1      50.282  10.356  12.170  0.00  0.00    +0.000 HD
ENDBRANCH   9  13
BRANCH  11  15
ATOM     15  C   UNL     1      45.527  10.983  11.892  0.00  0.00    +0.000 C 
ATOM     16  N   UNL     1      44.740  11.838  11.848  0.00  0.00    +0.000 NA
ENDBRANCH  11  15
ENDBRANCH   3   7
BRANCH   1  17
ATOM     17  O   UNL     1      47.228   3.369  14.674  0.00  0.00    +0.000 OA
BRANCH  17  19
ATOM     18  C   UNL     1      48.001   3.070  16.919  0.00  0.00    +0.000 C 
ATOM     19  C   UNL     1      47.434   4.054  15.913  0.00  0.00    +0.000 C 
ENDBRANCH  17  19
ENDBRANCH   1  17
BRANCH   5  20
ATOM     20  C   UNL     1      43.753   4.092  11.483  0.00  0.00    +0.000 C 
BRANCH  20  21
ATOM     21  C   UNL     1      43.944   2.760  10.748  0.00  0.00    +0.000 C 
BRANCH  21  22
ATOM     22  C   UNL     1      44.849   2.955   9.556  0.00  0.00    +0.000 A 
ATOM     23  C   UNL     1      44.878   4.180   8.889  0.00  0.00    +0.000 A 
ATOM     24  C   UNL     1      45.593   4.308   7.701  0.00  0.00    +0.000 A 
ATOM     25  C   UNL     1      46.258   3.208   7.139  0.00  0.00    +0.000 A 
ATOM     26 CL   UNL     1      47.004   3.504   5.606  0.00  0.00    +0.000 Cl
ATOM     27  C   UNL     1      46.257   1.971   7.803  0.00  0.00    +0.000 A 
ATOM     28  C   UNL     1      45.575   1.875   9.033  0.00  0.00    +0.000 A 
BRANCH  27  29
ATOM     29  C   UNL     1      46.856   0.693   7.305  0.00  0.00    +0.000 C 
ATOM     30  N   UNL     1      47.362   0.639   6.041  0.00  0.00    +0.000 N 
ATOM     31  O   UNL     1      46.872  -0.318   7.999  0.00  0.00    +0.000 OA
ATOM     32  H   UNL     1      47.356   1.426   5.406  0.00  0.00    +0.000 HD
ATOM     33  H   UNL     1      47.711  -0.249   5.706  0.00  0.00    +0.000 HD
ENDBRANCH  27  29
ENDBRANCH  21  22
ENDBRANCH  20  21
ENDBRANCH   5  20
TORSDOF 9
ENDMDL
MODEL 3
REMARK VINA RESULT:    -7.718      2.230      4.747
REMARK INTER + INTRA:         -12.667
REMARK INTER:                 -11.525
REMARK INTRA:                  -1.142
REMARK UNBOUND:                -1.114
REMARK  Name = 
REMARK  10 active torsions:
REMARK  status: ('A' for Active; 'I' for Inactive)
REMARK    1  A    between atoms: C_1  and  C_2
REMARK    2  A    between atoms: C_2  and  O_3
REMARK    3  A    between atoms: O_3  and  C_4
REMARK    4  A    between atoms: C_6  and  C_7
REMARK    5  A    between atoms: C_9  and  O_10
REMARK    6  A    between atoms: C_12  and  C_13
REMARK    7  A    between atoms: C_17  and  C_18
REMARK    8  A    between atoms: C_18  and  C_19
REMARK    9  A    between atoms: C_19  and  C_20
REMARK   10  A    between atoms: C_25  and  C_26
REMARK                            x       y       z     vdW  Elec       q    Type
REMARK                         _______ _______ _______ _____ _____    ______ ____
ROOT
ATOM      1  C   UNL     1      48.005   7.181  11.997  0.00  0.00    +0.000 A 
ATOM      2  C   UNL     1      48.309   6.863  13.298  0.00  0.00    +0.000 A 
ATOM      3  C   UNL     1      47.501   5.919  13.895  0.00  0.00    +0.000 A 
ATOM      4  N   UNL     1      46.445   5.380  13.248  0.00  0.00    +0.000 NA
ATOM      5  C   UNL     1      46.192   5.808  12.000  0.00  0.00    +0.000 A 
ATOM      6  N   UNL     1      46.958   6.679  11.331  0.00  0.00    +0.000 NA
ENDROOT
BRANCH   3   7
ATOM      7  C   UNL     1      47.759   5.375  15.245  0.00  0.00    +0.000 A 
ATOM      8  C   UNL     1      47.048   4.273  15.754  0.00  0.00    +0.000 A 
ATOM      9  C   UNL     1      47.260   3.837  17.060  0.00  0.00    +0.000 A 
ATOM     10  C   UNL     1      48.185   4.464  17.889  0.00  0.00    +0.000 A 
ATOM     11  C   UNL     1      48.925   5.539  17.398  0.00  0.00    +0.000 A 
ATOM     12  C   UNL     1      48.717   5.981  16.085  0.00  0.00    +0.000 A 
BRANCH   9  13
ATOM     13  O   UNL     1      46.558   2.790  17.580  0.00  0.00    +0.000 OA
ATOM     14  H   UNL     1      46.455   2.101  16.903  0.00  0.00    +0.000 HD
ENDBRANCH   9  13
BRANCH  11  15
ATOM     15  C   UNL     1      49.871   6.206  18.239  0.00  0.00    +0.000 C 
ATOM     16  N   UNL     1      50.629   6.755  18.930  0.00  0.00    +0.000 NA
ENDBRANCH  11  15
ENDBRANCH   3   7
BRANCH   1  17
ATOM     17  O   UNL     1      48.827   8.100  11.374  0.00  0.00    +0.000 OA
BRANCH  17  19
ATOM     18  C   UNL     1      51.160   7.746  10.969  0.00  0.00    +0.000 C 
ATOM     19  C   UNL     1      50.118   8.172  11.987  0.00  0.00    +0.000 C 
ENDBRANCH  17  19
ENDBRANCH   1  17
BRANCH   5  20
ATOM     20  C   UNL     1      45.015   5.230  11.269  0.00  0.00    +0.000 C 
BRANCH  20  21
ATOM     21  C   UNL     1      45.116   5.386   9.746  0.00  0.00    +0.000 C 
BRANCH  21  22
ATOM     22  C   UNL     1      45.352   4.040   9.106  0.00  0.00    +0.000 A 
ATOM     23  C   UNL     1      44.930   2.874   9.746  0.00  0.00    +0.000 A 
ATOM     24  C   UNL     1      45.287   1.630   9.230  0.00  0.00    +0.000 A 
ATOM     25  C   UNL     1      46.100   1.529   8.092  0.00  0.00    +0.000 A 
ATOM     26 CL   UNL     1      46.543  -0.083   7.646  0.00  0.00    +0.000 Cl
ATOM     27  C   UNL     1      46.520   2.689   7.422  0.00  0.00    +0.000 A 
ATOM     28  C   UNL     1      46.104   3.938   7.926  0.00  0.00    +0.000 A 
BRANCH  27  29
ATOM     29  C   UNL     1      47.441   2.752   6.244  0.00  0.00    +0.000 C 
ATOM     30  N   UNL     1      48.780   2.584   6.431  0.00  0.00    +0.000 N 
ATOM     31  O   UNL     1      47.019   2.983   5.116  0.00  0.00    +0.000 OA
ATOM     32  H   UNL     1      49.198   2.418   7.337  0.00  0.00    +0.000 HD
ATOM     33  H   UNL     1      49.388   2.686   5.630  0.00  0.00    +0.000 HD
ENDBRANCH  27  29
ENDBRANCH  21  22
ENDBRANCH  20  21
ENDBRANCH   5  20
TORSDOF 9
ENDMDL
MODEL 4
REMARK VINA RESULT:    -7.387      4.589      8.492
REMARK INTER + INTRA:         -12.172
REMARK INTER:                 -11.396
REMARK INTRA:                  -0.776
REMARK UNBOUND:                -1.114
REMARK  Name = 
REMARK  10 active torsions:
REMARK  status: ('A' for Active; 'I' for Inactive)
REMARK    1  A    between atoms: C_1  and  C_2
REMARK    2  A    between atoms: C_2  and  O_3
REMARK    3  A    between atoms: O_3  and  C_4
REMARK    4  A    between atoms: C_6  and  C_7
REMARK    5  A    between atoms: C_9  and  O_10
REMARK    6  A    between atoms: C_12  and  C_13
REMARK    7  A    between atoms: C_17  and  C_18
REMARK    8  A    between atoms: C_18  and  C_19
REMARK    9  A    between atoms: C_19  and  C_20
REMARK   10  A    between atoms: C_25  and  C_26
REMARK                            x       y       z     vdW  Elec       q    Type
REMARK                         _______ _______ _______ _____ _____    ______ ____
ROOT
ATOM      1  C   UNL     1      48.261   6.422  14.539  0.00  0.00    +0.000 A 
ATOM      2  C   UNL     1      47.362   6.292  13.511  0.00  0.00    +0.000 A 
ATOM      3  C   UNL     1      46.473   5.242  13.612  0.00  0.00    +0.000 A 
ATOM      4  N   UNL     1      46.524   4.369  14.641  0.00  0.00    +0.000 NA
ATOM      5  C   UNL     1      47.486   4.543  15.562  0.00  0.00    +0.000 A 
ATOM      6  N   UNL     1      48.351   5.566  15.566  0.00  0.00    +0.000 NA
ENDROOT
BRANCH   3   7
ATOM      7  C   UNL     1      45.366   5.028  12.657  0.00  0.00    +0.000 A 
ATOM      8  C   UNL     1      44.188   5.796  12.696  0.00  0.00    +0.000 A 
ATOM      9  C   UNL     1      43.132   5.515  11.833  0.00  0.00    +0.000 A 
ATOM     10  C   UNL     1      43.215   4.485  10.901  0.00  0.00    +0.000 A 
ATOM     11  C   UNL     1      44.384   3.730  10.821  0.00  0.00    +0.000 A 
ATOM     12  C   UNL     1      45.451   4.008  11.686  0.00  0.00    +0.000 A 
BRANCH   9  13
ATOM     13  O   UNL     1      41.971   6.229  11.878  0.00  0.00    +0.000 OA
ATOM     14  H   UNL     1      42.176   7.176  11.950  0.00  0.00    +0.000 HD
ENDBRANCH   9  13
BRANCH  11  15
ATOM     15  C   UNL     1      44.485   2.656   9.880  0.00  0.00    +0.000 C 
ATOM     16  N   UNL     1      44.567   1.793   9.104  0.00  0.00    +0.000 NA
ENDBRANCH  11  15
ENDBRANCH   3   7
BRANCH   1  17
ATOM     17  O   UNL     1      49.136   7.489  14.470  0.00  0.00    +0.000 OA
BRANCH  17  19
ATOM     18  C   UNL     1      50.928   8.417  13.182  0.00  0.00    +0.000 C 
ATOM     19  C   UNL     1      49.568   7.745  13.130  0.00  0.00    +0.000 C 
ENDBRANCH  17  19
ENDBRANCH   1  17
BRANCH   5  20
ATOM     20  C   UNL     1      47.567   3.576  16.707  0.00  0.00    +0.000 C 
BRANCH  20  21
ATOM     21  C   UNL     1      48.538   2.418  16.450  0.00  0.00    +0.000 C 
BRANCH  21  22
ATOM     22  C   UNL     1      49.820   2.641  17.215  0.00  0.00    +0.000 A 
ATOM     23  C   UNL     1      50.095   3.888  17.775  0.00  0.00    +0.000 A 
ATOM     24  C   UNL     1      51.343   4.137  18.342  0.00  0.00    +0.000 A 
ATOM     25  C   UNL     1      52.347   3.158  18.326  0.00  0.00    +0.000 A 
ATOM     26 CL   UNL     1      53.873   3.660  18.970  0.00  0.00    +0.000 Cl
ATOM     27  C   UNL     1      52.086   1.889  17.784  0.00  0.00    +0.000 A 
ATOM     28  C   UNL     1      50.800   1.639  17.264  0.00  0.00    +0.000 A 
BRANCH  27  29
ATOM     29  C   UNL     1      53.065   0.769  17.629  0.00  0.00    +0.000 C 
ATOM     30  N   UNL     1      52.875  -0.388  18.323  0.00  0.00    +0.000 N 
ATOM     31  O   UNL     1      54.056   0.881  16.913  0.00  0.00    +0.000 OA
ATOM     32  H   UNL     1      52.096  -0.537  18.951  0.00  0.00    +0.000 HD
ATOM     33  H   UNL     1      53.579  -1.110  18.246  0.00  0.00    +0.000 HD
ENDBRANCH  27  29
ENDBRANCH  21  22
ENDBRANCH  20  21
ENDBRANCH   5  20
TORSDOF 9
ENDMDL
MODEL 5
REMARK VINA RESULT:    -7.283      3.175      7.919
REMARK INTER + INTRA:         -12.016
REMARK INTER:                 -10.942
REMARK INTRA:                  -1.074
REMARK UNBOUND:                -1.114
REMARK  Name = 
REMARK  10 active torsions:
REMARK  status: ('A' for Active; 'I' for Inactive)
REMARK    1  A    between atoms: C_1  and  C_2
REMARK    2  A    between atoms: C_2  and  O_3
REMARK    3  A    between atoms: O_3  and  C_4
REMARK    4  A    between atoms: C_6  and  C_7
REMARK    5  A    between atoms: C_9  and  O_10
REMARK    6  A    between atoms: C_12  and  C_13
REMARK    7  A    between atoms: C_17  and  C_18
REMARK    8  A    between atoms: C_18  and  C_19
REMARK    9  A    between atoms: C_19  and  C_20
REMARK   10  A    between atoms: C_25  and  C_26
REMARK                            x       y       z     vdW  Elec       q    Type
REMARK                         _______ _______ _______ _____ _____    ______ ____
ROOT
ATOM      1  C   UNL     1      45.513   8.758  12.310  0.00  0.00    +0.000 A 
ATOM      2  C   UNL     1      44.919   7.749  11.594  0.00  0.00    +0.000 A 
ATOM      3  C   UNL     1      45.689   6.625  11.377  0.00  0.00    +0.000 A 
ATOM      4  N   UNL     1      46.967   6.550  11.806  0.00  0.00    +0.000 NA
ATOM      5  C   UNL     1      47.478   7.619  12.439  0.00  0.00    +0.000 A 
ATOM      6  N   UNL     1      46.782   8.725  12.736  0.00  0.00    +0.000 NA
ENDROOT
BRANCH   3   7
ATOM      7  C   UNL     1      45.166   5.403  10.731  0.00  0.00    +0.000 A 
ATOM      8  C   UNL     1      44.237   4.561  11.369  0.00  0.00    +0.000 A 
ATOM      9  C   UNL     1      43.827   3.375  10.764  0.00  0.00    +0.000 A 
ATOM     10  C   UNL     1      44.308   2.998   9.514  0.00  0.00    +0.000 A 
ATOM     11  C   UNL     1      45.205   3.832   8.847  0.00  0.00    +0.000 A 
ATOM     12  C   UNL     1      45.621   5.026   9.450  0.00  0.00    +0.000 A 
BRANCH   9  13
ATOM     13  O   UNL     1      42.951   2.531  11.380  0.00  0.00    +0.000 OA
ATOM     14  H   UNL     1      43.078   1.629  11.042  0.00  0.00    +0.000 HD
ENDBRANCH   9  13
BRANCH  11  15
ATOM     15  C   UNL     1      45.722   3.455   7.567  0.00  0.00    +0.000 C 
ATOM     16  N   UNL     1      46.143   3.163   6.522  0.00  0.00    +0.000 NA
ENDBRANCH  11  15
ENDBRANCH   3   7
BRANCH   1  17
ATOM     17  O   UNL     1      44.743   9.877  12.565  0.00  0.00    +0.000 OA
BRANCH  17  19
ATOM     18  C   UNL     1      45.414  11.529  10.969  0.00  0.00    +0.000 C 
ATOM     19  C   UNL     1      44.336  10.536  11.363  0.00  0.00    +0.000 C 
ENDBRANCH  17  19
ENDBRANCH   1  17
BRANCH   5  20
ATOM     20  C   UNL     1      48.901   7.560  12.911  0.00  0.00    +0.000 C 
BRANCH  20  21
ATOM     21  C   UNL     1      49.107   8.206  14.287  0.00  0.00    +0.000 C 
BRANCH  21  22
ATOM     22  C   UNL     1      49.178   7.138  15.351  0.00  0.00    +0.000 A 
ATOM     23  C   UNL     1      50.285   7.062  16.196  0.00  0.00    +0.000 A 
ATOM     24  C   UNL     1      50.420   5.985  17.069  0.00  0.00    +0.000 A 
ATOM     25  C   UNL     1      49.474   4.950  17.087  0.00  0.00    +0.000 A 
ATOM     26 CL   UNL     1      49.844   3.633  18.147  0.00  0.00    +0.000 Cl
ATOM     27  C   UNL     1      48.342   5.017  16.258  0.00  0.00    +0.000 A 
ATOM     28  C   UNL     1      48.195   6.141  15.421  0.00  0.00    +0.000 A 
BRANCH  27  29
ATOM     29  C   UNL     1      47.285   3.968  16.110  0.00  0.00    +0.000 C 
ATOM     30  N   UNL     1      46.979   3.496  14.869  0.00  0.00    +0.000 N 
ATOM     31  O   UNL     1      46.664   3.546  17.080  0.00  0.00    +0.000 OA
ATOM     32  H   UNL     1      47.433   3.819  14.025  0.00  0.00    +0.000 HD
ATOM     33  H   UNL     1      46.224   2.828  14.788  0.00  0.00    +0.000 HD
ENDBRANCH  27  29
ENDBRANCH  21  22
ENDBRANCH  20  21
ENDBRANCH   5  20
TORSDOF 9
ENDMDL
MODEL 6
REMARK VINA RESULT:    -6.826      3.668      7.087
REMARK INTER + INTRA:         -11.332
REMARK INTER:                 -10.489
REMARK INTRA:                  -0.843
REMARK UNBOUND:                -1.114
REMARK  Name = 
REMARK  10 active torsions:
REMARK  status: ('A' for Active; 'I' for Inactive)
REMARK    1  A    between atoms: C_1  and  C_2
REMARK    2  A    between atoms: C_2  and  O_3
REMARK    3  A    between atoms: O_3  and  C_4
REMARK    4  A    between atoms: C_6  and  C_7
REMARK    5  A    between atoms: C_9  and  O_10
REMARK    6  A    between atoms: C_12  and  C_13
REMARK    7  A    between atoms: C_17  and  C_18
REMARK    8  A    between atoms: C_18  and  C_19
REMARK    9  A    between atoms: C_19  and  C_20
REMARK   10  A    between atoms: C_25  and  C_26
REMARK                            x       y       z     vdW  Elec       q    Type
REMARK                         _______ _______ _______ _____ _____    ______ ____
ROOT
ATOM      1  C   UNL     1      45.131   4.038  11.953  0.00  0.00    +0.000 A 
ATOM      2  C   UNL     1      45.233   5.392  11.751  0.00  0.00    +0.000 A 
ATOM      3  C   UNL     1      46.118   6.062  12.570  0.00  0.00    +0.000 A 
ATOM      4  N   UNL     1      46.803   5.423  13.543  0.00  0.00    +0.000 NA
ATOM      5  C   UNL     1      46.581   4.108  13.704  0.00  0.00    +0.000 A 
ATOM      6  N   UNL     1      45.781   3.375  12.918  0.00  0.00    +0.000 NA
ENDROOT
BRANCH   3   7
ATOM      7  C   UNL     1      46.439   7.495  12.408  0.00  0.00    +0.000 A 
ATOM      8  C   UNL     1      45.447   8.492  12.464  0.00  0.00    +0.000 A 
ATOM      9  C   UNL     1      45.772   9.826  12.227  0.00  0.00    +0.000 A 
ATOM     10  C   UNL     1      47.079  10.212  11.947  0.00  0.00    +0.000 A 
ATOM     11  C   UNL     1      48.085   9.247  11.918  0.00  0.00    +0.000 A 
ATOM     12  C   UNL     1      47.765   7.904  12.155  0.00  0.00    +0.000 A 
BRANCH   9  13
ATOM     13  O   UNL     1      44.819  10.801  12.246  0.00  0.00    +0.000 OA
ATOM     14  H   UNL     1      44.119  10.557  12.874  0.00  0.00    +0.000 HD
ENDBRANCH   9  13
BRANCH  11  15
ATOM     15  C   UNL     1      49.433   9.622  11.617  0.00  0.00    +0.000 C 
ATOM     16  N   UNL     1      50.530   9.915  11.364  0.00  0.00    +0.000 NA
ENDBRANCH  11  15
ENDBRANCH   3   7
BRANCH   1  17
ATOM     17  O   UNL     1      44.273   3.348  11.117  0.00  0.00    +0.000 OA
BRANCH  17  19
ATOM     18  C   UNL     1      45.002   2.133   9.188  0.00  0.00    +0.000 C 
ATOM     19  C   UNL     1      44.628   3.497   9.739  0.00  0.00    +0.000 C 
ENDBRANCH  17  19
ENDBRANCH   1  17
BRANCH   5  20
ATOM     20  C   UNL     1      47.323   3.383  14.788  0.00  0.00    +0.000 C 
BRANCH  20  21
ATOM     21  C   UNL     1      47.207   4.063  16.157  0.00  0.00    +0.000 C 
BRANCH  21  22
ATOM     22  C   UNL     1      48.581   4.283  16.742  0.00  0.00    +0.000 A 
ATOM     23  C   UNL     1      49.114   5.569  16.818  0.00  0.00    +0.000 A 
ATOM     24  C   UNL     1      50.438   5.751  17.211  0.00  0.00    +0.000 A 
ATOM     25  C   UNL     1      51.261   4.652  17.495  0.00  0.00    +0.000 A 
ATOM     26 CL   UNL     1      52.908   5.042  17.859  0.00  0.00    +0.000 Cl
ATOM     27  C   UNL     1      50.741   3.350  17.442  0.00  0.00    +0.000 A 
ATOM     28  C   UNL     1      49.384   3.188  17.097  0.00  0.00    +0.000 A 
BRANCH  27  29
ATOM     29  C   UNL     1      51.502   2.078  17.648  0.00  0.00    +0.000 C 
ATOM     30  N   UNL     1      52.523   2.046  18.549  0.00  0.00    +0.000 N 
ATOM     31  O   UNL     1      51.246   1.069  16.998  0.00  0.00    +0.000 OA
ATOM     32  H   UNL     1      52.804   2.848  19.098  0.00  0.00    +0.000 HD
ATOM     33  H   UNL     1      53.058   1.192  18.631  0.00  0.00    +0.000 HD
ENDBRANCH  27  29
ENDBRANCH  21  22
ENDBRANCH  20  21
ENDBRANCH   5  20
TORSDOF 9
ENDMDL
MODEL 7
REMARK VINA RESULT:    -6.688      4.282      7.519
REMARK INTER + INTRA:         -11.126
REMARK INTER:                 -10.097
REMARK INTRA:                  -1.029
REMARK UNBOUND:                -1.114
REMARK  Name = 
REMARK  10 active torsions:
REMARK  status: ('A' for Active; 'I' for Inactive)
REMARK    1  A    between atoms: C_1  and  C_2
REMARK    2  A    between atoms: C_2  and  O_3
REMARK    3  A    between atoms: O_3  and  C_4
REMARK    4  A    between atoms: C_6  and  C_7
REMARK    5  A    between atoms: C_9  and  O_10
REMARK    6  A    between atoms: C_12  and  C_13
REMARK    7  A    between atoms: C_17  and  C_18
REMARK    8  A    between atoms: C_18  and  C_19
REMARK    9  A    between atoms: C_19  and  C_20
REMARK   10  A    between atoms: C_25  and  C_26
REMARK                            x       y       z     vdW  Elec       q    Type
REMARK                         _______ _______ _______ _____ _____    ______ ____
ROOT
ATOM      1  C   UNL     1      45.834   4.323  12.937  0.00  0.00    +0.000 A 
ATOM      2  C   UNL     1      46.411   5.410  12.330  0.00  0.00    +0.000 A 
ATOM      3  C   UNL     1      47.376   6.071  13.062  0.00  0.00    +0.000 A 
ATOM      4  N   UNL     1      47.693   5.693  14.319  0.00  0.00    +0.000 NA
ATOM      5  C   UNL     1      47.022   4.656  14.848  0.00  0.00    +0.000 A 
ATOM      6  N   UNL     1      46.112   3.929  14.187  0.00  0.00    +0.000 NA
ENDROOT
BRANCH   3   7
ATOM      7  C   UNL     1      48.179   7.184  12.515  0.00  0.00    +0.000 A 
ATOM      8  C   UNL     1      49.568   7.077  12.320  0.00  0.00    +0.000 A 
ATOM      9  C   UNL     1      50.307   8.173  11.879  0.00  0.00    +0.000 A 
ATOM     10  C   UNL     1      49.696   9.392  11.606  0.00  0.00    +0.000 A 
ATOM     11  C   UNL     1      48.316   9.515  11.761  0.00  0.00    +0.000 A 
ATOM     12  C   UNL     1      47.567   8.417  12.203  0.00  0.00    +0.000 A 
BRANCH   9  13
ATOM     13  O   UNL     1      51.658   8.096  11.714  0.00  0.00    +0.000 OA
ATOM     14  H   UNL     1      51.903   8.489  10.860  0.00  0.00    +0.000 HD
ENDBRANCH   9  13
BRANCH  11  15
ATOM     15  C   UNL     1      47.671  10.765  11.499  0.00  0.00    +0.000 C 
ATOM     16  N   UNL     1      47.159  11.788  11.284  0.00  0.00    +0.000 NA
ENDBRANCH  11  15
ENDBRANCH   3   7
BRANCH   1  17
ATOM     17  O   UNL     1      44.890   3.629  12.204  0.00  0.00    +0.000 OA
BRANCH  17  19
ATOM     18  C   UNL     1      44.601   2.882   9.948  0.00  0.00    +0.000 C 
ATOM     19  C   UNL     1      44.821   4.084  10.849  0.00  0.00    +0.000 C 
ENDBRANCH  17  19
ENDBRANCH   1  17
BRANCH   5  20
ATOM     20  C   UNL     1      47.351   4.229  16.249  0.00  0.00    +0.000 C 
BRANCH  20  21
ATOM     21  C   UNL     1      48.093   2.889  16.312  0.00  0.00    +0.000 C 
BRANCH  21  22
ATOM     22  C   UNL     1      49.417   3.066  17.014  0.00  0.00    +0.000 A 
ATOM     23  C   UNL     1      49.854   4.340  17.377  0.00  0.00    +0.000 A 
ATOM     24  C   UNL     1      51.141   4.517  17.880  0.00  0.00    +0.000 A 
ATOM     25  C   UNL     1      52.024   3.433  17.994  0.00  0.00    +0.000 A 
ATOM     26 CL   UNL     1      53.619   3.836  18.531  0.00  0.00    +0.000 Cl
ATOM     27  C   UNL     1      51.598   2.139  17.651  0.00  0.00    +0.000 A 
ATOM     28  C   UNL     1      50.275   1.972  17.196  0.00  0.00    +0.000 A 
BRANCH  27  29
ATOM     29  C   UNL     1      52.435   0.899  17.650  0.00  0.00    +0.000 C 
ATOM     30  N   UNL     1      52.077  -0.152  18.439  0.00  0.00    +0.000 N 
ATOM     31  O   UNL     1      53.457   0.818  16.975  0.00  0.00    +0.000 OA
ATOM     32  H   UNL     1      51.264  -0.143  19.040  0.00  0.00    +0.000 HD
ATOM     33  H   UNL     1      52.687  -0.958  18.464  0.00  0.00    +0.000 HD
ENDBRANCH  27  29
ENDBRANCH  21  22
ENDBRANCH  20  21
ENDBRANCH   5  20
TORSDOF 9
ENDMDL
MODEL 8
REMARK VINA RESULT:    -6.679      3.634      7.327
REMARK INTER + INTRA:         -11.112
REMARK INTER:                  -9.869
REMARK INTRA:                  -1.243
REMARK UNBOUND:                -1.114
REMARK  Name = 
REMARK  10 active torsions:
REMARK  status: ('A' for Active; 'I' for Inactive)
REMARK    1  A    between atoms: C_1  and  C_2
REMARK    2  A    between atoms: C_2  and  O_3
REMARK    3  A    between atoms: O_3  and  C_4
REMARK    4  A    between atoms: C_6  and  C_7
REMARK    5  A    between atoms: C_9  and  O_10
REMARK    6  A    between atoms: C_12  and  C_13
REMARK    7  A    between atoms: C_17  and  C_18
REMARK    8  A    between atoms: C_18  and  C_19
REMARK    9  A    between atoms: C_19  and  C_20
REMARK   10  A    between atoms: C_25  and  C_26
REMARK                            x       y       z     vdW  Elec       q    Type
REMARK                         _______ _______ _______ _____ _____    ______ ____
ROOT
ATOM      1  C   UNL     1      47.691   4.773  15.674  0.00  0.00    +0.000 A 
ATOM      2  C   UNL     1      46.579   4.555  14.899  0.00  0.00    +0.000 A 
ATOM      3  C   UNL     1      46.489   5.303  13.744  0.00  0.00    +0.000 A 
ATOM      4  N   UNL     1      47.419   6.230  13.428  0.00  0.00    +0.000 NA
ATOM      5  C   UNL     1      48.434   6.416  14.287  0.00  0.00    +0.000 A 
ATOM      6  N   UNL     1      48.623   5.694  15.400  0.00  0.00    +0.000 NA
ENDROOT
BRANCH   3   7
ATOM      7  C   UNL     1      45.423   5.109  12.740  0.00  0.00    +0.000 A 
ATOM      8  C   UNL     1      44.252   5.889  12.734  0.00  0.00    +0.000 A 
ATOM      9  C   UNL     1      43.231   5.625  11.822  0.00  0.00    +0.000 A 
ATOM     10  C   UNL     1      43.346   4.602  10.887  0.00  0.00    +0.000 A 
ATOM     11  C   UNL     1      44.510   3.835  10.852  0.00  0.00    +0.000 A 
ATOM     12  C   UNL     1      45.540   4.096  11.765  0.00  0.00    +0.000 A 
BRANCH   9  13
ATOM     13  O   UNL     1      42.077   6.350  11.823  0.00  0.00    +0.000 OA
ATOM     14  H   UNL     1      41.937   6.737  10.942  0.00  0.00    +0.000 HD
ENDBRANCH   9  13
BRANCH  11  15
ATOM     15  C   UNL     1      44.641   2.768   9.907  0.00  0.00    +0.000 C 
ATOM     16  N   UNL     1      44.753   1.893   9.149  0.00  0.00    +0.000 NA
ENDBRANCH  11  15
ENDBRANCH   3   7
BRANCH   1  17
ATOM     17  O   UNL     1      47.813   4.006  16.817  0.00  0.00    +0.000 OA
BRANCH  17  19
ATOM     18  C   UNL     1      49.584   2.414  17.054  0.00  0.00    +0.000 C 
ATOM     19  C   UNL     1      48.184   2.656  16.522  0.00  0.00    +0.000 C 
ENDBRANCH  17  19
ENDBRANCH   1  17
BRANCH   5  20
ATOM     20  C   UNL     1      49.471   7.451  13.960  0.00  0.00    +0.000 C 
BRANCH  20  21
ATOM     21  C   UNL     1      49.010   8.882  14.259  0.00  0.00    +0.000 C 
BRANCH  21  22
ATOM     22  C   UNL     1      48.617   9.575  12.976  0.00  0.00    +0.000 A 
ATOM     23  C   UNL     1      49.597  10.013  12.086  0.00  0.00    +0.000 A 
ATOM     24  C   UNL     1      49.241  10.787  10.985  0.00  0.00    +0.000 A 
ATOM     25  C   UNL     1      47.908  11.168  10.775  0.00  0.00    +0.000 A 
ATOM     26 CL   UNL     1      47.647  12.221   9.426  0.00  0.00    +0.000 Cl
ATOM     27  C   UNL     1      46.902  10.723  11.648  0.00  0.00    +0.000 A 
ATOM     28  C   UNL     1      47.275   9.895  12.726  0.00  0.00    +0.000 A 
BRANCH  27  29
ATOM     29  C   UNL     1      45.454  11.096  11.602  0.00  0.00    +0.000 C 
ATOM     30  N   UNL     1      45.054  12.295  12.111  0.00  0.00    +0.000 N 
ATOM     31  O   UNL     1      44.612  10.331  11.143  0.00  0.00    +0.000 OA
ATOM     32  H   UNL     1      45.691  12.961  12.528  0.00  0.00    +0.000 HD
ATOM     33  H   UNL     1      44.065  12.502  12.118  0.00  0.00    +0.000 HD
ENDBRANCH  27  29
ENDBRANCH  21  22
ENDBRANCH  20  21
ENDBRANCH   5  20
TORSDOF 9
ENDMDL
MODEL 9
REMARK VINA RESULT:    -6.554      4.637      8.912
REMARK INTER + INTRA:         -10.926
REMARK INTER:                  -9.679
REMARK INTRA:                  -1.247
REMARK UNBOUND:                -1.114
REMARK  Name = 
REMARK  10 active torsions:
REMARK  status: ('A' for Active; 'I' for Inactive)
REMARK    1  A    between atoms: C_1  and  C_2
REMARK    2  A    between atoms: C_2  and  O_3
REMARK    3  A    between atoms: O_3  and  C_4
REMARK    4  A    between atoms: C_6  and  C_7
REMARK    5  A    between atoms: C_9  and  O_10
REMARK    6  A    between atoms: C_12  and  C_13
REMARK    7  A    between atoms: C_17  and  C_18
REMARK    8  A    between atoms: C_18  and  C_19
REMARK    9  A    between atoms: C_19  and  C_20
REMARK   10  A    between atoms: C_25  and  C_26
REMARK                            x       y       z     vdW  Elec       q    Type
REMARK                         _______ _______ _______ _____ _____    ______ ____
ROOT
ATOM      1  C   UNL     1      48.195   6.444  14.526  0.00  0.00    +0.000 A 
ATOM      2  C   UNL     1      47.280   6.348  13.507  0.00  0.00    +0.000 A 
ATOM      3  C   UNL     1      46.469   5.233  13.524  0.00  0.00    +0.000 A 
ATOM      4  N   UNL     1      46.608   4.272  14.462  0.00  0.00    +0.000 NA
ATOM      5  C   UNL     1      47.579   4.427  15.377  0.00  0.00    +0.000 A 
ATOM      6  N   UNL     1      48.371   5.504  15.463  0.00  0.00    +0.000 NA
ENDROOT
BRANCH   3   7
ATOM      7  C   UNL     1      45.355   5.032  12.574  0.00  0.00    +0.000 A 
ATOM      8  C   UNL     1      44.190   5.820  12.614  0.00  0.00    +0.000 A 
ATOM      9  C   UNL     1      43.125   5.552  11.756  0.00  0.00    +0.000 A 
ATOM     10  C   UNL     1      43.188   4.515  10.831  0.00  0.00    +0.000 A 
ATOM     11  C   UNL     1      44.344   3.739  10.750  0.00  0.00    +0.000 A 
ATOM     12  C   UNL     1      45.418   4.005  11.609  0.00  0.00    +0.000 A 
BRANCH   9  13
ATOM     13  O   UNL     1      41.977   6.285  11.801  0.00  0.00    +0.000 OA
ATOM     14  H   UNL     1      42.121   7.140  11.363  0.00  0.00    +0.000 HD
ENDBRANCH   9  13
BRANCH  11  15
ATOM     15  C   UNL     1      44.422   2.659   9.815  0.00  0.00    +0.000 C 
ATOM     16  N   UNL     1      44.491   1.789   9.045  0.00  0.00    +0.000 NA
ENDBRANCH  11  15
ENDBRANCH   3   7
BRANCH   1  17
ATOM     17  O   UNL     1      48.991   7.574  14.542  0.00  0.00    +0.000 OA
BRANCH  17  19
ATOM     18  C   UNL     1      48.479   8.879  16.482  0.00  0.00    +0.000 C 
ATOM     19  C   UNL     1      49.449   7.891  15.860  0.00  0.00    +0.000 C 
ENDBRANCH  17  19
ENDBRANCH   1  17
BRANCH   5  20
ATOM     20  C   UNL     1      47.757   3.363  16.421  0.00  0.00    +0.000 C 
BRANCH  20  21
ATOM     21  C   UNL     1      47.056   3.694  17.745  0.00  0.00    +0.000 C 
BRANCH  21  22
ATOM     22  C   UNL     1      47.930   4.602  18.577  0.00  0.00    +0.000 A 
ATOM     23  C   UNL     1      47.458   5.849  18.985  0.00  0.00    +0.000 A 
ATOM     24  C   UNL     1      48.318   6.745  19.616  0.00  0.00    +0.000 A 
ATOM     25  C   UNL     1      49.669   6.427  19.814  0.00  0.00    +0.000 A 
ATOM     26 CL   UNL     1      50.628   7.689  20.510  0.00  0.00    +0.000 Cl
ATOM     27  C   UNL     1      50.161   5.170  19.427  0.00  0.00    +0.000 A 
ATOM     28  C   UNL     1      49.263   4.255  18.841  0.00  0.00    +0.000 A 
BRANCH  27  29
ATOM     29  C   UNL     1      51.582   4.707  19.506  0.00  0.00    +0.000 C 
ATOM     30  N   UNL     1      52.101   4.341  20.711  0.00  0.00    +0.000 N 
ATOM     31  O   UNL     1      52.301   4.680  18.512  0.00  0.00    +0.000 OA
ATOM     32  H   UNL     1      51.574   4.365  21.573  0.00  0.00    +0.000 HD
ATOM     33  H   UNL     1      53.079   4.085  20.749  0.00  0.00    +0.000 HD
ENDBRANCH  27  29
ENDBRANCH  21  22
ENDBRANCH  20  21
ENDBRANCH   5  20
TORSDOF 9
ENDMDL
