MODEL 1
REMARK VINA RESULT:    -8.240      0.000      0.000
REMARK INTER + INTRA:         -11.692
REMARK INTER:                 -10.649
REMARK INTRA:                  -1.043
REMARK UNBOUND:                -1.043
REMARK  Name = 
REMARK  5 active torsions:
REMARK  status: ('A' for Active; 'I' for Inactive)
REMARK    1  A    between atoms: C_2  and  C_19
REMARK    2  A    between atoms: N_3  and  C_4
REMARK    3  A    between atoms: C_4  and  C_5
REMARK    4  A    between atoms: C_8  and  C_9
REMARK    5  A    between atoms: C_9  and  N_10
REMARK                            x       y       z     vdW  Elec       q    Type
REMARK                         _______ _______ _______ _____ _____    ______ ____
ROOT
ATOM      1  C   UNL     1      46.872   8.435  13.131  0.00  0.00    +0.000 C 
ENDROOT
BRANCH   1   2
ATOM      2  C   UNL     1      46.088   7.350  12.423  0.00  0.00    +0.000 A 
ATOM      3  N   UNL     1      44.868   7.036  12.896  0.00  0.00    +0.000 NA
ATOM      4  C   UNL     1      44.203   6.055  12.254  0.00  0.00    +0.000 A 
ATOM      5  C   UNL     1      44.708   5.361  11.175  0.00  0.00    +0.000 A 
ATOM      6  C   UNL     1      45.981   5.731  10.795  0.00  0.00    +0.000 A 
ATOM      7  N   UNL     1      46.698   6.698  11.406  0.00  0.00    +0.000 NA
BRANCH   5   8
ATOM      8  C   UNL     1      43.921   4.305  10.468  0.00  0.00    +0.000 C 
BRANCH   8   9
ATOM      9  N   UNL     1      44.051   4.464   9.034  0.00  0.00    +0.000 N 
ATOM     10  C   UNL     1      44.959   3.579   8.464  0.00  0.00    +0.000 A 
ATOM     11  N   UNL     1      45.120   2.353   8.989  0.00  0.00    +0.000 NA
ATOM     12  C   UNL     1      46.017   1.549   8.400  0.00  0.00    +0.000 A 
ATOM     13  C   UNL     1      46.765   1.916   7.310  0.00  0.00    +0.000 A 
ATOM     14  C   UNL     1      46.532   3.188   6.849  0.00  0.00    +0.000 A 
ATOM     15  N   UNL     1      45.649   4.035   7.412  0.00  0.00    +0.000 NA
ATOM     16  H   UNL     1      44.309   5.385   8.701  0.00  0.00    +0.000 HD
ENDBRANCH   8   9
ENDBRANCH   5   8
ENDBRANCH   1   2
BRANCH   1  19
ATOM     17  O   UNL     1      49.290   7.003  13.660  0.00  0.00    +0.000 OA
ATOM     18  C   UNL     1      48.497   7.246  14.564  0.00  0.00    +0.000 C 
ATOM     19  N   UNL     1      47.358   7.990  14.418  0.00  0.00    +0.000 N 
ATOM     20  H   UNL     1      46.652   7.940  15.143  0.00  0.00    +0.000 HD
BRANCH  18  21
ATOM     21  C   UNL     1      48.547   6.607  15.871  0.00  0.00    +0.000 A 
ATOM     22  C   UNL     1      49.112   7.204  16.983  0.00  0.00    +0.000 A 
ATOM     23  S   UNL     1      49.527   6.047  18.181  0.00  0.00    +0.000 S 
ATOM     24  C   UNL     1      48.829   4.778  17.280  0.00  0.00    +0.000 A 
ATOM     25  N   UNL     1      48.944   3.471  17.639  0.00  0.00    +0.000 NA
ATOM     26  C   UNL     1      48.303   2.653  16.867  0.00  0.00    +0.000 A 
ATOM     27  N   UNL     1      47.518   3.023  15.803  0.00  0.00    +0.000 N 
ATOM     28  C   UNL     1      47.350   4.333  15.420  0.00  0.00    +0.000 A 
ATOM     29  O   UNL     1      46.563   4.658  14.539  0.00  0.00    +0.000 OA
ATOM     30  C   UNL     1      48.165   5.261  16.173  0.00  0.00    +0.000 A 
ATOM     31  H   UNL     1      46.964   2.344  15.301  0.00  0.00    +0.000 HD
ENDBRANCH  18  21
ENDBRANCH   1  19
TORSDOF 5
ENDMDL
MODEL 2
REMARK VINA RESULT:    -7.753      1.219      1.362
REMARK INTER + INTRA:         -11.063
REMARK INTER:                 -10.335
REMARK INTRA:                  -0.727
REMARK UNBOUND:                -1.043
REMARK  Name = 
REMARK  5 active torsions:
REMARK  status: ('A' for Active; 'I' for Inactive)
REMARK    1  A    between atoms: C_2  and  C_19
REMARK    2  A    between atoms: N_3  and  C_4
REMARK    3  A    between atoms: C_4  and  C_5
REMARK    4  A    between atoms: C_8  and  C_9
REMARK    5  A    between atoms: C_9  and  N_10
REMARK                            x       y       z     vdW  Elec       q    Type
REMARK                         _______ _______ _______ _____ _____    ______ ____
ROOT
ATOM      1  C   UNL     1      48.281   6.884  13.159  0.00  0.00    +0.000 C 
ENDROOT
BRANCH   1   2
ATOM      2  C   UNL     1      47.116   6.207  12.467  0.00  0.00    +0.000 A 
ATOM      3  N   UNL     1      46.566   5.130  13.058  0.00  0.00    +0.000 NA
ATOM      4  C   UNL     1      45.542   4.540  12.410  0.00  0.00    +0.000 A 
ATOM      5  C   UNL     1      45.057   4.964  11.191  0.00  0.00    +0.000 A 
ATOM      6  C   UNL     1      45.715   6.048  10.652  0.00  0.00    +0.000 A 
ATOM      7  N   UNL     1      46.752   6.673  11.251  0.00  0.00    +0.000 NA
BRANCH   5   8
ATOM      8  C   UNL     1      43.893   4.303  10.524  0.00  0.00    +0.000 C 
BRANCH   8   9
ATOM      9  N   UNL     1      43.998   4.443   9.086  0.00  0.00    +0.000 N 
ATOM     10  C   UNL     1      44.906   3.560   8.513  0.00  0.00    +0.000 A 
ATOM     11  N   UNL     1      45.088   2.343   9.052  0.00  0.00    +0.000 NA
ATOM     12  C   UNL     1      45.984   1.540   8.459  0.00  0.00    +0.000 A 
ATOM     13  C   UNL     1      46.710   1.900   7.352  0.00  0.00    +0.000 A 
ATOM     14  C   UNL     1      46.456   3.163   6.878  0.00  0.00    +0.000 A 
ATOM     15  N   UNL     1      45.573   4.008   7.444  0.00  0.00    +0.000 NA
ATOM     16  H   UNL     1      44.241   5.363   8.736  0.00  0.00    +0.000 HD
ENDBRANCH   8   9
ENDBRANCH   5   8
ENDBRANCH   1   2
BRANCH   1  19
ATOM     17  O   UNL     1      50.291   6.859  15.194  0.00  0.00    +0.000 OA
ATOM     18  C   UNL     1      49.100   6.880  15.490  0.00  0.00    +0.000 C 
ATOM     19  N   UNL     1      48.076   6.971  14.588  0.00  0.00    +0.000 N 
ATOM     20  H   UNL     1      47.139   6.743  14.895  0.00  0.00    +0.000 HD
BRANCH  18  21
ATOM     21  C   UNL     1      48.602   6.601  16.829  0.00  0.00    +0.000 A 
ATOM     22  C   UNL     1      48.456   7.576  17.799  0.00  0.00    +0.000 A 
ATOM     23  S   UNL     1      48.401   6.898  19.375  0.00  0.00    +0.000 S 
ATOM     24  C   UNL     1      48.430   5.309  18.756  0.00  0.00    +0.000 A 
ATOM     25  N   UNL     1      48.548   4.212  19.550  0.00  0.00    +0.000 NA
ATOM     26  C   UNL     1      48.496   3.088  18.910  0.00  0.00    +0.000 A 
ATOM     27  N   UNL     1      48.284   2.958  17.560  0.00  0.00    +0.000 N 
ATOM     28  C   UNL     1      48.132   4.037  16.722  0.00  0.00    +0.000 A 
ATOM     29  O   UNL     1      47.835   3.906  15.540  0.00  0.00    +0.000 OA
ATOM     30  C   UNL     1      48.327   5.310  17.381  0.00  0.00    +0.000 A 
ATOM     31  H   UNL     1      48.154   2.050  17.136  0.00  0.00    +0.000 HD
ENDBRANCH  18  21
ENDBRANCH   1  19
TORSDOF 5
ENDMDL
MODEL 3
REMARK VINA RESULT:    -7.600      3.321      5.778
REMARK INTER + INTRA:         -10.865
REMARK INTER:                 -10.150
REMARK INTRA:                  -0.715
REMARK UNBOUND:                -1.043
REMARK  Name = 
REMARK  5 active torsions:
REMARK  status: ('A' for Active; 'I' for Inactive)
REMARK    1  A    between atoms: C_2  and  C_19
REMARK    2  A    between atoms: N_3  and  C_4
REMARK    3  A    between atoms: C_4  and  C_5
REMARK    4  A    between atoms: C_8  and  C_9
REMARK    5  A    between atoms: C_9  and  N_10
REMARK                            x       y       z     vdW  Elec       q    Type
REMARK                         _______ _______ _______ _____ _____    ______ ____
ROOT
ATOM      1  C   UNL     1      44.345   4.286   9.594  0.00  0.00    +0.000 C 
ENDROOT
BRANCH   1   2
ATOM      2  C   UNL     1      45.225   3.505   8.640  0.00  0.00    +0.000 A 
ATOM      3  N   UNL     1      45.437   2.200   8.895  0.00  0.00    +0.000 NA
ATOM      4  C   UNL     1      46.237   1.537   8.037  0.00  0.00    +0.000 A 
ATOM      5  C   UNL     1      46.852   2.121   6.950  0.00  0.00    +0.000 A 
ATOM      6  C   UNL     1      46.604   3.469   6.802  0.00  0.00    +0.000 A 
ATOM      7  N   UNL     1      45.819   4.186   7.634  0.00  0.00    +0.000 NA
BRANCH   5   8
ATOM      8  C   UNL     1      47.703   1.340   6.002  0.00  0.00    +0.000 C 
BRANCH   8   9
ATOM      9  N   UNL     1      47.169   1.436   4.659  0.00  0.00    +0.000 N 
ATOM     10  C   UNL     1      47.035   0.203   4.032  0.00  0.00    +0.000 A 
ATOM     11  N   UNL     1      46.748  -0.890   4.757  0.00  0.00    +0.000 NA
ATOM     12  C   UNL     1      46.641  -2.052   4.096  0.00  0.00    +0.000 A 
ATOM     13  C   UNL     1      46.811  -2.172   2.740  0.00  0.00    +0.000 A 
ATOM     14  C   UNL     1      47.104  -1.000   2.087  0.00  0.00    +0.000 A 
ATOM     15  N   UNL     1      47.231   0.188   2.708  0.00  0.00    +0.000 NA
ATOM     16  H   UNL     1      47.674   2.029   4.011  0.00  0.00    +0.000 HD
ENDBRANCH   8   9
ENDBRANCH   5   8
ENDBRANCH   1   2
BRANCH   1  19
ATOM     17  O   UNL     1      45.144   4.389  12.338  0.00  0.00    +0.000 OA
ATOM     18  C   UNL     1      45.353   5.339  11.589  0.00  0.00    +0.000 C 
ATOM     19  N   UNL     1      45.076   5.347  10.249  0.00  0.00    +0.000 N 
ATOM     20  H   UNL     1      45.056   6.236   9.766  0.00  0.00    +0.000 HD
BRANCH  18  21
ATOM     21  C   UNL     1      45.733   6.663  12.058  0.00  0.00    +0.000 A 
ATOM     22  C   UNL     1      44.892   7.759  11.990  0.00  0.00    +0.000 A 
ATOM     23  S   UNL     1      45.765   9.234  12.076  0.00  0.00    +0.000 S 
ATOM     24  C   UNL     1      47.237   8.414  12.344  0.00  0.00    +0.000 A 
ATOM     25  N   UNL     1      48.439   9.050  12.369  0.00  0.00    +0.000 NA
ATOM     26  C   UNL     1      49.440   8.275  12.640  0.00  0.00    +0.000 A 
ATOM     27  N   UNL     1      49.346   6.939  12.939  0.00  0.00    +0.000 N 
ATOM     28  C   UNL     1      48.151   6.260  12.952  0.00  0.00    +0.000 A 
ATOM     29  O   UNL     1      48.067   5.097  13.326  0.00  0.00    +0.000 OA
ATOM     30  C   UNL     1      47.029   7.063  12.515  0.00  0.00    +0.000 A 
ATOM     31  H   UNL     1      50.154   6.412  13.240  0.00  0.00    +0.000 HD
ENDBRANCH  18  21
ENDBRANCH   1  19
TORSDOF 5
ENDMDL
MODEL 4
REMARK VINA RESULT:    -7.343      1.812      2.520
REMARK INTER + INTRA:         -10.533
REMARK INTER:                  -9.692
REMARK INTRA:                  -0.841
REMARK UNBOUND:                -1.043
REMARK  Name = 
REMARK  5 active torsions:
REMARK  status: ('A' for Active; 'I' for Inactive)
REMARK    1  A    between atoms: C_2  and  C_19
REMARK    2  A    between atoms: N_3  and  C_4
REMARK    3  A    between atoms: C_4  and  C_5
REMARK    4  A    between atoms: C_8  and  C_9
REMARK    5  A    between atoms: C_9  and  N_10
REMARK                            x       y       z     vdW  Elec       q    Type
REMARK                         _______ _______ _______ _____ _____    ______ ____
ROOT
ATOM      1  C   UNL     1      47.226   7.745  13.285  0.00  0.00    +0.000 C 
ENDROOT
BRANCH   1   2
ATOM      2  C   UNL     1      46.325   6.818  12.494  0.00  0.00    +0.000 A 
ATOM      3  N   UNL     1      45.407   7.369  11.678  0.00  0.00    +0.000 NA
ATOM      4  C   UNL     1      44.611   6.519  11.001  0.00  0.00    +0.000 A 
ATOM      5  C   UNL     1      44.674   5.147  11.117  0.00  0.00    +0.000 A 
ATOM      6  C   UNL     1      45.619   4.685  12.009  0.00  0.00    +0.000 A 
ATOM      7  N   UNL     1      46.438   5.490  12.721  0.00  0.00    +0.000 NA
BRANCH   5   8
ATOM      8  C   UNL     1      43.796   4.238  10.318  0.00  0.00    +0.000 C 
BRANCH   8   9
ATOM      9  N   UNL     1      44.030   4.438   8.903  0.00  0.00    +0.000 N 
ATOM     10  C   UNL     1      45.001   3.591   8.382  0.00  0.00    +0.000 A 
ATOM     11  N   UNL     1      45.154   2.356   8.888  0.00  0.00    +0.000 NA
ATOM     12  C   UNL     1      46.114   1.590   8.350  0.00  0.00    +0.000 A 
ATOM     13  C   UNL     1      46.933   2.003   7.329  0.00  0.00    +0.000 A 
ATOM     14  C   UNL     1      46.701   3.281   6.883  0.00  0.00    +0.000 A 
ATOM     15  N   UNL     1      45.756   4.091   7.397  0.00  0.00    +0.000 NA
ATOM     16  H   UNL     1      44.287   5.374   8.613  0.00  0.00    +0.000 HD
ENDBRANCH   8   9
ENDBRANCH   5   8
ENDBRANCH   1   2
BRANCH   1  19
ATOM     17  O   UNL     1      49.690   6.817  14.402  0.00  0.00    +0.000 OA
ATOM     18  C   UNL     1      48.650   6.768  15.053  0.00  0.00    +0.000 C 
ATOM     19  N   UNL     1      47.445   7.258  14.629  0.00  0.00    +0.000 N 
ATOM     20  H   UNL     1      46.607   6.966  15.115  0.00  0.00    +0.000 HD
BRANCH  18  21
ATOM     21  C   UNL     1      48.505   5.997  16.278  0.00  0.00    +0.000 A 
ATOM     22  C   UNL     1      48.104   4.674  16.295  0.00  0.00    +0.000 A 
ATOM     23  S   UNL     1      47.494   4.218  17.834  0.00  0.00    +0.000 S 
ATOM     24  C   UNL     1      47.894   5.733  18.507  0.00  0.00    +0.000 A 
ATOM     25  N   UNL     1      47.524   6.101  19.763  0.00  0.00    +0.000 NA
ATOM     26  C   UNL     1      47.963   7.264  20.124  0.00  0.00    +0.000 A 
ATOM     27  N   UNL     1      48.778   8.069  19.368  0.00  0.00    +0.000 N 
ATOM     28  C   UNL     1      49.199   7.727  18.104  0.00  0.00    +0.000 A 
ATOM     29  O   UNL     1      50.013   8.402  17.485  0.00  0.00    +0.000 OA
ATOM     30  C   UNL     1      48.612   6.499  17.615  0.00  0.00    +0.000 A 
ATOM     31  H   UNL     1      49.169   8.920  19.746  0.00  0.00    +0.000 HD
ENDBRANCH  18  21
ENDBRANCH   1  19
TORSDOF 5
ENDMDL
MODEL 5
REMARK VINA RESULT:    -7.046      2.980      7.663
REMARK INTER + INTRA:         -10.148
REMARK INTER:                  -9.407
REMARK INTRA:                  -0.741
REMARK UNBOUND:                -1.043
REMARK  Name = 
REMARK  5 active torsions:
REMARK  status: ('A' for Active; 'I' for Inactive)
REMARK    1  A    between atoms: C_2  and  C_19
REMARK    2  A    between atoms: N_3  and  C_4
REMARK    3  A    between atoms: C_4  and  C_5
REMARK    4  A    between atoms: C_8  and  C_9
REMARK    5  A    between atoms: C_9  and  N_10
REMARK                            x       y       z     vdW  Elec       q    Type
REMARK                         _______ _______ _______ _____ _____    ______ ____
ROOT
ATOM      1  C   UNL     1      47.448   8.098  12.811  0.00  0.00    +0.000 C 
ENDROOT
BRANCH   1   2
ATOM      2  C   UNL     1      48.017   7.491  14.077  0.00  0.00    +0.000 A 
ATOM      3  N   UNL     1      48.043   6.149  14.181  0.00  0.00    +0.000 NA
ATOM      4  C   UNL     1      48.541   5.640  15.325  0.00  0.00    +0.000 A 
ATOM      5  C   UNL     1      48.994   6.408  16.376  0.00  0.00    +0.000 A 
ATOM      6  C   UNL     1      48.886   7.769  16.186  0.00  0.00    +0.000 A 
ATOM      7  N   UNL     1      48.388   8.335  15.066  0.00  0.00    +0.000 NA
BRANCH   5   8
ATOM      8  C   UNL     1      49.574   5.802  17.614  0.00  0.00    +0.000 C 
BRANCH   8   9
ATOM      9  N   UNL     1      50.956   5.433  17.387  0.00  0.00    +0.000 N 
ATOM     10  C   UNL     1      51.172   4.061  17.432  0.00  0.00    +0.000 A 
ATOM     11  N   UNL     1      50.210   3.217  17.026  0.00  0.00    +0.000 NA
ATOM     12  C   UNL     1      50.475   1.904  17.102  0.00  0.00    +0.000 A 
ATOM     13  C   UNL     1      51.660   1.396  17.571  0.00  0.00    +0.000 A 
ATOM     14  C   UNL     1      52.579   2.337  17.966  0.00  0.00    +0.000 A 
ATOM     15  N   UNL     1      52.355   3.664  17.916  0.00  0.00    +0.000 NA
ATOM     16  H   UNL     1      51.644   5.848  18.004  0.00  0.00    +0.000 HD
ENDBRANCH   8   9
ENDBRANCH   5   8
ENDBRANCH   1   2
BRANCH   1  19
ATOM     17  O   UNL     1      44.911   7.802  11.523  0.00  0.00    +0.000 OA
ATOM     18  C   UNL     1      45.804   6.979  11.343  0.00  0.00    +0.000 C 
ATOM     19  N   UNL     1      47.069   7.081  11.855  0.00  0.00    +0.000 N 
ATOM     20  H   UNL     1      47.656   6.257  11.858  0.00  0.00    +0.000 HD
BRANCH  18  21
ATOM     21  C   UNL     1      45.584   5.676  10.734  0.00  0.00    +0.000 A 
ATOM     22  C   UNL     1      45.793   5.426   9.390  0.00  0.00    +0.000 A 
ATOM     23  S   UNL     1      44.942   4.029   8.867  0.00  0.00    +0.000 S 
ATOM     24  C   UNL     1      44.416   3.684  10.452  0.00  0.00    +0.000 A 
ATOM     25  N   UNL     1      43.521   2.699  10.732  0.00  0.00    +0.000 NA
ATOM     26  C   UNL     1      43.282   2.546  11.995  0.00  0.00    +0.000 A 
ATOM     27  N   UNL     1      43.891   3.249  13.004  0.00  0.00    +0.000 N 
ATOM     28  C   UNL     1      44.820   4.235  12.771  0.00  0.00    +0.000 A 
ATOM     29  O   UNL     1      45.436   4.778  13.680  0.00  0.00    +0.000 OA
ATOM     30  C   UNL     1      45.006   4.529  11.367  0.00  0.00    +0.000 A 
ATOM     31  H   UNL     1      43.734   3.014  13.974  0.00  0.00    +0.000 HD
ENDBRANCH  18  21
ENDBRANCH   1  19
TORSDOF 5
ENDMDL
MODEL 6
REMARK VINA RESULT:    -6.981      2.165      2.759
REMARK INTER + INTRA:         -10.065
REMARK INTER:                  -9.227
REMARK INTRA:                  -0.838
REMARK UNBOUND:                -1.043
REMARK  Name = 
REMARK  5 active torsions:
REMARK  status: ('A' for Active; 'I' for Inactive)
REMARK    1  A    between atoms: C_2  and  C_19
REMARK    2  A    between atoms: N_3  and  C_4
REMARK    3  A    between atoms: C_4  and  C_5
REMARK    4  A    between atoms: C_8  and  C_9
REMARK    5  A    between atoms: C_9  and  N_10
REMARK                            x       y       z     vdW  Elec       q    Type
REMARK                         _______ _______ _______ _____ _____    ______ ____
ROOT
ATOM      1  C   UNL     1      49.411   7.530  14.706  0.00  0.00    +0.000 C 
ENDROOT
BRANCH   1   2
ATOM      2  C   UNL     1      48.179   7.077  13.950  0.00  0.00    +0.000 A 
ATOM      3  N   UNL     1      48.119   5.795  13.544  0.00  0.00    +0.000 NA
ATOM      4  C   UNL     1      47.018   5.427  12.861  0.00  0.00    +0.000 A 
ATOM      5  C   UNL     1      45.985   6.284  12.546  0.00  0.00    +0.000 A 
ATOM      6  C   UNL     1      46.162   7.583  12.971  0.00  0.00    +0.000 A 
ATOM      7  N   UNL     1      47.248   8.011  13.651  0.00  0.00    +0.000 NA
BRANCH   5   8
ATOM      8  C   UNL     1      44.763   5.825  11.818  0.00  0.00    +0.000 C 
BRANCH   8   9
ATOM      9  N   UNL     1      44.922   6.040  10.394  0.00  0.00    +0.000 N 
ATOM     10  C   UNL     1      45.119   4.864   9.680  0.00  0.00    +0.000 A 
ATOM     11  N   UNL     1      44.541   3.724  10.094  0.00  0.00    +0.000 NA
ATOM     12  C   UNL     1      44.776   2.621   9.367  0.00  0.00    +0.000 A 
ATOM     13  C   UNL     1      45.566   2.605   8.246  0.00  0.00    +0.000 A 
ATOM     14  C   UNL     1      46.114   3.817   7.906  0.00  0.00    +0.000 A 
ATOM     15  N   UNL     1      45.915   4.949   8.608  0.00  0.00    +0.000 NA
ATOM     16  H   UNL     1      45.663   6.669  10.110  0.00  0.00    +0.000 HD
ENDBRANCH   8   9
ENDBRANCH   5   8
ENDBRANCH   1   2
BRANCH   1  19
ATOM     17  O   UNL     1      48.526   6.954  17.365  0.00  0.00    +0.000 OA
ATOM     18  C   UNL     1      49.469   6.341  16.873  0.00  0.00    +0.000 C 
ATOM     19  N   UNL     1      49.908   6.495  15.586  0.00  0.00    +0.000 N 
ATOM     20  H   UNL     1      50.823   6.136  15.342  0.00  0.00    +0.000 HD
BRANCH  18  21
ATOM     21  C   UNL     1      50.382   5.516  17.648  0.00  0.00    +0.000 A 
ATOM     22  C   UNL     1      51.430   6.036  18.385  0.00  0.00    +0.000 A 
ATOM     23  S   UNL     1      52.626   4.848  18.711  0.00  0.00    +0.000 S 
ATOM     24  C   UNL     1      51.684   3.619  17.995  0.00  0.00    +0.000 A 
ATOM     25  N   UNL     1      52.152   2.359  17.791  0.00  0.00    +0.000 NA
ATOM     26  C   UNL     1      51.278   1.547  17.287  0.00  0.00    +0.000 A 
ATOM     27  N   UNL     1      49.970   1.863  17.017  0.00  0.00    +0.000 N 
ATOM     28  C   UNL     1      49.446   3.115  17.232  0.00  0.00    +0.000 A 
ATOM     29  O   UNL     1      48.253   3.355  17.091  0.00  0.00    +0.000 OA
ATOM     30  C   UNL     1      50.431   4.085  17.661  0.00  0.00    +0.000 A 
ATOM     31  H   UNL     1      49.313   1.157  16.718  0.00  0.00    +0.000 HD
ENDBRANCH  18  21
ENDBRANCH   1  19
TORSDOF 5
ENDMDL
MODEL 7
REMARK VINA RESULT:    -6.637      3.202      8.991
REMARK INTER + INTRA:          -9.621
REMARK INTER:                  -8.940
REMARK INTRA:                  -0.681
REMARK UNBOUND:                -1.043
REMARK  Name = 
REMARK  5 active torsions:
REMARK  status: ('A' for Active; 'I' for Inactive)
REMARK    1  A    between atoms: C_2  and  C_19
REMARK    2  A    between atoms: N_3  and  C_4
REMARK    3  A    between atoms: C_4  and  C_5
REMARK    4  A    between atoms: C_8  and  C_9
REMARK    5  A    between atoms: C_9  and  N_10
REMARK                            x       y       z     vdW  Elec       q    Type
REMARK                         _______ _______ _______ _____ _____    ______ ____
ROOT
ATOM      1  C   UNL     1      47.704   6.397  13.570  0.00  0.00    +0.000 C 
ENDROOT
BRANCH   1   2
ATOM      2  C   UNL     1      48.039   5.659  14.849  0.00  0.00    +0.000 A 
ATOM      3  N   UNL     1      47.380   4.515  15.114  0.00  0.00    +0.000 NA
ATOM      4  C   UNL     1      47.689   3.890  16.266  0.00  0.00    +0.000 A 
ATOM      5  C   UNL     1      48.611   4.364  17.176  0.00  0.00    +0.000 A 
ATOM      6  C   UNL     1      49.200   5.561  16.830  0.00  0.00    +0.000 A 
ATOM      7  N   UNL     1      48.922   6.237  15.694  0.00  0.00    +0.000 NA
BRANCH   5   8
ATOM      8  C   UNL     1      48.952   3.618  18.426  0.00  0.00    +0.000 C 
BRANCH   8   9
ATOM      9  N   UNL     1      50.005   4.306  19.144  0.00  0.00    +0.000 N 
ATOM     10  C   UNL     1      49.539   5.056  20.217  0.00  0.00    +0.000 A 
ATOM     11  N   UNL     1      48.460   4.645  20.903  0.00  0.00    +0.000 NA
ATOM     12  C   UNL     1      48.054   5.417  21.922  0.00  0.00    +0.000 A 
ATOM     13  C   UNL     1      48.675   6.585  22.285  0.00  0.00    +0.000 A 
ATOM     14  C   UNL     1      49.766   6.922  21.521  0.00  0.00    +0.000 A 
ATOM     15  N   UNL     1      50.206   6.185  20.484  0.00  0.00    +0.000 NA
ATOM     16  H   UNL     1      50.595   4.926  18.601  0.00  0.00    +0.000 HD
ENDBRANCH   8   9
ENDBRANCH   5   8
ENDBRANCH   1   2
BRANCH   1  19
ATOM     17  O   UNL     1      45.710   7.385  11.772  0.00  0.00    +0.000 OA
ATOM     18  C   UNL     1      45.862   6.178  11.936  0.00  0.00    +0.000 C 
ATOM     19  N   UNL     1      46.838   5.617  12.714  0.00  0.00    +0.000 N 
ATOM     20  H   UNL     1      46.744   4.645  12.980  0.00  0.00    +0.000 HD
BRANCH  18  21
ATOM     21  C   UNL     1      44.901   5.180  11.493  0.00  0.00    +0.000 A 
ATOM     22  C   UNL     1      43.854   4.737  12.281  0.00  0.00    +0.000 A 
ATOM     23  S   UNL     1      43.258   3.218  11.748  0.00  0.00    +0.000 S 
ATOM     24  C   UNL     1      44.296   3.221  10.394  0.00  0.00    +0.000 A 
ATOM     25  N   UNL     1      44.426   2.152   9.565  0.00  0.00    +0.000 NA
ATOM     26  C   UNL     1      45.216   2.356   8.559  0.00  0.00    +0.000 A 
ATOM     27  N   UNL     1      45.845   3.543   8.278  0.00  0.00    +0.000 N 
ATOM     28  C   UNL     1      45.721   4.658   9.072  0.00  0.00    +0.000 A 
ATOM     29  O   UNL     1      46.198   5.741   8.752  0.00  0.00    +0.000 OA
ATOM     30  C   UNL     1      44.960   4.423  10.280  0.00  0.00    +0.000 A 
ATOM     31  H   UNL     1      46.369   3.667   7.423  0.00  0.00    +0.000 HD
ENDBRANCH  18  21
ENDBRANCH   1  19
TORSDOF 5
ENDMDL
MODEL 8
REMARK VINA RESULT:    -6.479      3.592      9.234
REMARK INTER + INTRA:          -9.416
REMARK INTER:                  -8.580
REMARK INTRA:                  -0.836
REMARK UNBOUND:                -1.043
REMARK  Name = 
REMARK  5 active torsions:
REMARK  status: ('A' for Active; 'I' for Inactive)
REMARK    1  A    between atoms: C_2  and  C_19
REMARK    2  A    between atoms: N_3  and  C_4
REMARK    3  A    between atoms: C_4  and  C_5
REMARK    4  A    between atoms: C_8  and  C_9
REMARK    5  A    between atoms: C_9  and  N_10
REMARK                            x       y       z     vdW  Elec       q    Type
REMARK                         _______ _______ _______ _____ _____    ______ ____
ROOT
ATOM      1  C   UNL     1      47.195   3.927  16.511  0.00  0.00    +0.000 C 
ENDROOT
BRANCH   1   2
ATOM      2  C   UNL     1      47.901   5.028  17.275  0.00  0.00    +0.000 A 
ATOM      3  N   UNL     1      48.702   5.865  16.589  0.00  0.00    +0.000 NA
ATOM      4  C   UNL     1      49.328   6.823  17.299  0.00  0.00    +0.000 A 
ATOM      5  C   UNL     1      49.208   6.971  18.665  0.00  0.00    +0.000 A 
ATOM      6  C   UNL     1      48.398   6.040  19.278  0.00  0.00    +0.000 A 
ATOM      7  N   UNL     1      47.754   5.053  18.619  0.00  0.00    +0.000 NA
BRANCH   5   8
ATOM      8  C   UNL     1      49.892   8.073  19.409  0.00  0.00    +0.000 C 
BRANCH   8   9
ATOM      9  N   UNL     1      49.244   9.338  19.131  0.00  0.00    +0.000 N 
ATOM     10  C   UNL     1      48.173   9.604  19.976  0.00  0.00    +0.000 A 
ATOM     11  N   UNL     1      48.193   9.160  21.244  0.00  0.00    +0.000 NA
ATOM     12  C   UNL     1      47.127   9.440  22.007  0.00  0.00    +0.000 A 
ATOM     13  C   UNL     1      46.036  10.142  21.559  0.00  0.00    +0.000 A 
ATOM     14  C   UNL     1      46.107  10.548  20.249  0.00  0.00    +0.000 A 
ATOM     15  N   UNL     1      47.152  10.284  19.442  0.00  0.00    +0.000 NA
ATOM     16  H   UNL     1      48.900   9.475  18.188  0.00  0.00    +0.000 HD
ENDBRANCH   8   9
ENDBRANCH   5   8
ENDBRANCH   1   2
BRANCH   1  19
ATOM     17  O   UNL     1      47.665   3.173  13.792  0.00  0.00    +0.000 OA
ATOM     18  C   UNL     1      46.868   4.066  14.065  0.00  0.00    +0.000 C 
ATOM     19  N   UNL     1      46.525   4.438  15.336  0.00  0.00    +0.000 N 
ATOM     20  H   UNL     1      46.055   5.325  15.469  0.00  0.00    +0.000 HD
BRANCH  18  21
ATOM     21  C   UNL     1      46.334   4.993  13.080  0.00  0.00    +0.000 A 
ATOM     22  C   UNL     1      46.973   6.165  12.720  0.00  0.00    +0.000 A 
ATOM     23  S   UNL     1      45.887   7.285  12.003  0.00  0.00    +0.000 S 
ATOM     24  C   UNL     1      44.606   6.160  12.046  0.00  0.00    +0.000 A 
ATOM     25  N   UNL     1      43.327   6.488  11.720  0.00  0.00    +0.000 NA
ATOM     26  C   UNL     1      42.501   5.492  11.757  0.00  0.00    +0.000 A 
ATOM     27  N   UNL     1      42.843   4.193  12.039  0.00  0.00    +0.000 N 
ATOM     28  C   UNL     1      44.126   3.809  12.348  0.00  0.00    +0.000 A 
ATOM     29  O   UNL     1      44.439   2.633  12.489  0.00  0.00    +0.000 OA
ATOM     30  C   UNL     1      45.048   4.920  12.454  0.00  0.00    +0.000 A 
ATOM     31  H   UNL     1      42.169   3.445  11.954  0.00  0.00    +0.000 HD
ENDBRANCH  18  21
ENDBRANCH   1  19
TORSDOF 5
ENDMDL
MODEL 9
REMARK VINA RESULT:    -6.435      3.821      9.483
REMARK INTER + INTRA:          -9.359
REMARK INTER:                  -8.566
REMARK INTRA:                  -0.793
REMARK UNBOUND:                -1.043
REMARK  Name = 
REMARK  5 active torsions:
REMARK  status: ('A' for Active; 'I' for Inactive)
REMARK    1  A    between atoms: C_2  and  C_19
REMARK    2  A    between atoms: N_3  and  C_4
REMARK    3  A    between atoms: C_4  and  C_5
REMARK    4  A    between atoms: C_8  and  C_9
REMARK    5  A    between atoms: C_9  and  N_10
REMARK                            x       y       z     vdW  Elec       q    Type
REMARK                         _______ _______ _______ _____ _____    ______ ____
ROOT
ATOM      1  C   UNL     1      47.362   4.225  16.981  0.00  0.00    +0.000 C 
ENDROOT
BRANCH   1   2
ATOM      2  C   UNL     1      48.860   4.395  17.133  0.00  0.00    +0.000 A 
ATOM      3  N   UNL     1      49.553   3.410  17.734  0.00  0.00    +0.000 NA
ATOM      4  C   UNL     1      50.880   3.598  17.868  0.00  0.00    +0.000 A 
ATOM      5  C   UNL     1      51.543   4.732  17.448  0.00  0.00    +0.000 A 
ATOM      6  C   UNL     1      50.737   5.697  16.883  0.00  0.00    +0.000 A 
ATOM      7  N   UNL     1      49.402   5.567  16.732  0.00  0.00    +0.000 NA
BRANCH   5   8
ATOM      8  C   UNL     1      53.025   4.884  17.582  0.00  0.00    +0.000 C 
BRANCH   8   9
ATOM      9  N   UNL     1      53.347   5.525  18.841  0.00  0.00    +0.000 N 
ATOM     10  C   UNL     1      53.722   4.628  19.834  0.00  0.00    +0.000 A 
ATOM     11  N   UNL     1      54.373   3.500  19.506  0.00  0.00    +0.000 NA
ATOM     12  C   UNL     1      54.700   2.670  20.508  0.00  0.00    +0.000 A 
ATOM     13  C   UNL     1      54.403   2.916  21.825  0.00  0.00    +0.000 A 
ATOM     14  C   UNL     1      53.735   4.092  22.058  0.00  0.00    +0.000 A 
ATOM     15  N   UNL     1      53.377   4.952  21.085  0.00  0.00    +0.000 NA
ATOM     16  H   UNL     1      52.629   6.112  19.248  0.00  0.00    +0.000 HD
ENDBRANCH   8   9
ENDBRANCH   5   8
ENDBRANCH   1   2
BRANCH   1  19
ATOM     17  O   UNL     1      47.444   2.952  14.421  0.00  0.00    +0.000 OA
ATOM     18  C   UNL     1      47.034   4.103  14.534  0.00  0.00    +0.000 C 
ATOM     19  N   UNL     1      46.888   4.761  15.725  0.00  0.00    +0.000 N 
ATOM     20  H   UNL     1      46.777   5.767  15.710  0.00  0.00    +0.000 HD
BRANCH  18  21
ATOM     21  C   UNL     1      46.843   5.002  13.406  0.00  0.00    +0.000 A 
ATOM     22  C   UNL     1      47.757   5.980  13.056  0.00  0.00    +0.000 A 
ATOM     23  S   UNL     1      47.036   7.204  12.092  0.00  0.00    +0.000 S 
ATOM     24  C   UNL     1      45.554   6.362  12.028  0.00  0.00    +0.000 A 
ATOM     25  N   UNL     1      44.428   6.896  11.483  0.00  0.00    +0.000 NA
ATOM     26  C   UNL     1      43.413   6.091  11.473  0.00  0.00    +0.000 A 
ATOM     27  N   UNL     1      43.434   4.789  11.908  0.00  0.00    +0.000 N 
ATOM     28  C   UNL     1      44.556   4.199  12.441  0.00  0.00    +0.000 A 
ATOM     29  O   UNL     1      44.593   3.008  12.724  0.00  0.00    +0.000 OA
ATOM     30  C   UNL     1      45.667   5.113  12.598  0.00  0.00    +0.000 A 
ATOM     31  H   UNL     1      42.637   4.183  11.781  0.00  0.00    +0.000 HD
ENDBRANCH  18  21
ENDBRANCH   1  19
TORSDOF 5
ENDMDL
