MODEL 1
REMARK VINA RESULT:    -8.551      0.000      0.000
REMARK INTER + INTRA:         -12.162
REMARK INTER:                 -11.050
REMARK INTRA:                  -1.112
REMARK UNBOUND:                -1.112
REMARK  Name = 
REMARK  5 active torsions:
REMARK  status: ('A' for Active; 'I' for Inactive)
REMARK    1  A    between atoms: C_2  and  C_5
REMARK    2  A    between atoms: C_8  and  O_9
REMARK    3  A    between atoms: O_9  and  C_10
REMARK    4  A    between atoms: C_10  and  C_11
REMARK    5  A    between atoms: C_15  and  C_16
REMARK                            x       y       z     vdW  Elec       q    Type
REMARK                         _______ _______ _______ _____ _____    ______ ____
ROOT
ATOM      1  C   UNL     1      43.831   4.872  11.350  0.00  0.00    +0.000 C 
ATOM      2  C   UNL     1      42.559   5.334  12.050  0.00  0.00    +0.000 C 
ATOM      3  C   UNL     1      43.246   6.246  11.089  0.00  0.00    +0.000 C 
ENDROOT
BRANCH   1   4
ATOM      4  C   UNL     1      45.130   4.765  12.134  0.00  0.00    +0.000 A 
ATOM      5  C   UNL     1      45.448   3.645  12.901  0.00  0.00    +0.000 A 
ATOM      6  C   UNL     1      46.667   3.598  13.561  0.00  0.00    +0.000 A 
ATOM      7  N   UNL     1      47.588   4.585  13.525  0.00  0.00    +0.000 NA
ATOM      8  C   UNL     1      47.299   5.687  12.785  0.00  0.00    +0.000 A 
ATOM      9  C   UNL     1      46.094   5.786  12.086  0.00  0.00    +0.000 A 
BRANCH   8  10
ATOM     10  C   UNL     1      48.311   6.774  12.754  0.00  0.00    +0.000 A 
ATOM     11  C   UNL     1      48.384   7.699  11.710  0.00  0.00    +0.000 A 
ATOM     12  C   UNL     1      49.360   8.694  11.737  0.00  0.00    +0.000 A 
ATOM     13  C   UNL     1      50.249   8.748  12.804  0.00  0.00    +0.000 A 
ATOM     14  C   UNL     1      50.121   7.800  13.801  0.00  0.00    +0.000 A 
ATOM     15  N   UNL     1      49.184   6.828  13.801  0.00  0.00    +0.000 NA
ENDBRANCH   8  10
ENDBRANCH   1   4
BRANCH   1  16
ATOM     16  O   UNL     1      43.511   3.787  10.448  0.00  0.00    +0.000 OA
BRANCH  16  20
ATOM     17  C   UNL     1      46.279   2.637   7.625  0.00  0.00    +0.000 A 
ATOM     18  C   UNL     1      45.730   1.700   8.503  0.00  0.00    +0.000 A 
ATOM     19  C   UNL     1      44.799   2.114   9.449  0.00  0.00    +0.000 A 
ATOM     20  C   UNL     1      44.443   3.454   9.485  0.00  0.00    +0.000 A 
ATOM     21  N   UNL     1      44.932   4.381   8.640  0.00  0.00    +0.000 NA
ATOM     22  C   UNL     1      45.844   3.955   7.735  0.00  0.00    +0.000 A 
BRANCH  17  24
ATOM     23  F   UNL     1      46.985   2.691   5.340  0.00  0.00    +0.000 F 
ATOM     24  C   UNL     1      47.302   2.269   6.595  0.00  0.00    +0.000 C 
ATOM     25  F   UNL     1      47.484   0.923   6.500  0.00  0.00    +0.000 F 
ATOM     26  F   UNL     1      48.527   2.793   6.866  0.00  0.00    +0.000 F 
ENDBRANCH  17  24
ENDBRANCH  16  20
ENDBRANCH   1  16
TORSDOF 5
ENDMDL
MODEL 2
REMARK VINA RESULT:    -8.416      1.693      3.209
REMARK INTER + INTRA:         -11.988
REMARK INTER:                 -11.379
REMARK INTRA:                  -0.609
REMARK UNBOUND:                -1.112
REMARK  Name = 
REMARK  5 active torsions:
REMARK  status: ('A' for Active; 'I' for Inactive)
REMARK    1  A    between atoms: C_2  and  C_5
REMARK    2  A    between atoms: C_8  and  O_9
REMARK    3  A    between atoms: O_9  and  C_10
REMARK    4  A    between atoms: C_10  and  C_11
REMARK    5  A    between atoms: C_15  and  C_16
REMARK                            x       y       z     vdW  Elec       q    Type
REMARK                         _______ _______ _______ _____ _____    ______ ____
ROOT
ATOM      1  C   UNL     1      43.954   4.908  11.514  0.00  0.00    +0.000 C 
ATOM      2  C   UNL     1      42.658   5.219  12.252  0.00  0.00    +0.000 C 
ATOM      3  C   UNL     1      43.066   6.062  11.090  0.00  0.00    +0.000 C 
ENDROOT
BRANCH   1   4
ATOM      4  C   UNL     1      45.291   5.216  12.169  0.00  0.00    +0.000 A 
ATOM      5  C   UNL     1      46.184   6.148  11.641  0.00  0.00    +0.000 A 
ATOM      6  C   UNL     1      47.370   6.407  12.310  0.00  0.00    +0.000 A 
ATOM      7  N   UNL     1      47.742   5.802  13.458  0.00  0.00    +0.000 NA
ATOM      8  C   UNL     1      46.889   4.888  13.991  0.00  0.00    +0.000 A 
ATOM      9  C   UNL     1      45.672   4.595  13.371  0.00  0.00    +0.000 A 
BRANCH   8  10
ATOM     10  C   UNL     1      47.305   4.218  15.250  0.00  0.00    +0.000 A 
ATOM     11  C   UNL     1      47.219   4.844  16.495  0.00  0.00    +0.000 A 
ATOM     12  C   UNL     1      47.629   4.163  17.640  0.00  0.00    +0.000 A 
ATOM     13  C   UNL     1      48.121   2.868  17.524  0.00  0.00    +0.000 A 
ATOM     14  C   UNL     1      48.180   2.310  16.261  0.00  0.00    +0.000 A 
ATOM     15  N   UNL     1      47.786   2.946  15.137  0.00  0.00    +0.000 NA
ENDBRANCH   8  10
ENDBRANCH   1   4
BRANCH   1  16
ATOM     16  O   UNL     1      43.824   3.634  10.840  0.00  0.00    +0.000 OA
BRANCH  16  20
ATOM     17  C   UNL     1      46.260   2.756   7.638  0.00  0.00    +0.000 A 
ATOM     18  C   UNL     1      45.783   1.738   8.467  0.00  0.00    +0.000 A 
ATOM     19  C   UNL     1      44.964   2.061   9.543  0.00  0.00    +0.000 A 
ATOM     20  C   UNL     1      44.645   3.393   9.755  0.00  0.00    +0.000 A 
ATOM     21  N   UNL     1      45.064   4.399   8.964  0.00  0.00    +0.000 NA
ATOM     22  C   UNL     1      45.868   4.059   7.929  0.00  0.00    +0.000 A 
BRANCH  17  24
ATOM     23  F   UNL     1      48.477   2.717   6.743  0.00  0.00    +0.000 F 
ATOM     24  C   UNL     1      47.162   2.486   6.474  0.00  0.00    +0.000 C 
ATOM     25  F   UNL     1      46.863   3.258   5.392  0.00  0.00    +0.000 F 
ATOM     26  F   UNL     1      47.090   1.198   6.044  0.00  0.00    +0.000 F 
ENDBRANCH  17  24
ENDBRANCH  16  20
ENDBRANCH   1  16
TORSDOF 5
ENDMDL
MODEL 3
REMARK VINA RESULT:    -7.410      4.358      7.397
REMARK INTER + INTRA:         -10.687
REMARK INTER:                  -9.992
REMARK INTRA:                  -0.696
REMARK UNBOUND:                -1.112
REMARK  Name = 
REMARK  5 active torsions:
REMARK  status: ('A' for Active; 'I' for Inactive)
REMARK    1  A    between atoms: C_2  and  C_5
REMARK    2  A    between atoms: C_8  and  O_9
REMARK    3  A    between atoms: O_9  and  C_10
REMARK    4  A    between atoms: C_10  and  C_11
REMARK    5  A    between atoms: C_15  and  C_16
REMARK                            x       y       z     vdW  Elec       q    Type
REMARK                         _______ _______ _______ _____ _____    ______ ____
ROOT
ATOM      1  C   UNL     1      46.291   7.335  12.341  0.00  0.00    +0.000 C 
ATOM      2  C   UNL     1      46.445   8.782  11.889  0.00  0.00    +0.000 C 
ATOM      3  C   UNL     1      45.675   8.474  13.130  0.00  0.00    +0.000 C 
ENDROOT
BRANCH   1   4
ATOM      4  C   UNL     1      45.373   6.395  11.574  0.00  0.00    +0.000 A 
ATOM      5  C   UNL     1      43.992   6.377  11.770  0.00  0.00    +0.000 A 
ATOM      6  C   UNL     1      43.211   5.521  11.009  0.00  0.00    +0.000 A 
ATOM      7  N   UNL     1      43.698   4.673  10.079  0.00  0.00    +0.000 NA
ATOM      8  C   UNL     1      45.041   4.671   9.872  0.00  0.00    +0.000 A 
ATOM      9  C   UNL     1      45.879   5.522  10.596  0.00  0.00    +0.000 A 
BRANCH   8  10
ATOM     10  C   UNL     1      45.575   3.732   8.853  0.00  0.00    +0.000 A 
ATOM     11  C   UNL     1      45.538   2.346   9.020  0.00  0.00    +0.000 A 
ATOM     12  C   UNL     1      46.059   1.517   8.028  0.00  0.00    +0.000 A 
ATOM     13  C   UNL     1      46.612   2.084   6.886  0.00  0.00    +0.000 A 
ATOM     14  C   UNL     1      46.618   3.463   6.787  0.00  0.00    +0.000 A 
ATOM     15  N   UNL     1      46.117   4.288   7.731  0.00  0.00    +0.000 NA
ENDBRANCH   8  10
ENDBRANCH   1   4
BRANCH   1  16
ATOM     16  O   UNL     1      47.583   6.820  12.739  0.00  0.00    +0.000 OA
BRANCH  16  20
ATOM     17  C   UNL     1      47.696   4.560  16.179  0.00  0.00    +0.000 A 
ATOM     18  C   UNL     1      46.897   4.171  15.101  0.00  0.00    +0.000 A 
ATOM     19  C   UNL     1      46.874   4.953  13.951  0.00  0.00    +0.000 A 
ATOM     20  C   UNL     1      47.655   6.099  13.915  0.00  0.00    +0.000 A 
ATOM     21  N   UNL     1      48.455   6.492  14.924  0.00  0.00    +0.000 NA
ATOM     22  C   UNL     1      48.451   5.720  16.035  0.00  0.00    +0.000 A 
BRANCH  17  24
ATOM     23  F   UNL     1      46.802   2.809  17.543  0.00  0.00    +0.000 F 
ATOM     24  C   UNL     1      47.754   3.780  17.456  0.00  0.00    +0.000 C 
ATOM     25  F   UNL     1      47.583   4.566  18.555  0.00  0.00    +0.000 F 
ATOM     26  F   UNL     1      48.946   3.150  17.630  0.00  0.00    +0.000 F 
ENDBRANCH  17  24
ENDBRANCH  16  20
ENDBRANCH   1  16
TORSDOF 5
ENDMDL
MODEL 4
REMARK VINA RESULT:    -6.423      4.229      7.048
REMARK INTER + INTRA:          -9.412
REMARK INTER:                  -8.559
REMARK INTRA:                  -0.853
REMARK UNBOUND:                -1.112
REMARK  Name = 
REMARK  5 active torsions:
REMARK  status: ('A' for Active; 'I' for Inactive)
REMARK    1  A    between atoms: C_2  and  C_5
REMARK    2  A    between atoms: C_8  and  O_9
REMARK    3  A    between atoms: O_9  and  C_10
REMARK    4  A    between atoms: C_10  and  C_11
REMARK    5  A    between atoms: C_15  and  C_16
REMARK                            x       y       z     vdW  Elec       q    Type
REMARK                         _______ _______ _______ _____ _____    ______ ____
ROOT
ATOM      1  C   UNL     1      45.705   5.356  12.845  0.00  0.00    +0.000 C 
ATOM      2  C   UNL     1      46.606   4.898  13.985  0.00  0.00    +0.000 C 
ATOM      3  C   UNL     1      47.204   5.575  12.798  0.00  0.00    +0.000 C 
ENDROOT
BRANCH   1   4
ATOM      4  C   UNL     1      45.084   4.329  11.911  0.00  0.00    +0.000 A 
ATOM      5  C   UNL     1      43.861   3.716  12.182  0.00  0.00    +0.000 A 
ATOM      6  C   UNL     1      43.336   2.816  11.268  0.00  0.00    +0.000 A 
ATOM      7  N   UNL     1      43.939   2.469  10.111  0.00  0.00    +0.000 NA
ATOM      8  C   UNL     1      45.133   3.052   9.825  0.00  0.00    +0.000 A 
ATOM      9  C   UNL     1      45.706   3.978  10.700  0.00  0.00    +0.000 A 
BRANCH   8  10
ATOM     10  C   UNL     1      45.798   2.663   8.555  0.00  0.00    +0.000 A 
ATOM     11  C   UNL     1      45.988   3.563   7.504  0.00  0.00    +0.000 A 
ATOM     12  C   UNL     1      46.615   3.135   6.335  0.00  0.00    +0.000 A 
ATOM     13  C   UNL     1      47.040   1.816   6.233  0.00  0.00    +0.000 A 
ATOM     14  C   UNL     1      46.818   0.979   7.310  0.00  0.00    +0.000 A 
ATOM     15  N   UNL     1      46.216   1.368   8.455  0.00  0.00    +0.000 NA
ENDBRANCH   8  10
ENDBRANCH   1   4
BRANCH   1  16
ATOM     16  O   UNL     1      44.851   6.426  13.313  0.00  0.00    +0.000 OA
BRANCH  16  20
ATOM     17  C   UNL     1      44.711   9.896  11.100  0.00  0.00    +0.000 A 
ATOM     18  C   UNL     1      45.559   9.793  12.206  0.00  0.00    +0.000 A 
ATOM     19  C   UNL     1      45.586   8.611  12.938  0.00  0.00    +0.000 A 
ATOM     20  C   UNL     1      44.765   7.567  12.540  0.00  0.00    +0.000 A 
ATOM     21  N   UNL     1      43.953   7.620  11.467  0.00  0.00    +0.000 NA
ATOM     22  C   UNL     1      43.938   8.785  10.777  0.00  0.00    +0.000 A 
BRANCH  17  24
ATOM     23  F   UNL     1      45.821  11.711  10.009  0.00  0.00    +0.000 F 
ATOM     24  C   UNL     1      44.613  11.143  10.278  0.00  0.00    +0.000 C 
ATOM     25  F   UNL     1      43.874  12.112  10.887  0.00  0.00    +0.000 F 
ATOM     26  F   UNL     1      44.025  10.928   9.071  0.00  0.00    +0.000 F 
ENDBRANCH  17  24
ENDBRANCH  16  20
ENDBRANCH   1  16
TORSDOF 5
ENDMDL
MODEL 5
REMARK VINA RESULT:    -6.420      4.708      7.831
REMARK INTER + INTRA:          -9.408
REMARK INTER:                  -8.611
REMARK INTRA:                  -0.796
REMARK UNBOUND:                -1.112
REMARK  Name = 
REMARK  5 active torsions:
REMARK  status: ('A' for Active; 'I' for Inactive)
REMARK    1  A    between atoms: C_2  and  C_5
REMARK    2  A    between atoms: C_8  and  O_9
REMARK    3  A    between atoms: O_9  and  C_10
REMARK    4  A    between atoms: C_10  and  C_11
REMARK    5  A    between atoms: C_15  and  C_16
REMARK                            x       y       z     vdW  Elec       q    Type
REMARK                         _______ _______ _______ _____ _____    ______ ____
ROOT
ATOM      1  C   UNL     1      48.454   8.063  12.659  0.00  0.00    +0.000 C 
ATOM      2  C   UNL     1      49.307   8.916  11.729  0.00  0.00    +0.000 C 
ATOM      3  C   UNL     1      48.726   9.524  12.961  0.00  0.00    +0.000 C 
ENDROOT
BRANCH   1   4
ATOM      4  C   UNL     1      47.052   7.651  12.237  0.00  0.00    +0.000 A 
ATOM      5  C   UNL     1      45.918   8.373  12.610  0.00  0.00    +0.000 A 
ATOM      6  C   UNL     1      44.673   7.961  12.158  0.00  0.00    +0.000 A 
ATOM      7  N   UNL     1      44.468   6.881  11.375  0.00  0.00    +0.000 NA
ATOM      8  C   UNL     1      45.558   6.161  11.000  0.00  0.00    +0.000 A 
ATOM      9  C   UNL     1      46.840   6.534  11.410  0.00  0.00    +0.000 A 
BRANCH   8  10
ATOM     10  C   UNL     1      45.329   4.969  10.144  0.00  0.00    +0.000 A 
ATOM     11  C   UNL     1      45.779   4.898   8.824  0.00  0.00    +0.000 A 
ATOM     12  C   UNL     1      45.528   3.752   8.070  0.00  0.00    +0.000 A 
ATOM     13  C   UNL     1      44.830   2.697   8.645  0.00  0.00    +0.000 A 
ATOM     14  C   UNL     1      44.413   2.836   9.956  0.00  0.00    +0.000 A 
ATOM     15  N   UNL     1      44.645   3.933  10.708  0.00  0.00    +0.000 NA
ENDBRANCH   8  10
ENDBRANCH   1   4
BRANCH   1  16
ATOM     16  O   UNL     1      49.285   7.051  13.274  0.00  0.00    +0.000 OA
BRANCH  16  20
ATOM     17  C   UNL     1      47.903   5.258  16.713  0.00  0.00    +0.000 A 
ATOM     18  C   UNL     1      48.714   6.394  16.781  0.00  0.00    +0.000 A 
ATOM     19  C   UNL     1      49.169   6.979  15.606  0.00  0.00    +0.000 A 
ATOM     20  C   UNL     1      48.797   6.411  14.396  0.00  0.00    +0.000 A 
ATOM     21  N   UNL     1      47.998   5.333  14.290  0.00  0.00    +0.000 NA
ATOM     22  C   UNL     1      47.576   4.776  15.449  0.00  0.00    +0.000 A 
BRANCH  17  24
ATOM     23  F   UNL     1      46.429   5.262  18.597  0.00  0.00    +0.000 F 
ATOM     24  C   UNL     1      47.393   4.562  17.937  0.00  0.00    +0.000 C 
ATOM     25  F   UNL     1      48.375   4.329  18.851  0.00  0.00    +0.000 F 
ATOM     26  F   UNL     1      46.847   3.349  17.658  0.00  0.00    +0.000 F 
ENDBRANCH  17  24
ENDBRANCH  16  20
ENDBRANCH   1  16
TORSDOF 5
ENDMDL
MODEL 6
REMARK VINA RESULT:    -6.225      3.695      5.768
REMARK INTER + INTRA:          -9.156
REMARK INTER:                  -8.354
REMARK INTRA:                  -0.802
REMARK UNBOUND:                -1.112
REMARK  Name = 
REMARK  5 active torsions:
REMARK  status: ('A' for Active; 'I' for Inactive)
REMARK    1  A    between atoms: C_2  and  C_5
REMARK    2  A    between atoms: C_8  and  O_9
REMARK    3  A    between atoms: O_9  and  C_10
REMARK    4  A    between atoms: C_10  and  C_11
REMARK    5  A    between atoms: C_15  and  C_16
REMARK                            x       y       z     vdW  Elec       q    Type
REMARK                         _______ _______ _______ _____ _____    ______ ____
ROOT
ATOM      1  C   UNL     1      48.176   8.190  12.537  0.00  0.00    +0.000 C 
ATOM      2  C   UNL     1      49.083   9.144  11.771  0.00  0.00    +0.000 C 
ATOM      3  C   UNL     1      49.248   7.671  11.598  0.00  0.00    +0.000 C 
ENDROOT
BRANCH   1   4
ATOM      4  C   UNL     1      48.362   8.006  14.035  0.00  0.00    +0.000 A 
ATOM      5  C   UNL     1      48.339   9.078  14.927  0.00  0.00    +0.000 A 
ATOM      6  C   UNL     1      48.479   8.834  16.284  0.00  0.00    +0.000 A 
ATOM      7  N   UNL     1      48.651   7.608  16.822  0.00  0.00    +0.000 NA
ATOM      8  C   UNL     1      48.678   6.548  15.973  0.00  0.00    +0.000 A 
ATOM      9  C   UNL     1      48.528   6.728  14.596  0.00  0.00    +0.000 A 
BRANCH   8  10
ATOM     10  C   UNL     1      48.875   5.201  16.567  0.00  0.00    +0.000 A 
ATOM     11  C   UNL     1      47.831   4.284  16.705  0.00  0.00    +0.000 A 
ATOM     12  C   UNL     1      48.079   3.036  17.275  0.00  0.00    +0.000 A 
ATOM     13  C   UNL     1      49.365   2.724  17.700  0.00  0.00    +0.000 A 
ATOM     14  C   UNL     1      50.350   3.680  17.535  0.00  0.00    +0.000 A 
ATOM     15  N   UNL     1      50.137   4.894  16.984  0.00  0.00    +0.000 NA
ENDBRANCH   8  10
ENDBRANCH   1   4
BRANCH   1  16
ATOM     16  O   UNL     1      46.820   8.327  12.050  0.00  0.00    +0.000 OA
BRANCH  16  20
ATOM     17  C   UNL     1      44.596   4.888  11.624  0.00  0.00    +0.000 A 
ATOM     18  C   UNL     1      45.487   5.286  10.623  0.00  0.00    +0.000 A 
ATOM     19  C   UNL     1      46.224   6.453  10.790  0.00  0.00    +0.000 A 
ATOM     20  C   UNL     1      46.050   7.185  11.955  0.00  0.00    +0.000 A 
ATOM     21  N   UNL     1      45.221   6.821  12.951  0.00  0.00    +0.000 NA
ATOM     22  C   UNL     1      44.506   5.687  12.760  0.00  0.00    +0.000 A 
BRANCH  17  24
ATOM     23  F   UNL     1      43.991   2.946  10.367  0.00  0.00    +0.000 F 
ATOM     24  C   UNL     1      43.753   3.657  11.504  0.00  0.00    +0.000 C 
ATOM     25  F   UNL     1      42.420   3.936  11.496  0.00  0.00    +0.000 F 
ATOM     26  F   UNL     1      43.947   2.789  12.533  0.00  0.00    +0.000 F 
ENDBRANCH  17  24
ENDBRANCH  16  20
ENDBRANCH   1  16
TORSDOF 5
ENDMDL
MODEL 7
REMARK VINA RESULT:    -5.823      5.287      7.003
REMARK INTER + INTRA:          -8.637
REMARK INTER:                  -7.833
REMARK INTRA:                  -0.804
REMARK UNBOUND:                -1.112
REMARK  Name = 
REMARK  5 active torsions:
REMARK  status: ('A' for Active; 'I' for Inactive)
REMARK    1  A    between atoms: C_2  and  C_5
REMARK    2  A    between atoms: C_8  and  O_9
REMARK    3  A    between atoms: O_9  and  C_10
REMARK    4  A    between atoms: C_10  and  C_11
REMARK    5  A    between atoms: C_15  and  C_16
REMARK                            x       y       z     vdW  Elec       q    Type
REMARK                         _______ _______ _______ _____ _____    ______ ____
ROOT
ATOM      1  C   UNL     1      47.902   4.275  16.110  0.00  0.00    +0.000 C 
ATOM      2  C   UNL     1      48.333   2.985  16.797  0.00  0.00    +0.000 C 
ATOM      3  C   UNL     1      46.914   3.437  16.898  0.00  0.00    +0.000 C 
ENDROOT
BRANCH   1   4
ATOM      4  C   UNL     1      48.340   5.617  16.676  0.00  0.00    +0.000 A 
ATOM      5  C   UNL     1      49.162   6.493  15.967  0.00  0.00    +0.000 A 
ATOM      6  C   UNL     1      49.492   7.717  16.529  0.00  0.00    +0.000 A 
ATOM      7  N   UNL     1      49.077   8.132  17.745  0.00  0.00    +0.000 NA
ATOM      8  C   UNL     1      48.277   7.294  18.455  0.00  0.00    +0.000 A 
ATOM      9  C   UNL     1      47.898   6.053  17.937  0.00  0.00    +0.000 A 
BRANCH   8  10
ATOM     10  C   UNL     1      47.829   7.749  19.796  0.00  0.00    +0.000 A 
ATOM     11  C   UNL     1      47.752   6.887  20.892  0.00  0.00    +0.000 A 
ATOM     12  C   UNL     1      47.320   7.375  22.124  0.00  0.00    +0.000 A 
ATOM     13  C   UNL     1      46.969   8.715  22.243  0.00  0.00    +0.000 A 
ATOM     14  C   UNL     1      47.068   9.510  21.117  0.00  0.00    +0.000 A 
ATOM     15  N   UNL     1      47.486   9.065  19.913  0.00  0.00    +0.000 NA
ENDBRANCH   8  10
ENDBRANCH   1   4
BRANCH   1  16
ATOM     16  O   UNL     1      47.987   4.102  14.676  0.00  0.00    +0.000 OA
BRANCH  16  20
ATOM     17  C   UNL     1      44.555   4.761  12.497  0.00  0.00    +0.000 A 
ATOM     18  C   UNL     1      45.243   5.829  13.080  0.00  0.00    +0.000 A 
ATOM     19  C   UNL     1      46.397   5.580  13.813  0.00  0.00    +0.000 A 
ATOM     20  C   UNL     1      46.831   4.269  13.938  0.00  0.00    +0.000 A 
ATOM     21  N   UNL     1      46.210   3.217  13.372  0.00  0.00    +0.000 NA
ATOM     22  C   UNL     1      45.082   3.485  12.672  0.00  0.00    +0.000 A 
BRANCH  17  24
ATOM     23  F   UNL     1      42.981   3.886  10.924  0.00  0.00    +0.000 F 
ATOM     24  C   UNL     1      43.294   4.951  11.713  0.00  0.00    +0.000 C 
ATOM     25  F   UNL     1      43.355   6.026  10.880  0.00  0.00    +0.000 F 
ATOM     26  F   UNL     1      42.210   5.157  12.508  0.00  0.00    +0.000 F 
ENDBRANCH  17  24
ENDBRANCH  16  20
ENDBRANCH   1  16
TORSDOF 5
ENDMDL
MODEL 8
REMARK VINA RESULT:    -5.800      3.669      6.966
REMARK INTER + INTRA:          -8.606
REMARK INTER:                  -8.263
REMARK INTRA:                  -0.343
REMARK UNBOUND:                -1.112
REMARK  Name = 
REMARK  5 active torsions:
REMARK  status: ('A' for Active; 'I' for Inactive)
REMARK    1  A    between atoms: C_2  and  C_5
REMARK    2  A    between atoms: C_8  and  O_9
REMARK    3  A    between atoms: O_9  and  C_10
REMARK    4  A    between atoms: C_10  and  C_11
REMARK    5  A    between atoms: C_15  and  C_16
REMARK                            x       y       z     vdW  Elec       q    Type
REMARK                         _______ _______ _______ _____ _____    ______ ____
ROOT
ATOM      1  C   UNL     1      45.937   5.064  13.225  0.00  0.00    +0.000 C 
ATOM      2  C   UNL     1      46.123   4.595  14.662  0.00  0.00    +0.000 C 
ATOM      3  C   UNL     1      47.293   4.618  13.736  0.00  0.00    +0.000 C 
ENDROOT
BRANCH   1   4
ATOM      4  C   UNL     1      45.202   4.180  12.229  0.00  0.00    +0.000 A 
ATOM      5  C   UNL     1      43.925   3.678  12.478  0.00  0.00    +0.000 A 
ATOM      6  C   UNL     1      43.299   2.909  11.509  0.00  0.00    +0.000 A 
ATOM      7  N   UNL     1      43.849   2.590  10.319  0.00  0.00    +0.000 NA
ATOM      8  C   UNL     1      45.094   3.066  10.055  0.00  0.00    +0.000 A 
ATOM      9  C   UNL     1      45.771   3.859  10.984  0.00  0.00    +0.000 A 
BRANCH   8  10
ATOM     10  C   UNL     1      45.700   2.707   8.747  0.00  0.00    +0.000 A 
ATOM     11  C   UNL     1      45.806   3.620   7.695  0.00  0.00    +0.000 A 
ATOM     12  C   UNL     1      46.382   3.220   6.490  0.00  0.00    +0.000 A 
ATOM     13  C   UNL     1      46.841   1.916   6.353  0.00  0.00    +0.000 A 
ATOM     14  C   UNL     1      46.702   1.065   7.433  0.00  0.00    +0.000 A 
ATOM     15  N   UNL     1      46.152   1.427   8.612  0.00  0.00    +0.000 NA
ENDBRANCH   8  10
ENDBRANCH   1   4
BRANCH   1  16
ATOM     16  O   UNL     1      45.614   6.475  13.222  0.00  0.00    +0.000 OA
BRANCH  16  20
ATOM     17  C   UNL     1      48.650   9.040  12.143  0.00  0.00    +0.000 A 
ATOM     18  C   UNL     1      48.379   7.900  11.381  0.00  0.00    +0.000 A 
ATOM     19  C   UNL     1      47.350   7.049  11.768  0.00  0.00    +0.000 A 
ATOM     20  C   UNL     1      46.621   7.365  12.904  0.00  0.00    +0.000 A 
ATOM     21  N   UNL     1      46.836   8.466  13.650  0.00  0.00    +0.000 NA
ATOM     22  C   UNL     1      47.850   9.273  13.258  0.00  0.00    +0.000 A 
BRANCH  17  24
ATOM     23  F   UNL     1      50.670   9.469  10.936  0.00  0.00    +0.000 F 
ATOM     24  C   UNL     1      49.754   9.990  11.800  0.00  0.00    +0.000 C 
ATOM     25  F   UNL     1      50.461  10.386  12.895  0.00  0.00    +0.000 F 
ATOM     26  F   UNL     1      49.300  11.131  11.217  0.00  0.00    +0.000 F 
ENDBRANCH  17  24
ENDBRANCH  16  20
ENDBRANCH   1  16
TORSDOF 5
ENDMDL
