MODEL 1
REMARK VINA RESULT:    -7.348      0.000      0.000
REMARK INTER + INTRA:         -11.322
REMARK INTER:                 -10.355
REMARK INTRA:                  -0.967
REMARK UNBOUND:                -0.967
REMARK  Name = 
REMARK  10 active torsions:
REMARK  status: ('A' for Active; 'I' for Inactive)
REMARK    1  A    between atoms: C_1  and  C_2
REMARK    2  A    between atoms: C_2  and  C_3
REMARK    3  A    between atoms: C_2  and  N_19
REMARK    4  A    between atoms: C_6  and  C_7
REMARK    5  A    between atoms: C_7  and  N_8
REMARK    6  A    between atoms: N_8  and  C_9
REMARK    7  A    between atoms: N_8  and  C_10
REMARK    8  A    between atoms: C_10  and  C_11
REMARK    9  A    between atoms: N_19  and  C_20
REMARK   10  A    between atoms: C_21  and  C_23
REMARK                            x       y       z     vdW  Elec       q    Type
REMARK                         _______ _______ _______ _____ _____    ______ ____
ROOT
ATOM      1  C   UNL     1      49.878   7.809  13.373  0.00  0.00    +0.000 C 
ATOM      2  C   UNL     1      49.048   6.840  14.221  0.00  0.00    +0.000 C 
ENDROOT
BRANCH   2   3
ATOM      3  C   UNL     1      47.654   6.573  13.685  0.00  0.00    +0.000 A 
ATOM      4  C   UNL     1      47.050   7.468  12.792  0.00  0.00    +0.000 A 
ATOM      5  C   UNL     1      45.828   7.148  12.202  0.00  0.00    +0.000 A 
ATOM      6  C   UNL     1      45.244   5.918  12.497  0.00  0.00    +0.000 A 
ATOM      7  N   UNL     1      45.765   5.072  13.417  0.00  0.00    +0.000 NA
ATOM      8  C   UNL     1      46.932   5.426  13.996  0.00  0.00    +0.000 A 
BRANCH   6   9
ATOM      9  C   UNL     1      44.047   5.415  11.709  0.00  0.00    +0.000 C 
BRANCH   9  10
ATOM     10  N   UNL     1      44.266   4.087  11.072  0.00  0.00    +0.000 NA
ATOM     11  C   UNL     1      43.404   3.063  11.679  0.00  0.00    +0.000 C 
BRANCH  10  12
ATOM     12  C   UNL     1      43.993   4.171   9.618  0.00  0.00    +0.000 C 
BRANCH  12  13
ATOM     13  C   UNL     1      45.015   3.446   8.764  0.00  0.00    +0.000 A 
ATOM     14  C   UNL     1      45.251   2.086   8.947  0.00  0.00    +0.000 A 
ATOM     15  N   UNL     1      46.226   1.413   8.288  0.00  0.00    +0.000 NA
ATOM     16  C   UNL     1      46.961   2.155   7.432  0.00  0.00    +0.000 A 
ATOM     17  C   UNL     1      46.723   3.503   7.227  0.00  0.00    +0.000 A 
ATOM     18  N   UNL     1      45.752   4.177   7.884  0.00  0.00    +0.000 NA
ENDBRANCH  12  13
ENDBRANCH  10  12
ENDBRANCH   9  10
ENDBRANCH   6   9
ENDBRANCH   2   3
BRANCH   2  19
ATOM     19  N   UNL     1      49.026   7.294  15.632  0.00  0.00    +0.000 N 
ATOM     20  C   UNL     1      48.511   8.632  15.914  0.00  0.00    +0.000 C 
ATOM     21  C   UNL     1      49.673   6.485  16.592  0.00  0.00    +0.000 C 
ATOM     22  O   UNL     1      50.156   5.404  16.286  0.00  0.00    +0.000 OA
BRANCH  21  23
ATOM     23  C   UNL     1      49.741   6.956  17.987  0.00  0.00    +0.000 A 
ATOM     24  C   UNL     1      50.638   7.890  18.478  0.00  0.00    +0.000 A 
ATOM     25  S   UNL     1      50.452   8.248  20.130  0.00  0.00    +0.000 S 
ATOM     26  C   UNL     1      49.077   7.266  20.225  0.00  0.00    +0.000 A 
ATOM     27  N   UNL     1      48.368   7.203  21.376  0.00  0.00    +0.000 NA
ATOM     28  C   UNL     1      47.328   6.448  21.310  0.00  0.00    +0.000 A 
ATOM     29  N   UNL     1      46.947   5.730  20.211  0.00  0.00    +0.000 N 
ATOM     30  C   UNL     1      47.695   5.666  19.047  0.00  0.00    +0.000 A 
ATOM     31  O   UNL     1      47.440   4.844  18.178  0.00  0.00    +0.000 OA
ATOM     32  C   UNL     1      48.816   6.592  19.042  0.00  0.00    +0.000 A 
ATOM     33  H   UNL     1      46.159   5.100  20.256  0.00  0.00    +0.000 HD
ENDBRANCH  21  23
ENDBRANCH   2  19
TORSDOF 7
ENDMDL
MODEL 2
REMARK VINA RESULT:    -6.779      1.588      2.422
REMARK INTER + INTRA:         -10.520
REMARK INTER:                  -9.326
REMARK INTRA:                  -1.194
REMARK UNBOUND:                -0.967
REMARK  Name = 
REMARK  10 active torsions:
REMARK  status: ('A' for Active; 'I' for Inactive)
REMARK    1  A    between atoms: C_1  and  C_2
REMARK    2  A    between atoms: C_2  and  C_3
REMARK    3  A    between atoms: C_2  and  N_19
REMARK    4  A    between atoms: C_6  and  C_7
REMARK    5  A    between atoms: C_7  and  N_8
REMARK    6  A    between atoms: N_8  and  C_9
REMARK    7  A    between atoms: N_8  and  C_10
REMARK    8  A    between atoms: C_10  and  C_11
REMARK    9  A    between atoms: N_19  and  C_20
REMARK   10  A    between atoms: C_21  and  C_23
REMARK                            x       y       z     vdW  Elec       q    Type
REMARK                         _______ _______ _______ _____ _____    ______ ____
ROOT
ATOM      1  C   UNL     1      50.108   8.311  13.219  0.00  0.00    +0.000 C 
ATOM      2  C   UNL     1      49.388   7.187  13.970  0.00  0.00    +0.000 C 
ENDROOT
BRANCH   2   3
ATOM      3  C   UNL     1      48.205   6.592  13.228  0.00  0.00    +0.000 A 
ATOM      4  C   UNL     1      47.486   5.523  13.776  0.00  0.00    +0.000 A 
ATOM      5  C   UNL     1      46.322   5.072  13.153  0.00  0.00    +0.000 A 
ATOM      6  C   UNL     1      45.884   5.723  12.002  0.00  0.00    +0.000 A 
ATOM      7  N   UNL     1      46.603   6.704  11.407  0.00  0.00    +0.000 NA
ATOM      8  C   UNL     1      47.743   7.095  12.017  0.00  0.00    +0.000 A 
BRANCH   6   9
ATOM      9  C   UNL     1      44.510   5.438  11.422  0.00  0.00    +0.000 C 
BRANCH   9  10
ATOM     10  N   UNL     1      44.357   4.051  10.904  0.00  0.00    +0.000 NA
ATOM     11  C   UNL     1      43.273   3.344  11.601  0.00  0.00    +0.000 C 
BRANCH  10  12
ATOM     12  C   UNL     1      44.078   4.081   9.448  0.00  0.00    +0.000 C 
BRANCH  12  13
ATOM     13  C   UNL     1      45.104   3.337   8.615  0.00  0.00    +0.000 A 
ATOM     14  C   UNL     1      45.372   1.993   8.860  0.00  0.00    +0.000 A 
ATOM     15  N   UNL     1      46.353   1.310   8.221  0.00  0.00    +0.000 NA
ATOM     16  C   UNL     1      47.060   2.026   7.320  0.00  0.00    +0.000 A 
ATOM     17  C   UNL     1      46.791   3.357   7.055  0.00  0.00    +0.000 A 
ATOM     18  N   UNL     1      45.814   4.041   7.692  0.00  0.00    +0.000 NA
ENDBRANCH  12  13
ENDBRANCH  10  12
ENDBRANCH   9  10
ENDBRANCH   6   9
ENDBRANCH   2   3
BRANCH   2  19
ATOM     19  N   UNL     1      49.019   7.644  15.331  0.00  0.00    +0.000 N 
ATOM     20  C   UNL     1      48.330   8.925  15.461  0.00  0.00    +0.000 C 
ATOM     21  C   UNL     1      49.521   6.910  16.429  0.00  0.00    +0.000 C 
ATOM     22  O   UNL     1      50.161   5.881  16.262  0.00  0.00    +0.000 OA
BRANCH  21  23
ATOM     23  C   UNL     1      49.242   7.393  17.793  0.00  0.00    +0.000 A 
ATOM     24  C   UNL     1      48.200   6.965  18.600  0.00  0.00    +0.000 A 
ATOM     25  S   UNL     1      48.152   7.690  20.137  0.00  0.00    +0.000 S 
ATOM     26  C   UNL     1      49.602   8.509  19.834  0.00  0.00    +0.000 A 
ATOM     27  N   UNL     1      50.174   9.255  20.809  0.00  0.00    +0.000 NA
ATOM     28  C   UNL     1      51.289   9.800  20.465  0.00  0.00    +0.000 A 
ATOM     29  N   UNL     1      51.869   9.690  19.231  0.00  0.00    +0.000 N 
ATOM     30  C   UNL     1      51.273   9.037  18.165  0.00  0.00    +0.000 A 
ATOM     31  O   UNL     1      51.714   9.153  17.030  0.00  0.00    +0.000 OA
ATOM     32  C   UNL     1      50.069   8.315  18.544  0.00  0.00    +0.000 A 
ATOM     33  H   UNL     1      52.708  10.207  19.011  0.00  0.00    +0.000 HD
ENDBRANCH  21  23
ENDBRANCH   2  19
TORSDOF 7
ENDMDL
MODEL 3
REMARK VINA RESULT:    -6.740      3.520      4.380
REMARK INTER + INTRA:         -10.466
REMARK INTER:                 -10.122
REMARK INTRA:                  -0.344
REMARK UNBOUND:                -0.967
REMARK  Name = 
REMARK  10 active torsions:
REMARK  status: ('A' for Active; 'I' for Inactive)
REMARK    1  A    between atoms: C_1  and  C_2
REMARK    2  A    between atoms: C_2  and  C_3
REMARK    3  A    between atoms: C_2  and  N_19
REMARK    4  A    between atoms: C_6  and  C_7
REMARK    5  A    between atoms: C_7  and  N_8
REMARK    6  A    between atoms: N_8  and  C_9
REMARK    7  A    between atoms: N_8  and  C_10
REMARK    8  A    between atoms: C_10  and  C_11
REMARK    9  A    between atoms: N_19  and  C_20
REMARK   10  A    between atoms: C_21  and  C_23
REMARK                            x       y       z     vdW  Elec       q    Type
REMARK                         _______ _______ _______ _____ _____    ______ ____
ROOT
ATOM      1  C   UNL     1      47.427   5.919  18.554  0.00  0.00    +0.000 C 
ATOM      2  C   UNL     1      48.510   5.762  17.483  0.00  0.00    +0.000 C 
ENDROOT
BRANCH   2   3
ATOM      3  C   UNL     1      47.997   5.290  16.135  0.00  0.00    +0.000 A 
ATOM      4  C   UNL     1      47.463   4.003  15.987  0.00  0.00    +0.000 A 
ATOM      5  C   UNL     1      46.873   3.627  14.782  0.00  0.00    +0.000 A 
ATOM      6  C   UNL     1      46.803   4.561  13.750  0.00  0.00    +0.000 A 
ATOM      7  N   UNL     1      47.384   5.780  13.838  0.00  0.00    +0.000 NA
ATOM      8  C   UNL     1      47.976   6.103  15.007  0.00  0.00    +0.000 A 
BRANCH   6   9
ATOM      9  C   UNL     1      45.966   4.291  12.511  0.00  0.00    +0.000 C 
BRANCH   9  10
ATOM     10  N   UNL     1      44.499   4.356  12.756  0.00  0.00    +0.000 NA
ATOM     11  C   UNL     1      44.050   5.748  12.900  0.00  0.00    +0.000 C 
BRANCH  10  12
ATOM     12  C   UNL     1      43.770   3.710  11.638  0.00  0.00    +0.000 C 
BRANCH  12  13
ATOM     13  C   UNL     1      44.585   3.597  10.364  0.00  0.00    +0.000 A 
ATOM     14  C   UNL     1      44.909   4.734   9.630  0.00  0.00    +0.000 A 
ATOM     15  N   UNL     1      45.541   4.681   8.431  0.00  0.00    +0.000 NA
ATOM     16  C   UNL     1      45.840   3.439   7.992  0.00  0.00    +0.000 A 
ATOM     17  C   UNL     1      45.540   2.302   8.722  0.00  0.00    +0.000 A 
ATOM     18  N   UNL     1      44.909   2.353   9.918  0.00  0.00    +0.000 NA
ENDBRANCH  12  13
ENDBRANCH  10  12
ENDBRANCH   9  10
ENDBRANCH   6   9
ENDBRANCH   2   3
BRANCH   2  19
ATOM     19  N   UNL     1      49.606   4.905  17.994  0.00  0.00    +0.000 N 
ATOM     20  C   UNL     1      49.374   4.156  19.226  0.00  0.00    +0.000 C 
ATOM     21  C   UNL     1      50.868   5.009  17.366  0.00  0.00    +0.000 C 
ATOM     22  O   UNL     1      51.027   5.713  16.380  0.00  0.00    +0.000 OA
BRANCH  21  23
ATOM     23  C   UNL     1      51.997   4.232  17.910  0.00  0.00    +0.000 A 
ATOM     24  C   UNL     1      53.056   4.753  18.634  0.00  0.00    +0.000 A 
ATOM     25  S   UNL     1      54.195   3.601  19.149  0.00  0.00    +0.000 S 
ATOM     26  C   UNL     1      53.248   2.339  18.536  0.00  0.00    +0.000 A 
ATOM     27  N   UNL     1      53.624   1.053  18.733  0.00  0.00    +0.000 NA
ATOM     28  C   UNL     1      52.804   0.188  18.247  0.00  0.00    +0.000 A 
ATOM     29  N   UNL     1      51.660   0.489  17.562  0.00  0.00    +0.000 N 
ATOM     30  C   UNL     1      51.287   1.781  17.233  0.00  0.00    +0.000 A 
ATOM     31  O   UNL     1      50.385   1.993  16.434  0.00  0.00    +0.000 OA
ATOM     32  C   UNL     1      52.127   2.790  17.859  0.00  0.00    +0.000 A 
ATOM     33  H   UNL     1      51.103  -0.243  17.146  0.00  0.00    +0.000 HD
ENDBRANCH  21  23
ENDBRANCH   2  19
TORSDOF 7
ENDMDL
MODEL 4
REMARK VINA RESULT:    -6.698      1.868      2.526
REMARK INTER + INTRA:         -10.407
REMARK INTER:                  -9.466
REMARK INTRA:                  -0.941
REMARK UNBOUND:                -0.967
REMARK  Name = 
REMARK  10 active torsions:
REMARK  status: ('A' for Active; 'I' for Inactive)
REMARK    1  A    between atoms: C_1  and  C_2
REMARK    2  A    between atoms: C_2  and  C_3
REMARK    3  A    between atoms: C_2  and  N_19
REMARK    4  A    between atoms: C_6  and  C_7
REMARK    5  A    between atoms: C_7  and  N_8
REMARK    6  A    between atoms: N_8  and  C_9
REMARK    7  A    between atoms: N_8  and  C_10
REMARK    8  A    between atoms: C_10  and  C_11
REMARK    9  A    between atoms: N_19  and  C_20
REMARK   10  A    between atoms: C_21  and  C_23
REMARK                            x       y       z     vdW  Elec       q    Type
REMARK                         _______ _______ _______ _____ _____    ______ ____
ROOT
ATOM      1  C   UNL     1      48.348   2.863  16.618  0.00  0.00    +0.000 C 
ATOM      2  C   UNL     1      47.465   4.101  16.432  0.00  0.00    +0.000 C 
ENDROOT
BRANCH   2   3
ATOM      3  C   UNL     1      47.051   4.368  14.997  0.00  0.00    +0.000 A 
ATOM      4  C   UNL     1      46.750   3.307  14.133  0.00  0.00    +0.000 A 
ATOM      5  C   UNL     1      46.242   3.565  12.861  0.00  0.00    +0.000 A 
ATOM      6  C   UNL     1      46.017   4.888  12.485  0.00  0.00    +0.000 A 
ATOM      7  N   UNL     1      46.375   5.933  13.268  0.00  0.00    +0.000 NA
ATOM      8  C   UNL     1      46.896   5.650  14.481  0.00  0.00    +0.000 A 
BRANCH   6   9
ATOM      9  C   UNL     1      45.248   5.217  11.218  0.00  0.00    +0.000 C 
BRANCH   9  10
ATOM     10  N   UNL     1      44.380   4.106  10.740  0.00  0.00    +0.000 NA
ATOM     11  C   UNL     1      43.056   4.161  11.377  0.00  0.00    +0.000 C 
BRANCH  10  12
ATOM     12  C   UNL     1      44.228   4.179   9.267  0.00  0.00    +0.000 C 
BRANCH  12  13
ATOM     13  C   UNL     1      45.224   3.322   8.510  0.00  0.00    +0.000 A 
ATOM     14  C   UNL     1      45.385   1.977   8.829  0.00  0.00    +0.000 A 
ATOM     15  N   UNL     1      46.333   1.193   8.260  0.00  0.00    +0.000 NA
ATOM     16  C   UNL     1      47.120   1.810   7.351  0.00  0.00    +0.000 A 
ATOM     17  C   UNL     1      46.958   3.142   7.012  0.00  0.00    +0.000 A 
ATOM     18  N   UNL     1      46.013   3.926   7.580  0.00  0.00    +0.000 NA
ENDBRANCH  12  13
ENDBRANCH  10  12
ENDBRANCH   9  10
ENDBRANCH   6   9
ENDBRANCH   2   3
BRANCH   2  19
ATOM     19  N   UNL     1      48.112   5.281  17.054  0.00  0.00    +0.000 N 
ATOM     20  C   UNL     1      49.446   5.654  16.594  0.00  0.00    +0.000 C 
ATOM     21  C   UNL     1      47.482   5.857  18.180  0.00  0.00    +0.000 C 
ATOM     22  O   UNL     1      46.396   5.455  18.571  0.00  0.00    +0.000 OA
BRANCH  21  23
ATOM     23  C   UNL     1      48.147   6.977  18.870  0.00  0.00    +0.000 A 
ATOM     24  C   UNL     1      47.978   8.320  18.573  0.00  0.00    +0.000 A 
ATOM     25  S   UNL     1      48.864   9.380  19.563  0.00  0.00    +0.000 S 
ATOM     26  C   UNL     1      49.409   8.091  20.516  0.00  0.00    +0.000 A 
ATOM     27  N   UNL     1      50.157   8.334  21.618  0.00  0.00    +0.000 NA
ATOM     28  C   UNL     1      50.480   7.274  22.275  0.00  0.00    +0.000 A 
ATOM     29  N   UNL     1      50.148   5.997  21.917  0.00  0.00    +0.000 N 
ATOM     30  C   UNL     1      49.484   5.683  20.743  0.00  0.00    +0.000 A 
ATOM     31  O   UNL     1      49.406   4.526  20.353  0.00  0.00    +0.000 OA
ATOM     32  C   UNL     1      49.005   6.858  20.032  0.00  0.00    +0.000 A 
ATOM     33  H   UNL     1      50.500   5.209  22.442  0.00  0.00    +0.000 HD
ENDBRANCH  21  23
ENDBRANCH   2  19
TORSDOF 7
ENDMDL
MODEL 5
REMARK VINA RESULT:    -6.591      3.654      8.079
REMARK INTER + INTRA:         -10.256
REMARK INTER:                  -8.816
REMARK INTRA:                  -1.440
REMARK UNBOUND:                -0.967
REMARK  Name = 
REMARK  10 active torsions:
REMARK  status: ('A' for Active; 'I' for Inactive)
REMARK    1  A    between atoms: C_1  and  C_2
REMARK    2  A    between atoms: C_2  and  C_3
REMARK    3  A    between atoms: C_2  and  N_19
REMARK    4  A    between atoms: C_6  and  C_7
REMARK    5  A    between atoms: C_7  and  N_8
REMARK    6  A    between atoms: N_8  and  C_9
REMARK    7  A    between atoms: N_8  and  C_10
REMARK    8  A    between atoms: C_10  and  C_11
REMARK    9  A    between atoms: N_19  and  C_20
REMARK   10  A    between atoms: C_21  and  C_23
REMARK                            x       y       z     vdW  Elec       q    Type
REMARK                         _______ _______ _______ _____ _____    ______ ____
ROOT
ATOM      1  C   UNL     1      50.552   9.563  12.587  0.00  0.00    +0.000 C 
ATOM      2  C   UNL     1      49.754   8.789  13.640  0.00  0.00    +0.000 C 
ENDROOT
BRANCH   2   3
ATOM      3  C   UNL     1      50.600   7.935  14.568  0.00  0.00    +0.000 A 
ATOM      4  C   UNL     1      51.975   8.168  14.693  0.00  0.00    +0.000 A 
ATOM      5  C   UNL     1      52.718   7.470  15.645  0.00  0.00    +0.000 A 
ATOM      6  C   UNL     1      52.059   6.567  16.477  0.00  0.00    +0.000 A 
ATOM      7  N   UNL     1      50.749   6.263  16.321  0.00  0.00    +0.000 NA
ATOM      8  C   UNL     1      50.065   6.932  15.369  0.00  0.00    +0.000 A 
BRANCH   6   9
ATOM      9  C   UNL     1      52.762   5.962  17.679  0.00  0.00    +0.000 C 
BRANCH   9  10
ATOM     10  N   UNL     1      52.935   4.486  17.590  0.00  0.00    +0.000 NA
ATOM     11  C   UNL     1      54.326   4.101  17.866  0.00  0.00    +0.000 C 
BRANCH  10  12
ATOM     12  C   UNL     1      52.030   3.810  18.550  0.00  0.00    +0.000 C 
BRANCH  12  13
ATOM     13  C   UNL     1      50.782   3.235  17.909  0.00  0.00    +0.000 A 
ATOM     14  C   UNL     1      50.873   2.177  17.009  0.00  0.00    +0.000 A 
ATOM     15  N   UNL     1      49.805   1.696  16.327  0.00  0.00    +0.000 NA
ATOM     16  C   UNL     1      48.633   2.317  16.580  0.00  0.00    +0.000 A 
ATOM     17  C   UNL     1      48.526   3.358  17.486  0.00  0.00    +0.000 A 
ATOM     18  N   UNL     1      49.591   3.840  18.168  0.00  0.00    +0.000 NA
ENDBRANCH  12  13
ENDBRANCH  10  12
ENDBRANCH   9  10
ENDBRANCH   6   9
ENDBRANCH   2   3
BRANCH   2  19
ATOM     19  N   UNL     1      48.680   8.004  12.985  0.00  0.00    +0.000 N 
ATOM     20  C   UNL     1      48.985   7.351  11.715  0.00  0.00    +0.000 C 
ATOM     21  C   UNL     1      47.380   8.090  13.530  0.00  0.00    +0.000 C 
ATOM     22  O   UNL     1      47.165   8.716  14.558  0.00  0.00    +0.000 OA
BRANCH  21  23
ATOM     23  C   UNL     1      46.277   7.389  12.847  0.00  0.00    +0.000 A 
ATOM     24  C   UNL     1      45.363   7.974  11.986  0.00  0.00    +0.000 A 
ATOM     25  S   UNL     1      44.219   6.900  11.333  0.00  0.00    +0.000 S 
ATOM     26  C   UNL     1      44.981   5.583  12.073  0.00  0.00    +0.000 A 
ATOM     27  N   UNL     1      44.538   4.325  11.837  0.00  0.00    +0.000 NA
ATOM     28  C   UNL     1      45.221   3.410  12.433  0.00  0.00    +0.000 A 
ATOM     29  N   UNL     1      46.284   3.637  13.261  0.00  0.00    +0.000 N 
ATOM     30  C   UNL     1      46.707   4.904  13.628  0.00  0.00    +0.000 A 
ATOM     31  O   UNL     1      47.509   5.062  14.538  0.00  0.00    +0.000 OA
ATOM     32  C   UNL     1      46.034   5.961  12.890  0.00  0.00    +0.000 A 
ATOM     33  H   UNL     1      46.726   2.873  13.752  0.00  0.00    +0.000 HD
ENDBRANCH  21  23
ENDBRANCH   2  19
TORSDOF 7
ENDMDL
MODEL 6
REMARK VINA RESULT:    -6.507      3.346      8.718
REMARK INTER + INTRA:         -10.137
REMARK INTER:                  -8.960
REMARK INTRA:                  -1.177
REMARK UNBOUND:                -0.967
REMARK  Name = 
REMARK  10 active torsions:
REMARK  status: ('A' for Active; 'I' for Inactive)
REMARK    1  A    between atoms: C_1  and  C_2
REMARK    2  A    between atoms: C_2  and  C_3
REMARK    3  A    between atoms: C_2  and  N_19
REMARK    4  A    between atoms: C_6  and  C_7
REMARK    5  A    between atoms: C_7  and  N_8
REMARK    6  A    between atoms: N_8  and  C_9
REMARK    7  A    between atoms: N_8  and  C_10
REMARK    8  A    between atoms: C_10  and  C_11
REMARK    9  A    between atoms: N_19  and  C_20
REMARK   10  A    between atoms: C_21  and  C_23
REMARK                            x       y       z     vdW  Elec       q    Type
REMARK                         _______ _______ _______ _____ _____    ______ ____
ROOT
ATOM      1  C   UNL     1      48.470   8.366  11.644  0.00  0.00    +0.000 C 
ATOM      2  C   UNL     1      47.633   8.092  12.897  0.00  0.00    +0.000 C 
ENDROOT
BRANCH   2   3
ATOM      3  C   UNL     1      48.394   8.232  14.203  0.00  0.00    +0.000 A 
ATOM      4  C   UNL     1      47.806   8.867  15.305  0.00  0.00    +0.000 A 
ATOM      5  C   UNL     1      48.458   8.872  16.537  0.00  0.00    +0.000 A 
ATOM      6  C   UNL     1      49.680   8.213  16.651  0.00  0.00    +0.000 A 
ATOM      7  N   UNL     1      50.308   7.664  15.584  0.00  0.00    +0.000 NA
ATOM      8  C   UNL     1      49.665   7.705  14.397  0.00  0.00    +0.000 A 
BRANCH   6   9
ATOM      9  C   UNL     1      50.315   7.979  18.010  0.00  0.00    +0.000 C 
BRANCH   9  10
ATOM     10  N   UNL     1      50.908   6.623  18.168  0.00  0.00    +0.000 NA
ATOM     11  C   UNL     1      52.197   6.689  18.870  0.00  0.00    +0.000 C 
BRANCH  10  12
ATOM     12  C   UNL     1      49.976   5.747  18.917  0.00  0.00    +0.000 C 
BRANCH  12  13
ATOM     13  C   UNL     1      49.193   4.794  18.034  0.00  0.00    +0.000 A 
ATOM     14  C   UNL     1      49.782   3.625  17.560  0.00  0.00    +0.000 A 
ATOM     15  N   UNL     1      49.167   2.794  16.683  0.00  0.00    +0.000 NA
ATOM     16  C   UNL     1      47.931   3.178  16.296  0.00  0.00    +0.000 A 
ATOM     17  C   UNL     1      47.328   4.328  16.775  0.00  0.00    +0.000 A 
ATOM     18  N   UNL     1      47.940   5.159  17.650  0.00  0.00    +0.000 NA
ENDBRANCH  12  13
ENDBRANCH  10  12
ENDBRANCH   9  10
ENDBRANCH   6   9
ENDBRANCH   2   3
BRANCH   2  19
ATOM     19  N   UNL     1      46.963   6.775  12.781  0.00  0.00    +0.000 N 
ATOM     20  C   UNL     1      47.731   5.582  13.128  0.00  0.00    +0.000 C 
ATOM     21  C   UNL     1      45.692   6.737  12.165  0.00  0.00    +0.000 C 
ATOM     22  O   UNL     1      45.125   7.765  11.823  0.00  0.00    +0.000 OA
BRANCH  21  23
ATOM     23  C   UNL     1      45.042   5.430  11.958  0.00  0.00    +0.000 A 
ATOM     24  C   UNL     1      44.290   4.749  12.901  0.00  0.00    +0.000 A 
ATOM     25  S   UNL     1      43.646   3.272  12.358  0.00  0.00    +0.000 S 
ATOM     26  C   UNL     1      44.238   3.548  10.796  0.00  0.00    +0.000 A 
ATOM     27  N   UNL     1      43.947   2.679   9.799  0.00  0.00    +0.000 NA
ATOM     28  C   UNL     1      44.428   3.017   8.654  0.00  0.00    +0.000 A 
ATOM     29  N   UNL     1      45.193   4.126   8.420  0.00  0.00    +0.000 N 
ATOM     30  C   UNL     1      45.616   4.984   9.421  0.00  0.00    +0.000 A 
ATOM     31  O   UNL     1      46.476   5.828   9.206  0.00  0.00    +0.000 OA
ATOM     32  C   UNL     1      45.003   4.700  10.708  0.00  0.00    +0.000 A 
ATOM     33  H   UNL     1      45.598   4.288   7.509  0.00  0.00    +0.000 HD
ENDBRANCH  21  23
ENDBRANCH   2  19
TORSDOF 7
ENDMDL
MODEL 7
REMARK VINA RESULT:    -6.370      2.328      4.039
REMARK INTER + INTRA:          -9.945
REMARK INTER:                  -8.650
REMARK INTRA:                  -1.295
REMARK UNBOUND:                -0.967
REMARK  Name = 
REMARK  10 active torsions:
REMARK  status: ('A' for Active; 'I' for Inactive)
REMARK    1  A    between atoms: C_1  and  C_2
REMARK    2  A    between atoms: C_2  and  C_3
REMARK    3  A    between atoms: C_2  and  N_19
REMARK    4  A    between atoms: C_6  and  C_7
REMARK    5  A    between atoms: C_7  and  N_8
REMARK    6  A    between atoms: N_8  and  C_9
REMARK    7  A    between atoms: N_8  and  C_10
REMARK    8  A    between atoms: C_10  and  C_11
REMARK    9  A    between atoms: N_19  and  C_20
REMARK   10  A    between atoms: C_21  and  C_23
REMARK                            x       y       z     vdW  Elec       q    Type
REMARK                         _______ _______ _______ _____ _____    ______ ____
ROOT
ATOM      1  C   UNL     1      50.098   3.748  17.586  0.00  0.00    +0.000 C 
ATOM      2  C   UNL     1      48.761   4.491  17.508  0.00  0.00    +0.000 C 
ENDROOT
BRANCH   2   3
ATOM      3  C   UNL     1      48.360   4.918  16.108  0.00  0.00    +0.000 A 
ATOM      4  C   UNL     1      47.386   4.206  15.397  0.00  0.00    +0.000 A 
ATOM      5  C   UNL     1      46.929   4.682  14.169  0.00  0.00    +0.000 A 
ATOM      6  C   UNL     1      47.439   5.886  13.687  0.00  0.00    +0.000 A 
ATOM      7  N   UNL     1      48.439   6.551  14.313  0.00  0.00    +0.000 NA
ATOM      8  C   UNL     1      48.883   6.046  15.483  0.00  0.00    +0.000 A 
BRANCH   6   9
ATOM      9  C   UNL     1      46.811   6.572  12.486  0.00  0.00    +0.000 C 
BRANCH   9  10
ATOM     10  N   UNL     1      45.495   7.202  12.778  0.00  0.00    +0.000 NA
ATOM     11  C   UNL     1      45.620   8.664  12.874  0.00  0.00    +0.000 C 
BRANCH  10  12
ATOM     12  C   UNL     1      44.519   6.854  11.718  0.00  0.00    +0.000 C 
BRANCH  12  13
ATOM     13  C   UNL     1      44.226   5.369  11.625  0.00  0.00    +0.000 A 
ATOM     14  C   UNL     1      44.277   4.714  10.398  0.00  0.00    +0.000 A 
ATOM     15  N   UNL     1      43.920   3.416  10.240  0.00  0.00    +0.000 NA
ATOM     16  C   UNL     1      43.507   2.792  11.365  0.00  0.00    +0.000 A 
ATOM     17  C   UNL     1      43.470   3.426  12.594  0.00  0.00    +0.000 A 
ATOM     18  N   UNL     1      43.825   4.722  12.753  0.00  0.00    +0.000 NA
ENDBRANCH  12  13
ENDBRANCH  10  12
ENDBRANCH   9  10
ENDBRANCH   6   9
ENDBRANCH   2   3
BRANCH   2  19
ATOM     19  N   UNL     1      48.757   5.628  18.460  0.00  0.00    +0.000 N 
ATOM     20  C   UNL     1      50.044   6.123  18.941  0.00  0.00    +0.000 C 
ATOM     21  C   UNL     1      47.513   6.039  18.986  0.00  0.00    +0.000 C 
ATOM     22  O   UNL     1      46.467   5.536  18.602  0.00  0.00    +0.000 OA
BRANCH  21  23
ATOM     23  C   UNL     1      47.489   7.109  20.000  0.00  0.00    +0.000 A 
ATOM     24  C   UNL     1      47.358   6.920  21.366  0.00  0.00    +0.000 A 
ATOM     25  S   UNL     1      47.391   8.350  22.284  0.00  0.00    +0.000 S 
ATOM     26  C   UNL     1      47.716   9.272  20.902  0.00  0.00    +0.000 A 
ATOM     27  N   UNL     1      47.951  10.600  21.015  0.00  0.00    +0.000 NA
ATOM     28  C   UNL     1      48.217  11.181  19.897  0.00  0.00    +0.000 A 
ATOM     29  N   UNL     1      48.242  10.563  18.677  0.00  0.00    +0.000 N 
ATOM     30  C   UNL     1      47.898   9.235  18.489  0.00  0.00    +0.000 A 
ATOM     31  O   UNL     1      47.717   8.783  17.367  0.00  0.00    +0.000 OA
ATOM     32  C   UNL     1      47.701   8.518  19.739  0.00  0.00    +0.000 A 
ATOM     33  H   UNL     1      48.386  11.098  17.833  0.00  0.00    +0.000 HD
ENDBRANCH  21  23
ENDBRANCH   2  19
TORSDOF 7
ENDMDL
MODEL 8
REMARK VINA RESULT:    -6.365      2.985      4.892
REMARK INTER + INTRA:          -9.937
REMARK INTER:                  -8.623
REMARK INTRA:                  -1.314
REMARK UNBOUND:                -0.967
REMARK  Name = 
REMARK  10 active torsions:
REMARK  status: ('A' for Active; 'I' for Inactive)
REMARK    1  A    between atoms: C_1  and  C_2
REMARK    2  A    between atoms: C_2  and  C_3
REMARK    3  A    between atoms: C_2  and  N_19
REMARK    4  A    between atoms: C_6  and  C_7
REMARK    5  A    between atoms: C_7  and  N_8
REMARK    6  A    between atoms: N_8  and  C_9
REMARK    7  A    between atoms: N_8  and  C_10
REMARK    8  A    between atoms: C_10  and  C_11
REMARK    9  A    between atoms: N_19  and  C_20
REMARK   10  A    between atoms: C_21  and  C_23
REMARK                            x       y       z     vdW  Elec       q    Type
REMARK                         _______ _______ _______ _____ _____    ______ ____
ROOT
ATOM      1  C   UNL     1      47.440   3.079  17.791  0.00  0.00    +0.000 C 
ATOM      2  C   UNL     1      48.162   4.400  17.508  0.00  0.00    +0.000 C 
ENDROOT
BRANCH   2   3
ATOM      3  C   UNL     1      47.963   4.936  16.102  0.00  0.00    +0.000 A 
ATOM      4  C   UNL     1      47.223   4.209  15.161  0.00  0.00    +0.000 A 
ATOM      5  C   UNL     1      46.932   4.769  13.917  0.00  0.00    +0.000 A 
ATOM      6  C   UNL     1      47.366   6.065  13.649  0.00  0.00    +0.000 A 
ATOM      7  N   UNL     1      48.151   6.757  14.508  0.00  0.00    +0.000 NA
ATOM      8  C   UNL     1      48.443   6.174  15.690  0.00  0.00    +0.000 A 
BRANCH   6   9
ATOM      9  C   UNL     1      46.878   6.811  12.420  0.00  0.00    +0.000 C 
BRANCH   9  10
ATOM     10  N   UNL     1      45.530   7.420  12.586  0.00  0.00    +0.000 NA
ATOM     11  C   UNL     1      45.607   8.888  12.549  0.00  0.00    +0.000 C 
BRANCH  10  12
ATOM     12  C   UNL     1      44.621   6.941  11.517  0.00  0.00    +0.000 C 
BRANCH  12  13
ATOM     13  C   UNL     1      44.154   5.511  11.711  0.00  0.00    +0.000 A 
ATOM     14  C   UNL     1      43.663   5.090  12.943  0.00  0.00    +0.000 A 
ATOM     15  N   UNL     1      43.334   3.801  13.202  0.00  0.00    +0.000 NA
ATOM     16  C   UNL     1      43.515   2.942  12.175  0.00  0.00    +0.000 A 
ATOM     17  C   UNL     1      43.985   3.353  10.940  0.00  0.00    +0.000 A 
ATOM     18  N   UNL     1      44.315   4.639  10.679  0.00  0.00    +0.000 NA
ENDBRANCH  12  13
ENDBRANCH  10  12
ENDBRANCH   9  10
ENDBRANCH   6   9
ENDBRANCH   2   3
BRANCH   2  19
ATOM     19  N   UNL     1      49.597   4.277  17.859  0.00  0.00    +0.000 N 
ATOM     20  C   UNL     1      50.299   3.061  17.457  0.00  0.00    +0.000 C 
ATOM     21  C   UNL     1      50.148   5.252  18.720  0.00  0.00    +0.000 C 
ATOM     22  O   UNL     1      49.490   6.214  19.089  0.00  0.00    +0.000 OA
BRANCH  21  23
ATOM     23  C   UNL     1      51.549   5.105  19.154  0.00  0.00    +0.000 A 
ATOM     24  C   UNL     1      51.963   4.620  20.384  0.00  0.00    +0.000 A 
ATOM     25  S   UNL     1      53.650   4.545  20.583  0.00  0.00    +0.000 S 
ATOM     26  C   UNL     1      53.896   5.035  18.981  0.00  0.00    +0.000 A 
ATOM     27  N   UNL     1      55.151   5.087  18.475  0.00  0.00    +0.000 NA
ATOM     28  C   UNL     1      55.202   5.442  17.239  0.00  0.00    +0.000 A 
ATOM     29  N   UNL     1      54.119   5.775  16.472  0.00  0.00    +0.000 N 
ATOM     30  C   UNL     1      52.829   5.850  16.968  0.00  0.00    +0.000 A 
ATOM     31  O   UNL     1      51.931   6.364  16.315  0.00  0.00    +0.000 OA
ATOM     32  C   UNL     1      52.715   5.349  18.329  0.00  0.00    +0.000 A 
ATOM     33  H   UNL     1      54.243   6.115  15.529  0.00  0.00    +0.000 HD
ENDBRANCH  21  23
ENDBRANCH   2  19
TORSDOF 7
ENDMDL
MODEL 9
REMARK VINA RESULT:    -6.096      2.035      3.353
REMARK INTER + INTRA:          -9.558
REMARK INTER:                  -8.448
REMARK INTRA:                  -1.110
REMARK UNBOUND:                -0.967
REMARK  Name = 
REMARK  10 active torsions:
REMARK  status: ('A' for Active; 'I' for Inactive)
REMARK    1  A    between atoms: C_1  and  C_2
REMARK    2  A    between atoms: C_2  and  C_3
REMARK    3  A    between atoms: C_2  and  N_19
REMARK    4  A    between atoms: C_6  and  C_7
REMARK    5  A    between atoms: C_7  and  N_8
REMARK    6  A    between atoms: N_8  and  C_9
REMARK    7  A    between atoms: N_8  and  C_10
REMARK    8  A    between atoms: C_10  and  C_11
REMARK    9  A    between atoms: N_19  and  C_20
REMARK   10  A    between atoms: C_21  and  C_23
REMARK                            x       y       z     vdW  Elec       q    Type
REMARK                         _______ _______ _______ _____ _____    ______ ____
ROOT
ATOM      1  C   UNL     1      48.472   2.466  16.886  0.00  0.00    +0.000 C 
ATOM      2  C   UNL     1      47.784   3.834  16.929  0.00  0.00    +0.000 C 
ENDROOT
BRANCH   2   3
ATOM      3  C   UNL     1      47.668   4.522  15.581  0.00  0.00    +0.000 A 
ATOM      4  C   UNL     1      46.948   3.926  14.537  0.00  0.00    +0.000 A 
ATOM      5  C   UNL     1      46.734   4.624  13.350  0.00  0.00    +0.000 A 
ATOM      6  C   UNL     1      47.222   5.924  13.240  0.00  0.00    +0.000 A 
ATOM      7  N   UNL     1      47.990   6.492  14.200  0.00  0.00    +0.000 NA
ATOM      8  C   UNL     1      48.207   5.777  15.324  0.00  0.00    +0.000 A 
BRANCH   6   9
ATOM      9  C   UNL     1      46.817   6.812  12.077  0.00  0.00    +0.000 C 
BRANCH   9  10
ATOM     10  N   UNL     1      45.535   6.409  11.436  0.00  0.00    +0.000 NA
ATOM     11  C   UNL     1      44.551   7.499  11.495  0.00  0.00    +0.000 C 
BRANCH  10  12
ATOM     12  C   UNL     1      45.773   6.029  10.022  0.00  0.00    +0.000 C 
BRANCH  12  13
ATOM     13  C   UNL     1      45.243   4.653   9.665  0.00  0.00    +0.000 A 
ATOM     14  C   UNL     1      44.379   3.984  10.526  0.00  0.00    +0.000 A 
ATOM     15  N   UNL     1      43.961   2.713  10.309  0.00  0.00    +0.000 NA
ATOM     16  C   UNL     1      44.444   2.132   9.189  0.00  0.00    +0.000 A 
ATOM     17  C   UNL     1      45.290   2.793   8.316  0.00  0.00    +0.000 A 
ATOM     18  N   UNL     1      45.708   4.062   8.531  0.00  0.00    +0.000 NA
ENDBRANCH  12  13
ENDBRANCH  10  12
ENDBRANCH   9  10
ENDBRANCH   6   9
ENDBRANCH   2   3
BRANCH   2  19
ATOM     19  N   UNL     1      48.439   4.698  17.941  0.00  0.00    +0.000 N 
ATOM     20  C   UNL     1      49.883   4.574  18.116  0.00  0.00    +0.000 C 
ATOM     21  C   UNL     1      47.606   5.448  18.801  0.00  0.00    +0.000 C 
ATOM     22  O   UNL     1      46.392   5.456  18.657  0.00  0.00    +0.000 OA
BRANCH  21  23
ATOM     23  C   UNL     1      48.228   6.248  19.871  0.00  0.00    +0.000 A 
ATOM     24  C   UNL     1      48.460   5.815  21.167  0.00  0.00    +0.000 A 
ATOM     25  S   UNL     1      49.218   6.960  22.169  0.00  0.00    +0.000 S 
ATOM     26  C   UNL     1      49.388   8.035  20.873  0.00  0.00    +0.000 A 
ATOM     27  N   UNL     1      50.054   9.201  21.044  0.00  0.00    +0.000 NA
ATOM     28  C   UNL     1      50.142   9.915  19.976  0.00  0.00    +0.000 A 
ATOM     29  N   UNL     1      49.603   9.584  18.764  0.00  0.00    +0.000 N 
ATOM     30  C   UNL     1      48.816   8.463  18.561  0.00  0.00    +0.000 A 
ATOM     31  O   UNL     1      48.174   8.322  17.529  0.00  0.00    +0.000 OA
ATOM     32  C   UNL     1      48.787   7.575  19.712  0.00  0.00    +0.000 A 
ATOM     33  H   UNL     1      49.650  10.229  17.988  0.00  0.00    +0.000 HD
ENDBRANCH  21  23
ENDBRANCH   2  19
TORSDOF 7
ENDMDL
