MODEL 1
REMARK VINA RESULT:    -8.107      0.000      0.000
REMARK INTER + INTRA:         -12.290
REMARK INTER:                 -11.424
REMARK INTRA:                  -0.866
REMARK UNBOUND:                -0.866
REMARK  Name = 
REMARK  10 active torsions:
REMARK  status: ('A' for Active; 'I' for Inactive)
REMARK    1  A    between atoms: C_1  and  C_2
REMARK    2  A    between atoms: C_7  and  C_8
REMARK    3  A    between atoms: N_10  and  C_11
REMARK    4  A    between atoms: C_11  and  C_12
REMARK    5  A    between atoms: C_15  and  N_16
REMARK    6  A    between atoms: N_16  and  N_17
REMARK    7  A    between atoms: N_17  and  C_18
REMARK    8  A    between atoms: N_17  and  C_19
REMARK    9  A    between atoms: C_19  and  C_20
REMARK   10  A    between atoms: N_29  and  C_30
REMARK                            x       y       z     vdW  Elec       q    Type
REMARK                         _______ _______ _______ _____ _____    ______ ____
ROOT
ATOM      1  C   UNL     1      49.167   6.770  16.034  0.00  0.00    +0.000 C 
ATOM      2  O   UNL     1      50.293   6.535  15.592  0.00  0.00    +0.000 OA
ATOM      3  N   UNL     1      48.126   7.148  15.214  0.00  0.00    +0.000 N 
ATOM      4  H   UNL     1      47.188   7.241  15.595  0.00  0.00    +0.000 HD
ENDROOT
BRANCH   1  11
ATOM      5  C   UNL     1      46.791   9.456  21.811  0.00  0.00    +0.000 C 
ATOM      6  C   UNL     1      47.304   8.753  20.592  0.00  0.00    +0.000 A 
ATOM      7  N   UNL     1      47.311   9.463  19.443  0.00  0.00    +0.000 NA
ATOM      8  C   UNL     1      47.800   8.898  18.325  0.00  0.00    +0.000 A 
ATOM      9  N   UNL     1      47.839   9.706  17.192  0.00  0.00    +0.000 N 
ATOM     10  C   UNL     1      48.274   7.580  18.371  0.00  0.00    +0.000 A 
ATOM     11  C   UNL     1      48.861   6.645  17.454  0.00  0.00    +0.000 A 
ATOM     12  C   UNL     1      49.168   5.511  18.199  0.00  0.00    +0.000 A 
ATOM     13  N   UNL     1      48.758   5.710  19.490  0.00  0.00    +0.000 N 
ATOM     14  C   UNL     1      48.895   4.764  20.574  0.00  0.00    +0.000 C 
ATOM     15  C   UNL     1      48.217   6.964  19.613  0.00  0.00    +0.000 A 
ATOM     16  N   UNL     1      47.745   7.493  20.753  0.00  0.00    +0.000 NA
ATOM     17  H   UNL     1      47.637  10.658  17.479  0.00  0.00    +0.000 HD
ATOM     18  H   UNL     1      48.715   9.613  16.687  0.00  0.00    +0.000 HD
ENDBRANCH   1  11
BRANCH   3  19
ATOM     19  C   UNL     1      48.335   7.284  13.795  0.00  0.00    +0.000 C 
BRANCH  19  20
ATOM     20  C   UNL     1      47.414   6.434  12.959  0.00  0.00    +0.000 A 
ATOM     21  C   UNL     1      46.947   5.208  13.445  0.00  0.00    +0.000 A 
ATOM     22  C   UNL     1      45.964   4.496  12.750  0.00  0.00    +0.000 A 
ATOM     23  C   UNL     1      45.436   4.977  11.547  0.00  0.00    +0.000 A 
ATOM     24  C   UNL     1      45.983   6.145  11.008  0.00  0.00    +0.000 A 
ATOM     25  C   UNL     1      46.949   6.877  11.713  0.00  0.00    +0.000 A 
BRANCH  23  26
ATOM     26  N   UNL     1      44.404   4.303  10.828  0.00  0.00    +0.000 N 
ATOM     27  H   UNL     1      44.361   4.710   9.892  0.00  0.00    +0.000 HD
BRANCH  26  28
ATOM     28  N   UNL     1      44.419   2.874  10.877  0.00  0.00    +0.000 NA
ATOM     29  C   UNL     1      43.233   2.464  11.648  0.00  0.00    +0.000 C 
BRANCH  28  30
ATOM     30  C   UNL     1      44.361   2.278   9.526  0.00  0.00    +0.000 C 
BRANCH  30  31
ATOM     31  C   UNL     1      45.676   2.419   8.724  0.00  0.00    +0.000 C 
ATOM     32  C   UNL     1      45.542   3.511   7.647  0.00  0.00    +0.000 C 
ATOM     33  C   UNL     1      46.853   3.685   6.878  0.00  0.00    +0.000 C 
ATOM     34  C   UNL     1      47.318   2.373   6.254  0.00  0.00    +0.000 C 
ATOM     35  C   UNL     1      47.415   1.263   7.291  0.00  0.00    +0.000 C 
ATOM     36  C   UNL     1      46.108   1.099   8.064  0.00  0.00    +0.000 C 
ENDBRANCH  30  31
ENDBRANCH  28  30
ENDBRANCH  26  28
ENDBRANCH  23  26
ENDBRANCH  19  20
ENDBRANCH   3  19
TORSDOF 7
ENDMDL
MODEL 2
REMARK VINA RESULT:    -7.901      0.973      2.284
REMARK INTER + INTRA:         -12.000
REMARK INTER:                 -10.792
REMARK INTRA:                  -1.208
REMARK UNBOUND:                -0.866
REMARK  Name = 
REMARK  10 active torsions:
REMARK  status: ('A' for Active; 'I' for Inactive)
REMARK    1  A    between atoms: C_1  and  C_2
REMARK    2  A    between atoms: C_7  and  C_8
REMARK    3  A    between atoms: N_10  and  C_11
REMARK    4  A    between atoms: C_11  and  C_12
REMARK    5  A    between atoms: C_15  and  N_16
REMARK    6  A    between atoms: N_16  and  N_17
REMARK    7  A    between atoms: N_17  and  C_18
REMARK    8  A    between atoms: N_17  and  C_19
REMARK    9  A    between atoms: C_19  and  C_20
REMARK   10  A    between atoms: N_29  and  C_30
REMARK                            x       y       z     vdW  Elec       q    Type
REMARK                         _______ _______ _______ _____ _____    ______ ____
ROOT
ATOM      1  C   UNL     1      48.862   7.395  15.522  0.00  0.00    +0.000 C 
ATOM      2  O   UNL     1      49.814   6.658  15.262  0.00  0.00    +0.000 OA
ATOM      3  N   UNL     1      48.010   7.859  14.543  0.00  0.00    +0.000 N 
ATOM      4  H   UNL     1      47.179   8.386  14.800  0.00  0.00    +0.000 HD
ENDROOT
BRANCH   1  11
ATOM      5  C   UNL     1      47.458   5.820  21.987  0.00  0.00    +0.000 C 
ATOM      6  C   UNL     1      47.793   6.283  20.601  0.00  0.00    +0.000 A 
ATOM      7  N   UNL     1      48.018   5.320  19.681  0.00  0.00    +0.000 NA
ATOM      8  C   UNL     1      48.281   5.674  18.411  0.00  0.00    +0.000 A 
ATOM      9  N   UNL     1      48.437   4.633  17.500  0.00  0.00    +0.000 N 
ATOM     10  C   UNL     1      48.336   7.033  18.073  0.00  0.00    +0.000 A 
ATOM     11  C   UNL     1      48.565   7.809  16.888  0.00  0.00    +0.000 A 
ATOM     12  C   UNL     1      48.399   9.140  17.258  0.00  0.00    +0.000 A 
ATOM     13  N   UNL     1      48.128   9.192  18.599  0.00  0.00    +0.000 N 
ATOM     14  C   UNL     1      47.894  10.394  19.367  0.00  0.00    +0.000 C 
ATOM     15  C   UNL     1      48.080   7.920  19.108  0.00  0.00    +0.000 A 
ATOM     16  N   UNL     1      47.807   7.609  20.386  0.00  0.00    +0.000 NA
ATOM     17  H   UNL     1      48.147   3.773  17.954  0.00  0.00    +0.000 HD
ATOM     18  H   UNL     1      47.952   4.814  16.627  0.00  0.00    +0.000 HD
ENDBRANCH   1  11
BRANCH   3  19
ATOM     19  C   UNL     1      48.220   7.489  13.166  0.00  0.00    +0.000 C 
BRANCH  19  20
ATOM     20  C   UNL     1      47.062   6.750  12.550  0.00  0.00    +0.000 A 
ATOM     21  C   UNL     1      46.823   6.831  11.173  0.00  0.00    +0.000 A 
ATOM     22  C   UNL     1      45.857   6.018  10.570  0.00  0.00    +0.000 A 
ATOM     23  C   UNL     1      45.093   5.120  11.325  0.00  0.00    +0.000 A 
ATOM     24  C   UNL     1      45.256   5.122  12.714  0.00  0.00    +0.000 A 
ATOM     25  C   UNL     1      46.241   5.914  13.319  0.00  0.00    +0.000 A 
BRANCH  23  26
ATOM     26  N   UNL     1      44.127   4.245  10.744  0.00  0.00    +0.000 N 
ATOM     27  H   UNL     1      43.914   4.596   9.809  0.00  0.00    +0.000 HD
BRANCH  26  28
ATOM     28  N   UNL     1      44.400   2.845  10.828  0.00  0.00    +0.000 NA
ATOM     29  C   UNL     1      43.336   2.254  11.657  0.00  0.00    +0.000 C 
BRANCH  28  30
ATOM     30  C   UNL     1      44.403   2.205   9.496  0.00  0.00    +0.000 C 
BRANCH  30  31
ATOM     31  C   UNL     1      45.721   2.401   8.711  0.00  0.00    +0.000 C 
ATOM     32  C   UNL     1      45.567   3.513   7.658  0.00  0.00    +0.000 C 
ATOM     33  C   UNL     1      46.881   3.741   6.907  0.00  0.00    +0.000 C 
ATOM     34  C   UNL     1      47.388   2.457   6.258  0.00  0.00    +0.000 C 
ATOM     35  C   UNL     1      47.505   1.326   7.271  0.00  0.00    +0.000 C 
ATOM     36  C   UNL     1      46.196   1.109   8.026  0.00  0.00    +0.000 C 
ENDBRANCH  30  31
ENDBRANCH  28  30
ENDBRANCH  26  28
ENDBRANCH  23  26
ENDBRANCH  19  20
ENDBRANCH   3  19
TORSDOF 7
ENDMDL
MODEL 3
REMARK VINA RESULT:    -7.434      2.384      3.606
REMARK INTER + INTRA:         -11.342
REMARK INTER:                 -10.299
REMARK INTRA:                  -1.043
REMARK UNBOUND:                -0.866
REMARK  Name = 
REMARK  10 active torsions:
REMARK  status: ('A' for Active; 'I' for Inactive)
REMARK    1  A    between atoms: C_1  and  C_2
REMARK    2  A    between atoms: C_7  and  C_8
REMARK    3  A    between atoms: N_10  and  C_11
REMARK    4  A    between atoms: C_11  and  C_12
REMARK    5  A    between atoms: C_15  and  N_16
REMARK    6  A    between atoms: N_16  and  N_17
REMARK    7  A    between atoms: N_17  and  C_18
REMARK    8  A    between atoms: N_17  and  C_19
REMARK    9  A    between atoms: C_19  and  C_20
REMARK   10  A    between atoms: N_29  and  C_30
REMARK                            x       y       z     vdW  Elec       q    Type
REMARK                         _______ _______ _______ _____ _____    ______ ____
ROOT
ATOM      1  C   UNL     1      49.285   7.441  15.667  0.00  0.00    +0.000 C 
ATOM      2  O   UNL     1      48.518   7.912  16.508  0.00  0.00    +0.000 OA
ATOM      3  N   UNL     1      48.964   7.404  14.328  0.00  0.00    +0.000 N 
ATOM      4  H   UNL     1      49.655   7.098  13.648  0.00  0.00    +0.000 HD
ENDROOT
BRANCH   1  11
ATOM      5  C   UNL     1      53.113   3.374  19.545  0.00  0.00    +0.000 C 
ATOM      6  C   UNL     1      52.366   4.278  18.613  0.00  0.00    +0.000 A 
ATOM      7  N   UNL     1      51.024   4.323  18.761  0.00  0.00    +0.000 NA
ATOM      8  C   UNL     1      50.306   5.150  17.981  0.00  0.00    +0.000 A 
ATOM      9  N   UNL     1      48.936   5.196  18.229  0.00  0.00    +0.000 N 
ATOM     10  C   UNL     1      50.960   5.932  17.020  0.00  0.00    +0.000 A 
ATOM     11  C   UNL     1      50.591   6.908  16.035  0.00  0.00    +0.000 A 
ATOM     12  C   UNL     1      51.779   7.349  15.462  0.00  0.00    +0.000 A 
ATOM     13  N   UNL     1      52.820   6.659  16.022  0.00  0.00    +0.000 N 
ATOM     14  C   UNL     1      54.217   6.824  15.692  0.00  0.00    +0.000 C 
ATOM     15  C   UNL     1      52.340   5.797  16.975  0.00  0.00    +0.000 A 
ATOM     16  N   UNL     1      53.096   4.992  17.738  0.00  0.00    +0.000 NA
ATOM     17  H   UNL     1      48.758   4.701  19.097  0.00  0.00    +0.000 HD
ATOM     18  H   UNL     1      48.580   6.147  18.225  0.00  0.00    +0.000 HD
ENDBRANCH   1  11
BRANCH   3  19
ATOM     19  C   UNL     1      47.698   7.921  13.872  0.00  0.00    +0.000 C 
BRANCH  19  20
ATOM     20  C   UNL     1      46.915   6.955  13.023  0.00  0.00    +0.000 A 
ATOM     21  C   UNL     1      46.625   5.670  13.498  0.00  0.00    +0.000 A 
ATOM     22  C   UNL     1      45.758   4.830  12.791  0.00  0.00    +0.000 A 
ATOM     23  C   UNL     1      45.175   5.240  11.586  0.00  0.00    +0.000 A 
ATOM     24  C   UNL     1      45.553   6.478  11.059  0.00  0.00    +0.000 A 
ATOM     25  C   UNL     1      46.399   7.335  11.776  0.00  0.00    +0.000 A 
BRANCH  23  26
ATOM     26  N   UNL     1      44.255   4.430  10.855  0.00  0.00    +0.000 N 
ATOM     27  H   UNL     1      44.185   4.816   9.912  0.00  0.00    +0.000 HD
BRANCH  26  28
ATOM     28  N   UNL     1      44.451   3.016  10.928  0.00  0.00    +0.000 NA
ATOM     29  C   UNL     1      43.371   2.482  11.776  0.00  0.00    +0.000 C 
BRANCH  28  30
ATOM     30  C   UNL     1      44.391   2.383   9.594  0.00  0.00    +0.000 C 
BRANCH  30  31
ATOM     31  C   UNL     1      45.696   2.525   8.776  0.00  0.00    +0.000 C 
ATOM     32  C   UNL     1      45.535   3.586   7.673  0.00  0.00    +0.000 C 
ATOM     33  C   UNL     1      46.837   3.762   6.888  0.00  0.00    +0.000 C 
ATOM     34  C   UNL     1      47.317   2.441   6.293  0.00  0.00    +0.000 C 
ATOM     35  C   UNL     1      47.441   1.360   7.358  0.00  0.00    +0.000 C 
ATOM     36  C   UNL     1      46.144   1.196   8.146  0.00  0.00    +0.000 C 
ENDBRANCH  30  31
ENDBRANCH  28  30
ENDBRANCH  26  28
ENDBRANCH  23  26
ENDBRANCH  19  20
ENDBRANCH   3  19
TORSDOF 7
ENDMDL
MODEL 4
REMARK VINA RESULT:    -6.926      3.323      9.142
REMARK INTER + INTRA:         -10.626
REMARK INTER:                  -8.693
REMARK INTRA:                  -1.933
REMARK UNBOUND:                -0.866
REMARK  Name = 
REMARK  10 active torsions:
REMARK  status: ('A' for Active; 'I' for Inactive)
REMARK    1  A    between atoms: C_1  and  C_2
REMARK    2  A    between atoms: C_7  and  C_8
REMARK    3  A    between atoms: N_10  and  C_11
REMARK    4  A    between atoms: C_11  and  C_12
REMARK    5  A    between atoms: C_15  and  N_16
REMARK    6  A    between atoms: N_16  and  N_17
REMARK    7  A    between atoms: N_17  and  C_18
REMARK    8  A    between atoms: N_17  and  C_19
REMARK    9  A    between atoms: C_19  and  C_20
REMARK   10  A    between atoms: N_29  and  C_30
REMARK                            x       y       z     vdW  Elec       q    Type
REMARK                         _______ _______ _______ _____ _____    ______ ____
ROOT
ATOM      1  C   UNL     1      46.791   4.193  14.151  0.00  0.00    +0.000 C 
ATOM      2  O   UNL     1      47.693   3.511  13.663  0.00  0.00    +0.000 OA
ATOM      3  N   UNL     1      46.575   4.249  15.511  0.00  0.00    +0.000 N 
ATOM      4  H   UNL     1      45.886   4.894  15.890  0.00  0.00    +0.000 HD
ENDROOT
BRANCH   1  11
ATOM      5  C   UNL     1      44.977  10.226  11.592  0.00  0.00    +0.000 C 
ATOM      6  C   UNL     1      45.305   8.844  12.069  0.00  0.00    +0.000 A 
ATOM      7  N   UNL     1      46.380   8.723  12.879  0.00  0.00    +0.000 NA
ATOM      8  C   UNL     1      46.697   7.514  13.372  0.00  0.00    +0.000 A 
ATOM      9  N   UNL     1      47.776   7.470  14.252  0.00  0.00    +0.000 N 
ATOM     10  C   UNL     1      45.920   6.402  13.023  0.00  0.00    +0.000 A 
ATOM     11  C   UNL     1      45.905   4.998  13.321  0.00  0.00    +0.000 A 
ATOM     12  C   UNL     1      44.785   4.478  12.678  0.00  0.00    +0.000 A 
ATOM     13  N   UNL     1      44.168   5.485  11.987  0.00  0.00    +0.000 N 
ATOM     14  C   UNL     1      42.971   5.349  11.188  0.00  0.00    +0.000 C 
ATOM     15  C   UNL     1      44.841   6.662  12.189  0.00  0.00    +0.000 A 
ATOM     16  N   UNL     1      44.485   7.852  11.681  0.00  0.00    +0.000 NA
ATOM     17  H   UNL     1      48.023   8.425  14.492  0.00  0.00    +0.000 HD
ATOM     18  H   UNL     1      47.585   6.886  15.060  0.00  0.00    +0.000 HD
ENDBRANCH   1  11
BRANCH   3  19
ATOM     19  C   UNL     1      47.413   3.495  16.409  0.00  0.00    +0.000 C 
BRANCH  19  20
ATOM     20  C   UNL     1      47.685   4.191  17.717  0.00  0.00    +0.000 A 
ATOM     21  C   UNL     1      48.400   3.540  18.729  0.00  0.00    +0.000 A 
ATOM     22  C   UNL     1      48.801   4.235  19.875  0.00  0.00    +0.000 A 
ATOM     23  C   UNL     1      48.486   5.587  20.050  0.00  0.00    +0.000 A 
ATOM     24  C   UNL     1      47.678   6.205  19.090  0.00  0.00    +0.000 A 
ATOM     25  C   UNL     1      47.296   5.521  17.927  0.00  0.00    +0.000 A 
BRANCH  23  26
ATOM     26  N   UNL     1      48.910   6.343  21.183  0.00  0.00    +0.000 N 
ATOM     27  H   UNL     1      49.280   5.685  21.873  0.00  0.00    +0.000 HD
BRANCH  26  28
ATOM     28  N   UNL     1      49.731   7.484  20.921  0.00  0.00    +0.000 NA
ATOM     29  C   UNL     1      49.740   8.291  22.152  0.00  0.00    +0.000 C 
BRANCH  28  30
ATOM     30  C   UNL     1      51.114   7.097  20.572  0.00  0.00    +0.000 C 
BRANCH  30  31
ATOM     31  C   UNL     1      51.453   7.276  19.073  0.00  0.00    +0.000 C 
ATOM     32  C   UNL     1      50.428   8.198  18.388  0.00  0.00    +0.000 C 
ATOM     33  C   UNL     1      50.783   8.413  16.916  0.00  0.00    +0.000 C 
ATOM     34  C   UNL     1      50.897   7.089  16.165  0.00  0.00    +0.000 C 
ATOM     35  C   UNL     1      51.872   6.140  16.849  0.00  0.00    +0.000 C 
ATOM     36  C   UNL     1      51.521   5.937  18.320  0.00  0.00    +0.000 C 
ENDBRANCH  30  31
ENDBRANCH  28  30
ENDBRANCH  26  28
ENDBRANCH  23  26
ENDBRANCH  19  20
ENDBRANCH   3  19
TORSDOF 7
ENDMDL
MODEL 5
REMARK VINA RESULT:    -6.906      2.879      9.120
REMARK INTER + INTRA:         -10.598
REMARK INTER:                  -8.405
REMARK INTRA:                  -2.193
REMARK UNBOUND:                -0.866
REMARK  Name = 
REMARK  10 active torsions:
REMARK  status: ('A' for Active; 'I' for Inactive)
REMARK    1  A    between atoms: C_1  and  C_2
REMARK    2  A    between atoms: C_7  and  C_8
REMARK    3  A    between atoms: N_10  and  C_11
REMARK    4  A    between atoms: C_11  and  C_12
REMARK    5  A    between atoms: C_15  and  N_16
REMARK    6  A    between atoms: N_16  and  N_17
REMARK    7  A    between atoms: N_17  and  C_18
REMARK    8  A    between atoms: N_17  and  C_19
REMARK    9  A    between atoms: C_19  and  C_20
REMARK   10  A    between atoms: N_29  and  C_30
REMARK                            x       y       z     vdW  Elec       q    Type
REMARK                         _______ _______ _______ _____ _____    ______ ____
ROOT
ATOM      1  C   UNL     1      47.893   6.968  13.689  0.00  0.00    +0.000 C 
ATOM      2  O   UNL     1      48.727   6.095  13.931  0.00  0.00    +0.000 OA
ATOM      3  N   UNL     1      48.104   8.289  14.021  0.00  0.00    +0.000 N 
ATOM      4  H   UNL     1      47.441   9.000  13.722  0.00  0.00    +0.000 HD
ENDROOT
BRANCH   1  11
ATOM      5  C   UNL     1      43.209   2.449  11.722  0.00  0.00    +0.000 C 
ATOM      6  C   UNL     1      44.157   3.534  12.132  0.00  0.00    +0.000 A 
ATOM      7  N   UNL     1      45.241   3.152  12.843  0.00  0.00    +0.000 NA
ATOM      8  C   UNL     1      46.149   4.076  13.202  0.00  0.00    +0.000 A 
ATOM      9  N   UNL     1      47.273   3.606  13.876  0.00  0.00    +0.000 N 
ATOM     10  C   UNL     1      45.944   5.416  12.849  0.00  0.00    +0.000 A 
ATOM     11  C   UNL     1      46.637   6.662  13.016  0.00  0.00    +0.000 A 
ATOM     12  C   UNL     1      45.888   7.617  12.336  0.00  0.00    +0.000 A 
ATOM     13  N   UNL     1      44.775   7.013  11.816  0.00  0.00    +0.000 N 
ATOM     14  C   UNL     1      43.743   7.667  11.043  0.00  0.00    +0.000 C 
ATOM     15  C   UNL     1      44.796   5.675  12.114  0.00  0.00    +0.000 A 
ATOM     16  N   UNL     1      43.869   4.783  11.729  0.00  0.00    +0.000 NA
ATOM     17  H   UNL     1      47.272   2.593  13.819  0.00  0.00    +0.000 HD
ATOM     18  H   UNL     1      48.129   4.030  13.531  0.00  0.00    +0.000 HD
ENDBRANCH   1  11
BRANCH   3  19
ATOM     19  C   UNL     1      49.324   8.685  14.677  0.00  0.00    +0.000 C 
BRANCH  19  20
ATOM     20  C   UNL     1      49.229   8.708  16.180  0.00  0.00    +0.000 A 
ATOM     21  C   UNL     1      48.100   9.243  16.810  0.00  0.00    +0.000 A 
ATOM     22  C   UNL     1      47.930   9.115  18.192  0.00  0.00    +0.000 A 
ATOM     23  C   UNL     1      48.887   8.469  18.983  0.00  0.00    +0.000 A 
ATOM     24  C   UNL     1      50.065   8.035  18.368  0.00  0.00    +0.000 A 
ATOM     25  C   UNL     1      50.228   8.135  16.980  0.00  0.00    +0.000 A 
BRANCH  23  26
ATOM     26  N   UNL     1      48.732   8.282  20.389  0.00  0.00    +0.000 N 
ATOM     27  H   UNL     1      47.782   8.563  20.637  0.00  0.00    +0.000 HD
BRANCH  26  28
ATOM     28  N   UNL     1      49.159   7.024  20.917  0.00  0.00    +0.000 NA
ATOM     29  C   UNL     1      49.640   7.279  22.285  0.00  0.00    +0.000 C 
BRANCH  28  30
ATOM     30  C   UNL     1      48.054   6.042  20.957  0.00  0.00    +0.000 C 
BRANCH  30  31
ATOM     31  C   UNL     1      48.092   5.011  19.805  0.00  0.00    +0.000 C 
ATOM     32  C   UNL     1      49.540   4.757  19.348  0.00  0.00    +0.000 C 
ATOM     33  C   UNL     1      49.588   3.706  18.238  0.00  0.00    +0.000 C 
ATOM     34  C   UNL     1      48.715   4.101  17.051  0.00  0.00    +0.000 C 
ATOM     35  C   UNL     1      47.286   4.403  17.483  0.00  0.00    +0.000 C 
ATOM     36  C   UNL     1      47.244   5.444  18.598  0.00  0.00    +0.000 C 
ENDBRANCH  30  31
ENDBRANCH  28  30
ENDBRANCH  26  28
ENDBRANCH  23  26
ENDBRANCH  19  20
ENDBRANCH   3  19
TORSDOF 7
ENDMDL
MODEL 6
REMARK VINA RESULT:    -6.892      1.582      2.850
REMARK INTER + INTRA:         -10.578
REMARK INTER:                  -9.621
REMARK INTRA:                  -0.957
REMARK UNBOUND:                -0.866
REMARK  Name = 
REMARK  10 active torsions:
REMARK  status: ('A' for Active; 'I' for Inactive)
REMARK    1  A    between atoms: C_1  and  C_2
REMARK    2  A    between atoms: C_7  and  C_8
REMARK    3  A    between atoms: N_10  and  C_11
REMARK    4  A    between atoms: C_11  and  C_12
REMARK    5  A    between atoms: C_15  and  N_16
REMARK    6  A    between atoms: N_16  and  N_17
REMARK    7  A    between atoms: N_17  and  C_18
REMARK    8  A    between atoms: N_17  and  C_19
REMARK    9  A    between atoms: C_19  and  C_20
REMARK   10  A    between atoms: N_29  and  C_30
REMARK                            x       y       z     vdW  Elec       q    Type
REMARK                         _______ _______ _______ _____ _____    ______ ____
ROOT
ATOM      1  C   UNL     1      50.353   7.492  15.848  0.00  0.00    +0.000 C 
ATOM      2  O   UNL     1      51.467   7.269  15.373  0.00  0.00    +0.000 OA
ATOM      3  N   UNL     1      49.230   7.595  15.055  0.00  0.00    +0.000 N 
ATOM      4  H   UNL     1      48.312   7.684  15.484  0.00  0.00    +0.000 HD
ENDROOT
BRANCH   1  11
ATOM      5  C   UNL     1      50.989   5.093  22.178  0.00  0.00    +0.000 C 
ATOM      6  C   UNL     1      50.826   5.733  20.833  0.00  0.00    +0.000 A 
ATOM      7  N   UNL     1      51.294   5.039  19.773  0.00  0.00    +0.000 NA
ATOM      8  C   UNL     1      51.138   5.544  18.537  0.00  0.00    +0.000 A 
ATOM      9  N   UNL     1      51.583   4.749  17.485  0.00  0.00    +0.000 N 
ATOM     10  C   UNL     1      50.511   6.787  18.375  0.00  0.00    +0.000 A 
ATOM     11  C   UNL     1      50.149   7.644  17.283  0.00  0.00    +0.000 A 
ATOM     12  C   UNL     1      49.468   8.720  17.843  0.00  0.00    +0.000 A 
ATOM     13  N   UNL     1      49.446   8.566  19.203  0.00  0.00    +0.000 N 
ATOM     14  C   UNL     1      48.835   9.475  20.146  0.00  0.00    +0.000 C 
ATOM     15  C   UNL     1      50.071   7.394  19.543  0.00  0.00    +0.000 A 
ATOM     16  N   UNL     1      50.199   6.922  20.794  0.00  0.00    +0.000 NA
ATOM     17  H   UNL     1      51.799   3.829  17.857  0.00  0.00    +0.000 HD
ATOM     18  H   UNL     1      50.922   4.729  16.715  0.00  0.00    +0.000 HD
ENDBRANCH   1  11
BRANCH   3  19
ATOM     19  C   UNL     1      49.336   7.445  13.626  0.00  0.00    +0.000 C 
BRANCH  19  20
ATOM     20  C   UNL     1      48.154   6.756  12.996  0.00  0.00    +0.000 A 
ATOM     21  C   UNL     1      47.506   5.711  13.663  0.00  0.00    +0.000 A 
ATOM     22  C   UNL     1      46.311   5.181  13.164  0.00  0.00    +0.000 A 
ATOM     23  C   UNL     1      45.743   5.666  11.981  0.00  0.00    +0.000 A 
ATOM     24  C   UNL     1      46.450   6.632  11.258  0.00  0.00    +0.000 A 
ATOM     25  C   UNL     1      47.633   7.185  11.768  0.00  0.00    +0.000 A 
BRANCH  23  26
ATOM     26  N   UNL     1      44.506   5.182  11.459  0.00  0.00    +0.000 N 
ATOM     27  H   UNL     1      44.100   5.923  10.886  0.00  0.00    +0.000 HD
BRANCH  26  28
ATOM     28  N   UNL     1      44.529   3.884  10.860  0.00  0.00    +0.000 NA
ATOM     29  C   UNL     1      43.754   2.996  11.742  0.00  0.00    +0.000 C 
BRANCH  28  30
ATOM     30  C   UNL     1      43.926   3.891   9.511  0.00  0.00    +0.000 C 
BRANCH  30  31
ATOM     31  C   UNL     1      44.806   3.222   8.429  0.00  0.00    +0.000 C 
ATOM     32  C   UNL     1      45.400   1.902   8.950  0.00  0.00    +0.000 C 
ATOM     33  C   UNL     1      46.237   1.213   7.870  0.00  0.00    +0.000 C 
ATOM     34  C   UNL     1      47.341   2.127   7.346  0.00  0.00    +0.000 C 
ATOM     35  C   UNL     1      46.784   3.460   6.866  0.00  0.00    +0.000 C 
ATOM     36  C   UNL     1      45.941   4.138   7.943  0.00  0.00    +0.000 C 
ENDBRANCH  30  31
ENDBRANCH  28  30
ENDBRANCH  26  28
ENDBRANCH  23  26
ENDBRANCH  19  20
ENDBRANCH   3  19
TORSDOF 7
ENDMDL
MODEL 7
REMARK VINA RESULT:    -6.891      2.917      4.668
REMARK INTER + INTRA:         -10.577
REMARK INTER:                  -9.841
REMARK INTRA:                  -0.736
REMARK UNBOUND:                -0.866
REMARK  Name = 
REMARK  10 active torsions:
REMARK  status: ('A' for Active; 'I' for Inactive)
REMARK    1  A    between atoms: C_1  and  C_2
REMARK    2  A    between atoms: C_7  and  C_8
REMARK    3  A    between atoms: N_10  and  C_11
REMARK    4  A    between atoms: C_11  and  C_12
REMARK    5  A    between atoms: C_15  and  N_16
REMARK    6  A    between atoms: N_16  and  N_17
REMARK    7  A    between atoms: N_17  and  C_18
REMARK    8  A    between atoms: N_17  and  C_19
REMARK    9  A    between atoms: C_19  and  C_20
REMARK   10  A    between atoms: N_29  and  C_30
REMARK                            x       y       z     vdW  Elec       q    Type
REMARK                         _______ _______ _______ _____ _____    ______ ____
ROOT
ATOM      1  C   UNL     1      49.942   6.428  17.134  0.00  0.00    +0.000 C 
ATOM      2  O   UNL     1      48.976   6.441  17.899  0.00  0.00    +0.000 OA
ATOM      3  N   UNL     1      49.995   7.229  16.014  0.00  0.00    +0.000 N 
ATOM      4  H   UNL     1      50.845   7.266  15.456  0.00  0.00    +0.000 HD
ENDROOT
BRANCH   1  11
ATOM      5  C   UNL     1      52.643   0.241  17.945  0.00  0.00    +0.000 C 
ATOM      6  C   UNL     1      52.163   1.647  17.749  0.00  0.00    +0.000 A 
ATOM      7  N   UNL     1      50.846   1.806  17.495  0.00  0.00    +0.000 NA
ATOM      8  C   UNL     1      50.350   3.047  17.353  0.00  0.00    +0.000 A 
ATOM      9  N   UNL     1      48.975   3.143  17.158  0.00  0.00    +0.000 N 
ATOM     10  C   UNL     1      51.212   4.148  17.451  0.00  0.00    +0.000 A 
ATOM     11  C   UNL     1      51.099   5.577  17.378  0.00  0.00    +0.000 A 
ATOM     12  C   UNL     1      52.369   6.080  17.645  0.00  0.00    +0.000 A 
ATOM     13  N   UNL     1      53.227   5.030  17.830  0.00  0.00    +0.000 N 
ATOM     14  C   UNL     1      54.638   5.136  18.126  0.00  0.00    +0.000 C 
ATOM     15  C   UNL     1      52.540   3.849  17.721  0.00  0.00    +0.000 A 
ATOM     16  N   UNL     1      53.074   2.627  17.878  0.00  0.00    +0.000 NA
ATOM     17  H   UNL     1      48.569   2.230  17.334  0.00  0.00    +0.000 HD
ATOM     18  H   UNL     1      48.562   3.884  17.716  0.00  0.00    +0.000 HD
ENDBRANCH   1  11
BRANCH   3  19
ATOM     19  C   UNL     1      48.900   8.112  15.702  0.00  0.00    +0.000 C 
BRANCH  19  20
ATOM     20  C   UNL     1      48.149   7.735  14.453  0.00  0.00    +0.000 A 
ATOM     21  C   UNL     1      48.363   6.492  13.846  0.00  0.00    +0.000 A 
ATOM     22  C   UNL     1      47.551   6.068  12.789  0.00  0.00    +0.000 A 
ATOM     23  C   UNL     1      46.521   6.877  12.297  0.00  0.00    +0.000 A 
ATOM     24  C   UNL     1      46.381   8.163  12.830  0.00  0.00    +0.000 A 
ATOM     25  C   UNL     1      47.173   8.582  13.908  0.00  0.00    +0.000 A 
BRANCH  23  26
ATOM     26  N   UNL     1      45.645   6.467  11.248  0.00  0.00    +0.000 N 
ATOM     27  H   UNL     1      46.142   6.588  10.364  0.00  0.00    +0.000 HD
BRANCH  26  28
ATOM     28  N   UNL     1      44.991   5.207  11.418  0.00  0.00    +0.000 NA
ATOM     29  C   UNL     1      44.346   5.239  12.741  0.00  0.00    +0.000 C 
BRANCH  28  30
ATOM     30  C   UNL     1      43.970   4.973  10.376  0.00  0.00    +0.000 C 
BRANCH  30  31
ATOM     31  C   UNL     1      44.413   3.978   9.278  0.00  0.00    +0.000 C 
ATOM     32  C   UNL     1      44.753   2.607   9.890  0.00  0.00    +0.000 C 
ATOM     33  C   UNL     1      45.150   1.606   8.804  0.00  0.00    +0.000 C 
ATOM     34  C   UNL     1      46.317   2.120   7.965  0.00  0.00    +0.000 C 
ATOM     35  C   UNL     1      46.025   3.497   7.384  0.00  0.00    +0.000 C 
ATOM     36  C   UNL     1      45.617   4.490   8.469  0.00  0.00    +0.000 C 
ENDBRANCH  30  31
ENDBRANCH  28  30
ENDBRANCH  26  28
ENDBRANCH  23  26
ENDBRANCH  19  20
ENDBRANCH   3  19
TORSDOF 7
ENDMDL
MODEL 8
REMARK VINA RESULT:    -6.849      2.287      3.464
REMARK INTER + INTRA:         -10.518
REMARK INTER:                  -9.561
REMARK INTRA:                  -0.956
REMARK UNBOUND:                -0.866
REMARK  Name = 
REMARK  10 active torsions:
REMARK  status: ('A' for Active; 'I' for Inactive)
REMARK    1  A    between atoms: C_1  and  C_2
REMARK    2  A    between atoms: C_7  and  C_8
REMARK    3  A    between atoms: N_10  and  C_11
REMARK    4  A    between atoms: C_11  and  C_12
REMARK    5  A    between atoms: C_15  and  N_16
REMARK    6  A    between atoms: N_16  and  N_17
REMARK    7  A    between atoms: N_17  and  C_18
REMARK    8  A    between atoms: N_17  and  C_19
REMARK    9  A    between atoms: C_19  and  C_20
REMARK   10  A    between atoms: N_29  and  C_30
REMARK                            x       y       z     vdW  Elec       q    Type
REMARK                         _______ _______ _______ _____ _____    ______ ____
ROOT
ATOM      1  C   UNL     1      49.493   9.006  13.777  0.00  0.00    +0.000 C 
ATOM      2  O   UNL     1      49.515  10.178  13.400  0.00  0.00    +0.000 OA
ATOM      3  N   UNL     1      48.451   8.160  13.468  0.00  0.00    +0.000 N 
ATOM      4  H   UNL     1      48.507   7.174  13.711  0.00  0.00    +0.000 HD
ENDROOT
BRANCH   1  11
ATOM      5  C   UNL     1      51.752   6.131  19.511  0.00  0.00    +0.000 C 
ATOM      6  C   UNL     1      51.359   6.725  18.192  0.00  0.00    +0.000 A 
ATOM      7  N   UNL     1      50.059   7.060  18.044  0.00  0.00    +0.000 NA
ATOM      8  C   UNL     1      49.656   7.637  16.899  0.00  0.00    +0.000 A 
ATOM      9  N   UNL     1      48.318   8.016  16.837  0.00  0.00    +0.000 N 
ATOM     10  C   UNL     1      50.587   7.861  15.876  0.00  0.00    +0.000 A 
ATOM     11  C   UNL     1      50.581   8.433  14.560  0.00  0.00    +0.000 A 
ATOM     12  C   UNL     1      51.900   8.402  14.118  0.00  0.00    +0.000 A 
ATOM     13  N   UNL     1      52.672   7.808  15.080  0.00  0.00    +0.000 N 
ATOM     14  C   UNL     1      54.098   7.584  14.998  0.00  0.00    +0.000 C 
ATOM     15  C   UNL     1      51.891   7.478  16.157  0.00  0.00    +0.000 A 
ATOM     16  N   UNL     1      52.337   6.907  17.288  0.00  0.00    +0.000 NA
ATOM     17  H   UNL     1      47.925   7.932  17.769  0.00  0.00    +0.000 HD
ATOM     18  H   UNL     1      48.201   8.939  16.430  0.00  0.00    +0.000 HD
ENDBRANCH   1  11
BRANCH   3  19
ATOM     19  C   UNL     1      47.338   8.637  12.686  0.00  0.00    +0.000 C 
BRANCH  19  20
ATOM     20  C   UNL     1      46.368   7.558  12.283  0.00  0.00    +0.000 A 
ATOM     21  C   UNL     1      45.074   7.889  11.865  0.00  0.00    +0.000 A 
ATOM     22  C   UNL     1      44.228   6.911  11.332  0.00  0.00    +0.000 A 
ATOM     23  C   UNL     1      44.641   5.579  11.219  0.00  0.00    +0.000 A 
ATOM     24  C   UNL     1      45.891   5.230  11.739  0.00  0.00    +0.000 A 
ATOM     25  C   UNL     1      46.754   6.210  12.249  0.00  0.00    +0.000 A 
BRANCH  23  26
ATOM     26  N   UNL     1      43.824   4.560  10.644  0.00  0.00    +0.000 N 
ATOM     27  H   UNL     1      43.633   4.825   9.676  0.00  0.00    +0.000 HD
BRANCH  26  28
ATOM     28  N   UNL     1      44.253   3.211  10.840  0.00  0.00    +0.000 NA
ATOM     29  C   UNL     1      43.301   2.595  11.780  0.00  0.00    +0.000 C 
BRANCH  28  30
ATOM     30  C   UNL     1      44.261   2.448   9.574  0.00  0.00    +0.000 C 
BRANCH  30  31
ATOM     31  C   UNL     1      45.600   2.526   8.805  0.00  0.00    +0.000 C 
ATOM     32  C   UNL     1      45.540   3.611   7.714  0.00  0.00    +0.000 C 
ATOM     33  C   UNL     1      46.877   3.722   6.979  0.00  0.00    +0.000 C 
ATOM     34  C   UNL     1      47.303   2.385   6.380  0.00  0.00    +0.000 C 
ATOM     35  C   UNL     1      47.326   1.283   7.430  0.00  0.00    +0.000 C 
ATOM     36  C   UNL     1      45.994   1.182   8.169  0.00  0.00    +0.000 C 
ENDBRANCH  30  31
ENDBRANCH  28  30
ENDBRANCH  26  28
ENDBRANCH  23  26
ENDBRANCH  19  20
ENDBRANCH   3  19
TORSDOF 7
ENDMDL
MODEL 9
REMARK VINA RESULT:    -6.523      3.683      5.890
REMARK INTER + INTRA:         -10.058
REMARK INTER:                  -9.165
REMARK INTRA:                  -0.894
REMARK UNBOUND:                -0.866
REMARK  Name = 
REMARK  10 active torsions:
REMARK  status: ('A' for Active; 'I' for Inactive)
REMARK    1  A    between atoms: C_1  and  C_2
REMARK    2  A    between atoms: C_7  and  C_8
REMARK    3  A    between atoms: N_10  and  C_11
REMARK    4  A    between atoms: C_11  and  C_12
REMARK    5  A    between atoms: C_15  and  N_16
REMARK    6  A    between atoms: N_16  and  N_17
REMARK    7  A    between atoms: N_17  and  C_18
REMARK    8  A    between atoms: N_17  and  C_19
REMARK    9  A    between atoms: C_19  and  C_20
REMARK   10  A    between atoms: N_29  and  C_30
REMARK                            x       y       z     vdW  Elec       q    Type
REMARK                         _______ _______ _______ _____ _____    ______ ____
ROOT
ATOM      1  C   UNL     1      49.929   8.253  14.350  0.00  0.00    +0.000 C 
ATOM      2  O   UNL     1      49.761   7.493  15.304  0.00  0.00    +0.000 OA
ATOM      3  N   UNL     1      48.875   8.889  13.730  0.00  0.00    +0.000 N 
ATOM      4  H   UNL     1      49.054   9.584  13.009  0.00  0.00    +0.000 HD
ENDROOT
BRANCH   1  11
ATOM      5  C   UNL     1      54.302   8.463   9.147  0.00  0.00    +0.000 C 
ATOM      6  C   UNL     1      53.417   8.491  10.356  0.00  0.00    +0.000 A 
ATOM      7  N   UNL     1      52.139   8.091  10.178  0.00  0.00    +0.000 NA
ATOM      8  C   UNL     1      51.310   8.053  11.236  0.00  0.00    +0.000 A 
ATOM      9  N   UNL     1      50.026   7.570  10.996  0.00  0.00    +0.000 N 
ATOM     10  C   UNL     1      51.782   8.446  12.495  0.00  0.00    +0.000 A 
ATOM     11  C   UNL     1      51.258   8.544  13.827  0.00  0.00    +0.000 A 
ATOM     12  C   UNL     1      52.318   8.948  14.632  0.00  0.00    +0.000 A 
ATOM     13  N   UNL     1      53.422   9.135  13.844  0.00  0.00    +0.000 N 
ATOM     14  C   UNL     1      54.725   9.558  14.304  0.00  0.00    +0.000 C 
ATOM     15  C   UNL     1      53.115   8.829  12.544  0.00  0.00    +0.000 A 
ATOM     16  N   UNL     1      53.978   8.874  11.515  0.00  0.00    +0.000 NA
ATOM     17  H   UNL     1      50.012   7.166  10.065  0.00  0.00    +0.000 HD
ATOM     18  H   UNL     1      49.719   6.928  11.720  0.00  0.00    +0.000 HD
ENDBRANCH   1  11
BRANCH   3  19
ATOM     19  C   UNL     1      47.526   8.671  14.189  0.00  0.00    +0.000 C 
BRANCH  19  20
ATOM     20  C   UNL     1      46.697   7.821  13.263  0.00  0.00    +0.000 A 
ATOM     21  C   UNL     1      45.647   8.387  12.532  0.00  0.00    +0.000 A 
ATOM     22  C   UNL     1      44.984   7.645  11.549  0.00  0.00    +0.000 A 
ATOM     23  C   UNL     1      45.337   6.318  11.282  0.00  0.00    +0.000 A 
ATOM     24  C   UNL     1      46.310   5.720  12.090  0.00  0.00    +0.000 A 
ATOM     25  C   UNL     1      46.997   6.466  13.057  0.00  0.00    +0.000 A 
BRANCH  23  26
ATOM     26  N   UNL     1      44.715   5.540  10.261  0.00  0.00    +0.000 N 
ATOM     27  H   UNL     1      45.222   5.708   9.391  0.00  0.00    +0.000 HD
BRANCH  26  28
ATOM     28  N   UNL     1      44.459   4.167  10.569  0.00  0.00    +0.000 NA
ATOM     29  C   UNL     1      43.236   4.137  11.389  0.00  0.00    +0.000 C 
BRANCH  28  30
ATOM     30  C   UNL     1      44.256   3.359   9.349  0.00  0.00    +0.000 C 
BRANCH  30  31
ATOM     31  C   UNL     1      45.572   2.885   8.687  0.00  0.00    +0.000 C 
ATOM     32  C   UNL     1      45.830   3.652   7.377  0.00  0.00    +0.000 C 
ATOM     33  C   UNL     1      47.151   3.218   6.740  0.00  0.00    +0.000 C 
ATOM     34  C   UNL     1      47.189   1.712   6.495  0.00  0.00    +0.000 C 
ATOM     35  C   UNL     1      46.891   0.930   7.766  0.00  0.00    +0.000 C 
ATOM     36  C   UNL     1      45.578   1.373   8.405  0.00  0.00    +0.000 C 
ENDBRANCH  30  31
ENDBRANCH  28  30
ENDBRANCH  26  28
ENDBRANCH  23  26
ENDBRANCH  19  20
ENDBRANCH   3  19
TORSDOF 7
ENDMDL
