MODEL 1
REMARK VINA RESULT:    -8.510      0.000      0.000
REMARK INTER + INTRA:         -13.442
REMARK INTER:                 -12.241
REMARK INTRA:                  -1.201
REMARK UNBOUND:                -1.201
REMARK  Name = 
REMARK  8 active torsions:
REMARK  status: ('A' for Active; 'I' for Inactive)
REMARK    1  A    between atoms: N_1  and  C_2
REMARK    2  A    between atoms: C_2  and  C_3
REMARK    3  A    between atoms: C_2  and  C_24
REMARK    4  A    between atoms: C_3  and  C_4
REMARK    5  A    between atoms: C_8  and  C_9
REMARK    6  A    between atoms: C_9  and  N_10
REMARK    7  A    between atoms: C_11  and  C_13
REMARK    8  A    between atoms: C_24  and  C_26
REMARK                            x       y       z     vdW  Elec       q    Type
REMARK                         _______ _______ _______ _____ _____    ______ ____
ROOT
ATOM      1  C   UNL     1      45.102   5.068  11.483  0.00  0.00    +0.000 A 
ATOM      2  C   UNL     1      45.343   6.438  11.593  0.00  0.00    +0.000 A 
ATOM      3  C   UNL     1      46.081   6.903  12.669  0.00  0.00    +0.000 A 
ATOM      4  N   UNL     1      46.604   6.103  13.622  0.00  0.00    +0.000 NA
ATOM      5  C   UNL     1      46.361   4.772  13.514  0.00  0.00    +0.000 A 
ATOM      6  C   UNL     1      45.599   4.225  12.481  0.00  0.00    +0.000 A 
ENDROOT
BRANCH   1   7
ATOM      7  C   UNL     1      44.327   4.509  10.313  0.00  0.00    +0.000 C 
BRANCH   7   8
ATOM      8  C   UNL     1      45.017   3.337   9.594  0.00  0.00    +0.000 C 
BRANCH   8   9
ATOM      9  N   UNL     1      44.019   2.360   9.075  0.00  0.00    +0.000 NA
ATOM     10  H   UNL     1      44.447   1.435   9.073  0.00  0.00    +0.000 HD
ATOM     11  H   UNL     1      43.871   2.578   8.085  0.00  0.00    +0.000 HD
ENDBRANCH   8   9
BRANCH   8  12
ATOM     12  C   UNL     1      45.818   3.886   8.397  0.00  0.00    +0.000 C 
ATOM     13  O   UNL     1      45.985   5.097   8.228  0.00  0.00    +0.000 OA
BRANCH  12  14
ATOM     14  C   UNL     1      46.405   2.910   7.432  0.00  0.00    +0.000 A 
ATOM     15  C   UNL     1      46.660   3.301   6.120  0.00  0.00    +0.000 A 
ATOM     16  C   UNL     1      47.162   2.353   5.232  0.00  0.00    +0.000 A 
ATOM     17  C   UNL     1      47.390   1.057   5.681  0.00  0.00    +0.000 A 
ATOM     18  C   UNL     1      47.118   0.761   7.008  0.00  0.00    +0.000 A 
ATOM     19  N   UNL     1      46.634   1.659   7.896  0.00  0.00    +0.000 NA
ENDBRANCH  12  14
ENDBRANCH   8  12
ENDBRANCH   7   8
ENDBRANCH   1   7
BRANCH   5  20
ATOM     20  C   UNL     1      46.951   3.881  14.577  0.00  0.00    +0.000 C 
BRANCH  20  21
ATOM     21  N   UNL     1      47.393   4.627  15.730  0.00  0.00    +0.000 N 
ATOM     22  C   UNL     1      47.162   4.208  17.010  0.00  0.00    +0.000 C 
ATOM     23  O   UNL     1      46.562   3.166  17.262  0.00  0.00    +0.000 OA
ATOM     24  H   UNL     1      47.653   5.593  15.551  0.00  0.00    +0.000 HD
BRANCH  22  25
ATOM     25  C   UNL     1      47.745   5.030  18.080  0.00  0.00    +0.000 A 
ATOM     26  C   UNL     1      46.909   5.758  18.919  0.00  0.00    +0.000 A 
ATOM     27  S   UNL     1      47.737   6.604  20.147  0.00  0.00    +0.000 S 
ATOM     28  C   UNL     1      49.246   6.064  19.576  0.00  0.00    +0.000 A 
ATOM     29  N   UNL     1      50.400   6.447  20.186  0.00  0.00    +0.000 NA
ATOM     30  C   UNL     1      51.473   5.991  19.630  0.00  0.00    +0.000 A 
ATOM     31  N   UNL     1      51.497   5.182  18.525  0.00  0.00    +0.000 N 
ATOM     32  C   UNL     1      50.356   4.727  17.907  0.00  0.00    +0.000 A 
ATOM     33  O   UNL     1      50.411   3.937  16.975  0.00  0.00    +0.000 OA
ATOM     34  C   UNL     1      49.120   5.236  18.475  0.00  0.00    +0.000 A 
ATOM     35  H   UNL     1      52.368   4.843  18.147  0.00  0.00    +0.000 HD
ENDBRANCH  22  25
ENDBRANCH  20  21
ENDBRANCH   5  20
TORSDOF 8
ENDMDL
MODEL 2
REMARK VINA RESULT:    -8.441      2.237      3.325
REMARK INTER + INTRA:         -13.344
REMARK INTER:                 -11.837
REMARK INTRA:                  -1.507
REMARK UNBOUND:                -1.201
REMARK  Name = 
REMARK  8 active torsions:
REMARK  status: ('A' for Active; 'I' for Inactive)
REMARK    1  A    between atoms: N_1  and  C_2
REMARK    2  A    between atoms: C_2  and  C_3
REMARK    3  A    between atoms: C_2  and  C_24
REMARK    4  A    between atoms: C_3  and  C_4
REMARK    5  A    between atoms: C_8  and  C_9
REMARK    6  A    between atoms: C_9  and  N_10
REMARK    7  A    between atoms: C_11  and  C_13
REMARK    8  A    between atoms: C_24  and  C_26
REMARK                            x       y       z     vdW  Elec       q    Type
REMARK                         _______ _______ _______ _____ _____    ______ ____
ROOT
ATOM      1  C   UNL     1      44.614   6.342  12.247  0.00  0.00    +0.000 A 
ATOM      2  C   UNL     1      43.924   7.210  11.400  0.00  0.00    +0.000 A 
ATOM      3  C   UNL     1      44.367   8.516  11.275  0.00  0.00    +0.000 A 
ATOM      4  N   UNL     1      45.451   9.005  11.915  0.00  0.00    +0.000 NA
ATOM      5  C   UNL     1      46.115   8.158  12.742  0.00  0.00    +0.000 A 
ATOM      6  C   UNL     1      45.715   6.838  12.951  0.00  0.00    +0.000 A 
ENDROOT
BRANCH   1   7
ATOM      7  C   UNL     1      44.186   4.900  12.394  0.00  0.00    +0.000 C 
BRANCH   7   8
ATOM      8  C   UNL     1      45.168   3.880  11.792  0.00  0.00    +0.000 C 
BRANCH   8   9
ATOM      9  N   UNL     1      45.540   2.837  12.788  0.00  0.00    +0.000 NA
ATOM     10  H   UNL     1      45.392   3.218  13.721  0.00  0.00    +0.000 HD
ATOM     11  H   UNL     1      46.554   2.703  12.721  0.00  0.00    +0.000 HD
ENDBRANCH   8   9
BRANCH   8  12
ATOM     12  C   UNL     1      44.492   3.182  10.595  0.00  0.00    +0.000 C 
ATOM     13  O   UNL     1      43.331   2.766  10.656  0.00  0.00    +0.000 OA
BRANCH  12  14
ATOM     14  C   UNL     1      45.276   3.021   9.336  0.00  0.00    +0.000 A 
ATOM     15  C   UNL     1      45.520   4.128   8.525  0.00  0.00    +0.000 A 
ATOM     16  C   UNL     1      46.213   3.935   7.333  0.00  0.00    +0.000 A 
ATOM     17  C   UNL     1      46.636   2.655   6.993  0.00  0.00    +0.000 A 
ATOM     18  C   UNL     1      46.360   1.616   7.867  0.00  0.00    +0.000 A 
ATOM     19  N   UNL     1      45.694   1.770   9.034  0.00  0.00    +0.000 NA
ENDBRANCH  12  14
ENDBRANCH   8  12
ENDBRANCH   7   8
ENDBRANCH   1   7
BRANCH   5  20
ATOM     20  C   UNL     1      47.327   8.706  13.452  0.00  0.00    +0.000 C 
BRANCH  20  21
ATOM     21  N   UNL     1      47.655   7.950  14.635  0.00  0.00    +0.000 N 
ATOM     22  C   UNL     1      48.597   6.960  14.638  0.00  0.00    +0.000 C 
ATOM     23  O   UNL     1      49.228   6.650  13.630  0.00  0.00    +0.000 OA
ATOM     24  H   UNL     1      46.980   8.011  15.392  0.00  0.00    +0.000 HD
BRANCH  22  25
ATOM     25  C   UNL     1      48.882   6.335  15.938  0.00  0.00    +0.000 A 
ATOM     26  C   UNL     1      49.813   6.918  16.789  0.00  0.00    +0.000 A 
ATOM     27  S   UNL     1      49.979   6.110  18.281  0.00  0.00    +0.000 S 
ATOM     28  C   UNL     1      48.846   4.924  17.827  0.00  0.00    +0.000 A 
ATOM     29  N   UNL     1      48.531   3.901  18.667  0.00  0.00    +0.000 NA
ATOM     30  C   UNL     1      47.682   3.056  18.182  0.00  0.00    +0.000 A 
ATOM     31  N   UNL     1      47.115   3.146  16.939  0.00  0.00    +0.000 N 
ATOM     32  C   UNL     1      47.361   4.189  16.078  0.00  0.00    +0.000 A 
ATOM     33  O   UNL     1      46.772   4.282  15.010  0.00  0.00    +0.000 OA
ATOM     34  C   UNL     1      48.334   5.152  16.562  0.00  0.00    +0.000 A 
ATOM     35  H   UNL     1      46.443   2.462  16.624  0.00  0.00    +0.000 HD
ENDBRANCH  22  25
ENDBRANCH  20  21
ENDBRANCH   5  20
TORSDOF 8
ENDMDL
MODEL 3
REMARK VINA RESULT:    -8.362      2.105      2.604
REMARK INTER + INTRA:         -13.230
REMARK INTER:                 -12.103
REMARK INTRA:                  -1.126
REMARK UNBOUND:                -1.201
REMARK  Name = 
REMARK  8 active torsions:
REMARK  status: ('A' for Active; 'I' for Inactive)
REMARK    1  A    between atoms: N_1  and  C_2
REMARK    2  A    between atoms: C_2  and  C_3
REMARK    3  A    between atoms: C_2  and  C_24
REMARK    4  A    between atoms: C_3  and  C_4
REMARK    5  A    between atoms: C_8  and  C_9
REMARK    6  A    between atoms: C_9  and  N_10
REMARK    7  A    between atoms: C_11  and  C_13
REMARK    8  A    between atoms: C_24  and  C_26
REMARK                            x       y       z     vdW  Elec       q    Type
REMARK                         _______ _______ _______ _____ _____    ______ ____
ROOT
ATOM      1  C   UNL     1      45.966   5.292  12.196  0.00  0.00    +0.000 A 
ATOM      2  C   UNL     1      46.949   6.249  11.939  0.00  0.00    +0.000 A 
ATOM      3  C   UNL     1      47.883   6.529  12.922  0.00  0.00    +0.000 A 
ATOM      4  N   UNL     1      47.916   5.913  14.123  0.00  0.00    +0.000 NA
ATOM      5  C   UNL     1      46.954   4.988  14.370  0.00  0.00    +0.000 A 
ATOM      6  C   UNL     1      45.956   4.672  13.448  0.00  0.00    +0.000 A 
ENDROOT
BRANCH   1   7
ATOM      7  C   UNL     1      44.942   4.932  11.144  0.00  0.00    +0.000 C 
BRANCH   7   8
ATOM      8  C   UNL     1      45.112   3.524  10.547  0.00  0.00    +0.000 C 
BRANCH   8   9
ATOM      9  N   UNL     1      44.070   2.592  11.060  0.00  0.00    +0.000 NA
ATOM     10  H   UNL     1      43.472   2.319  10.281  0.00  0.00    +0.000 HD
ATOM     11  H   UNL     1      43.458   3.133  11.679  0.00  0.00    +0.000 HD
ENDBRANCH   8   9
BRANCH   8  12
ATOM     12  C   UNL     1      44.965   3.611   9.015  0.00  0.00    +0.000 C 
ATOM     13  O   UNL     1      44.135   4.354   8.482  0.00  0.00    +0.000 OA
BRANCH  12  14
ATOM     14  C   UNL     1      45.865   2.772   8.171  0.00  0.00    +0.000 A 
ATOM     15  C   UNL     1      46.518   3.338   7.079  0.00  0.00    +0.000 A 
ATOM     16  C   UNL     1      47.312   2.516   6.282  0.00  0.00    +0.000 A 
ATOM     17  C   UNL     1      47.426   1.168   6.601  0.00  0.00    +0.000 A 
ATOM     18  C   UNL     1      46.749   0.694   7.714  0.00  0.00    +0.000 A 
ATOM     19  N   UNL     1      45.974   1.466   8.510  0.00  0.00    +0.000 NA
ENDBRANCH  12  14
ENDBRANCH   8  12
ENDBRANCH   7   8
ENDBRANCH   1   7
BRANCH   5  20
ATOM     20  C   UNL     1      46.996   4.299  15.711  0.00  0.00    +0.000 C 
BRANCH  20  21
ATOM     21  N   UNL     1      48.343   4.153  16.207  0.00  0.00    +0.000 N 
ATOM     22  C   UNL     1      48.723   4.588  17.445  0.00  0.00    +0.000 C 
ATOM     23  O   UNL     1      47.938   5.132  18.219  0.00  0.00    +0.000 OA
ATOM     24  H   UNL     1      49.046   3.947  15.502  0.00  0.00    +0.000 HD
BRANCH  22  25
ATOM     25  C   UNL     1      50.106   4.294  17.844  0.00  0.00    +0.000 A 
ATOM     26  C   UNL     1      50.853   5.266  18.498  0.00  0.00    +0.000 A 
ATOM     27  S   UNL     1      52.412   4.745  18.951  0.00  0.00    +0.000 S 
ATOM     28  C   UNL     1      52.164   3.215  18.248  0.00  0.00    +0.000 A 
ATOM     29  N   UNL     1      53.142   2.270  18.272  0.00  0.00    +0.000 NA
ATOM     30  C   UNL     1      52.831   1.167  17.674  0.00  0.00    +0.000 A 
ATOM     31  N   UNL     1      51.630   0.922  17.063  0.00  0.00    +0.000 N 
ATOM     32  C   UNL     1      50.594   1.827  17.060  0.00  0.00    +0.000 A 
ATOM     33  O   UNL     1      49.506   1.543  16.579  0.00  0.00    +0.000 OA
ATOM     34  C   UNL     1      50.902   3.097  17.693  0.00  0.00    +0.000 A 
ATOM     35  H   UNL     1      51.440   0.032  16.628  0.00  0.00    +0.000 HD
ENDBRANCH  22  25
ENDBRANCH  20  21
ENDBRANCH   5  20
TORSDOF 8
ENDMDL
MODEL 4
REMARK VINA RESULT:    -8.156      4.252      7.028
REMARK INTER + INTRA:         -12.934
REMARK INTER:                 -11.699
REMARK INTRA:                  -1.235
REMARK UNBOUND:                -1.201
REMARK  Name = 
REMARK  8 active torsions:
REMARK  status: ('A' for Active; 'I' for Inactive)
REMARK    1  A    between atoms: N_1  and  C_2
REMARK    2  A    between atoms: C_2  and  C_3
REMARK    3  A    between atoms: C_2  and  C_24
REMARK    4  A    between atoms: C_3  and  C_4
REMARK    5  A    between atoms: C_8  and  C_9
REMARK    6  A    between atoms: C_9  and  N_10
REMARK    7  A    between atoms: C_11  and  C_13
REMARK    8  A    between atoms: C_24  and  C_26
REMARK                            x       y       z     vdW  Elec       q    Type
REMARK                         _______ _______ _______ _____ _____    ______ ____
ROOT
ATOM      1  C   UNL     1      45.412   4.870  13.025  0.00  0.00    +0.000 A 
ATOM      2  C   UNL     1      46.186   3.894  13.655  0.00  0.00    +0.000 A 
ATOM      3  C   UNL     1      47.392   4.265  14.228  0.00  0.00    +0.000 A 
ATOM      4  N   UNL     1      47.863   5.529  14.232  0.00  0.00    +0.000 NA
ATOM      5  C   UNL     1      47.109   6.473  13.612  0.00  0.00    +0.000 A 
ATOM      6  C   UNL     1      45.901   6.178  12.981  0.00  0.00    +0.000 A 
ENDROOT
BRANCH   1   7
ATOM      7  C   UNL     1      44.076   4.520  12.411  0.00  0.00    +0.000 C 
BRANCH   7   8
ATOM      8  C   UNL     1      44.129   3.374  11.386  0.00  0.00    +0.000 C 
BRANCH   8   9
ATOM      9  N   UNL     1      42.928   2.499  11.493  0.00  0.00    +0.000 NA
ATOM     10  H   UNL     1      42.264   2.943  12.125  0.00  0.00    +0.000 HD
ATOM     11  H   UNL     1      43.219   1.646  11.982  0.00  0.00    +0.000 HD
ENDBRANCH   8   9
BRANCH   8  12
ATOM     12  C   UNL     1      44.159   3.974   9.966  0.00  0.00    +0.000 C 
ATOM     13  O   UNL     1      43.434   4.920   9.645  0.00  0.00    +0.000 OA
BRANCH  12  14
ATOM     14  C   UNL     1      45.102   3.386   8.971  0.00  0.00    +0.000 A 
ATOM     15  C   UNL     1      45.367   2.019   8.991  0.00  0.00    +0.000 A 
ATOM     16  C   UNL     1      46.289   1.509   8.081  0.00  0.00    +0.000 A 
ATOM     17  C   UNL     1      46.911   2.374   7.188  0.00  0.00    +0.000 A 
ATOM     18  C   UNL     1      46.576   3.719   7.232  0.00  0.00    +0.000 A 
ATOM     19  N   UNL     1      45.683   4.245   8.100  0.00  0.00    +0.000 NA
ENDBRANCH  12  14
ENDBRANCH   8  12
ENDBRANCH   7   8
ENDBRANCH   1   7
BRANCH   5  20
ATOM     20  C   UNL     1      47.637   7.885  13.623  0.00  0.00    +0.000 C 
BRANCH  20  21
ATOM     21  N   UNL     1      46.644   8.842  13.200  0.00  0.00    +0.000 N 
ATOM     22  C   UNL     1      46.874   9.751  12.206  0.00  0.00    +0.000 C 
ATOM     23  O   UNL     1      47.944   9.811  11.605  0.00  0.00    +0.000 OA
ATOM     24  H   UNL     1      45.868   8.976  13.841  0.00  0.00    +0.000 HD
BRANCH  22  25
ATOM     25  C   UNL     1      45.738  10.604  11.827  0.00  0.00    +0.000 A 
ATOM     26  C   UNL     1      45.865  11.986  11.901  0.00  0.00    +0.000 A 
ATOM     27  S   UNL     1      44.484  12.831  11.365  0.00  0.00    +0.000 S 
ATOM     28  C   UNL     1      43.649  11.380  11.056  0.00  0.00    +0.000 A 
ATOM     29  N   UNL     1      42.374  11.396  10.584  0.00  0.00    +0.000 NA
ATOM     30  C   UNL     1      41.850  10.225  10.426  0.00  0.00    +0.000 A 
ATOM     31  N   UNL     1      42.488   9.043  10.690  0.00  0.00    +0.000 N 
ATOM     32  C   UNL     1      43.793   8.976  11.117  0.00  0.00    +0.000 A 
ATOM     33  O   UNL     1      44.359   7.901  11.261  0.00  0.00    +0.000 OA
ATOM     34  C   UNL     1      44.420  10.267  11.341  0.00  0.00    +0.000 A 
ATOM     35  H   UNL     1      42.030   8.158  10.528  0.00  0.00    +0.000 HD
ENDBRANCH  22  25
ENDBRANCH  20  21
ENDBRANCH   5  20
TORSDOF 8
ENDMDL
MODEL 5
REMARK VINA RESULT:    -7.658      1.928      2.546
REMARK INTER + INTRA:         -12.218
REMARK INTER:                 -11.520
REMARK INTRA:                  -0.697
REMARK UNBOUND:                -1.201
REMARK  Name = 
REMARK  8 active torsions:
REMARK  status: ('A' for Active; 'I' for Inactive)
REMARK    1  A    between atoms: N_1  and  C_2
REMARK    2  A    between atoms: C_2  and  C_3
REMARK    3  A    between atoms: C_2  and  C_24
REMARK    4  A    between atoms: C_3  and  C_4
REMARK    5  A    between atoms: C_8  and  C_9
REMARK    6  A    between atoms: C_9  and  N_10
REMARK    7  A    between atoms: C_11  and  C_13
REMARK    8  A    between atoms: C_24  and  C_26
REMARK                            x       y       z     vdW  Elec       q    Type
REMARK                         _______ _______ _______ _____ _____    ______ ____
ROOT
ATOM      1  C   UNL     1      45.211   4.724  11.767  0.00  0.00    +0.000 A 
ATOM      2  C   UNL     1      45.559   3.520  12.380  0.00  0.00    +0.000 A 
ATOM      3  C   UNL     1      46.580   3.518  13.317  0.00  0.00    +0.000 A 
ATOM      4  N   UNL     1      47.255   4.624  13.693  0.00  0.00    +0.000 NA
ATOM      5  C   UNL     1      46.916   5.791  13.089  0.00  0.00    +0.000 A 
ATOM      6  C   UNL     1      45.925   5.875  12.110  0.00  0.00    +0.000 A 
ENDROOT
BRANCH   1   7
ATOM      7  C   UNL     1      44.086   4.782  10.759  0.00  0.00    +0.000 C 
BRANCH   7   8
ATOM      8  C   UNL     1      44.533   4.609   9.297  0.00  0.00    +0.000 C 
BRANCH   8   9
ATOM      9  N   UNL     1      45.837   5.285   9.048  0.00  0.00    +0.000 NA
ATOM     10  H   UNL     1      45.958   5.386   8.041  0.00  0.00    +0.000 HD
ATOM     11  H   UNL     1      46.574   4.632   9.333  0.00  0.00    +0.000 HD
ENDBRANCH   8   9
BRANCH   8  12
ATOM     12  C   UNL     1      44.707   3.106   9.002  0.00  0.00    +0.000 C 
ATOM     13  O   UNL     1      44.055   2.246   9.601  0.00  0.00    +0.000 OA
BRANCH  12  14
ATOM     14  C   UNL     1      45.691   2.701   7.956  0.00  0.00    +0.000 A 
ATOM     15  C   UNL     1      46.403   1.512   8.096  0.00  0.00    +0.000 A 
ATOM     16  C   UNL     1      47.349   1.188   7.127  0.00  0.00    +0.000 A 
ATOM     17  C   UNL     1      47.551   2.055   6.059  0.00  0.00    +0.000 A 
ATOM     18  C   UNL     1      46.788   3.211   5.995  0.00  0.00    +0.000 A 
ATOM     19  N   UNL     1      45.859   3.552   6.916  0.00  0.00    +0.000 NA
ENDBRANCH  12  14
ENDBRANCH   8  12
ENDBRANCH   7   8
ENDBRANCH   1   7
BRANCH   5  20
ATOM     20  C   UNL     1      47.670   7.026  13.515  0.00  0.00    +0.000 C 
BRANCH  20  21
ATOM     21  N   UNL     1      47.922   7.048  14.935  0.00  0.00    +0.000 N 
ATOM     22  C   UNL     1      49.184   7.012  15.458  0.00  0.00    +0.000 C 
ATOM     23  O   UNL     1      50.187   6.960  14.751  0.00  0.00    +0.000 OA
ATOM     24  H   UNL     1      47.122   6.834  15.522  0.00  0.00    +0.000 HD
BRANCH  22  25
ATOM     25  C   UNL     1      49.286   7.126  16.920  0.00  0.00    +0.000 A 
ATOM     26  C   UNL     1      49.395   8.383  17.504  0.00  0.00    +0.000 A 
ATOM     27  S   UNL     1      49.437   8.347  19.208  0.00  0.00    +0.000 S 
ATOM     28  C   UNL     1      49.358   6.647  19.228  0.00  0.00    +0.000 A 
ATOM     29  N   UNL     1      49.372   5.962  20.403  0.00  0.00    +0.000 NA
ATOM     30  C   UNL     1      49.339   4.677  20.270  0.00  0.00    +0.000 A 
ATOM     31  N   UNL     1      49.286   4.017  19.071  0.00  0.00    +0.000 N 
ATOM     32  C   UNL     1      49.216   4.668  17.862  0.00  0.00    +0.000 A 
ATOM     33  O   UNL     1      49.084   4.048  16.815  0.00  0.00    +0.000 OA
ATOM     34  C   UNL     1      49.281   6.116  17.953  0.00  0.00    +0.000 A 
ATOM     35  H   UNL     1      49.244   3.010  19.034  0.00  0.00    +0.000 HD
ENDBRANCH  22  25
ENDBRANCH  20  21
ENDBRANCH   5  20
TORSDOF 8
ENDMDL
MODEL 6
REMARK VINA RESULT:    -7.542      4.537      6.114
REMARK INTER + INTRA:         -12.050
REMARK INTER:                 -10.882
REMARK INTRA:                  -1.169
REMARK UNBOUND:                -1.201
REMARK  Name = 
REMARK  8 active torsions:
REMARK  status: ('A' for Active; 'I' for Inactive)
REMARK    1  A    between atoms: N_1  and  C_2
REMARK    2  A    between atoms: C_2  and  C_3
REMARK    3  A    between atoms: C_2  and  C_24
REMARK    4  A    between atoms: C_3  and  C_4
REMARK    5  A    between atoms: C_8  and  C_9
REMARK    6  A    between atoms: C_9  and  N_10
REMARK    7  A    between atoms: C_11  and  C_13
REMARK    8  A    between atoms: C_24  and  C_26
REMARK                            x       y       z     vdW  Elec       q    Type
REMARK                         _______ _______ _______ _____ _____    ______ ____
ROOT
ATOM      1  C   UNL     1      45.115   5.148  12.998  0.00  0.00    +0.000 A 
ATOM      2  C   UNL     1      46.194   4.584  13.678  0.00  0.00    +0.000 A 
ATOM      3  C   UNL     1      47.288   5.381  13.976  0.00  0.00    +0.000 A 
ATOM      4  N   UNL     1      47.369   6.691  13.660  0.00  0.00    +0.000 NA
ATOM      5  C   UNL     1      46.319   7.233  12.992  0.00  0.00    +0.000 A 
ATOM      6  C   UNL     1      45.195   6.493  12.624  0.00  0.00    +0.000 A 
ENDROOT
BRANCH   1   7
ATOM      7  C   UNL     1      43.887   4.327  12.676  0.00  0.00    +0.000 C 
BRANCH   7   8
ATOM      8  C   UNL     1      44.106   3.254  11.594  0.00  0.00    +0.000 C 
BRANCH   8   9
ATOM      9  N   UNL     1      43.025   2.230  11.625  0.00  0.00    +0.000 NA
ATOM     10  H   UNL     1      42.925   1.842  10.688  0.00  0.00    +0.000 HD
ATOM     11  H   UNL     1      42.145   2.725  11.797  0.00  0.00    +0.000 HD
ENDBRANCH   8   9
BRANCH   8  12
ATOM     12  C   UNL     1      44.086   3.931  10.209  0.00  0.00    +0.000 C 
ATOM     13  O   UNL     1      43.324   4.867   9.954  0.00  0.00    +0.000 OA
BRANCH  12  14
ATOM     14  C   UNL     1      45.027   3.429   9.165  0.00  0.00    +0.000 A 
ATOM     15  C   UNL     1      45.288   2.065   9.065  0.00  0.00    +0.000 A 
ATOM     16  C   UNL     1      46.209   1.634   8.113  0.00  0.00    +0.000 A 
ATOM     17  C   UNL     1      46.832   2.573   7.299  0.00  0.00    +0.000 A 
ATOM     18  C   UNL     1      46.501   3.910   7.461  0.00  0.00    +0.000 A 
ATOM     19  N   UNL     1      45.609   4.359   8.372  0.00  0.00    +0.000 NA
ENDBRANCH  12  14
ENDBRANCH   8  12
ENDBRANCH   7   8
ENDBRANCH   1   7
BRANCH   5  20
ATOM     20  C   UNL     1      46.412   8.697  12.646  0.00  0.00    +0.000 C 
BRANCH  20  21
ATOM     21  N   UNL     1      47.627   9.013  11.936  0.00  0.00    +0.000 N 
ATOM     22  C   UNL     1      48.234  10.235  12.023  0.00  0.00    +0.000 C 
ATOM     23  O   UNL     1      47.782  11.145  12.715  0.00  0.00    +0.000 OA
ATOM     24  H   UNL     1      47.866   8.380  11.178  0.00  0.00    +0.000 HD
BRANCH  22  25
ATOM     25  C   UNL     1      49.511  10.381  11.311  0.00  0.00    +0.000 A 
ATOM     26  C   UNL     1      49.669  11.410  10.390  0.00  0.00    +0.000 A 
ATOM     27  S   UNL     1      51.227  11.482   9.702  0.00  0.00    +0.000 S 
ATOM     28  C   UNL     1      51.735  10.112  10.575  0.00  0.00    +0.000 A 
ATOM     29  N   UNL     1      52.995   9.620  10.430  0.00  0.00    +0.000 NA
ATOM     30  C   UNL     1      53.236   8.559  11.126  0.00  0.00    +0.000 A 
ATOM     31  N   UNL     1      52.334   7.951  11.959  0.00  0.00    +0.000 N 
ATOM     32  C   UNL     1      51.069   8.442  12.178  0.00  0.00    +0.000 A 
ATOM     33  O   UNL     1      50.319   7.922  12.993  0.00  0.00    +0.000 OA
ATOM     34  C   UNL     1      50.736   9.618  11.394  0.00  0.00    +0.000 A 
ATOM     35  H   UNL     1      52.588   7.132  12.491  0.00  0.00    +0.000 HD
ENDBRANCH  22  25
ENDBRANCH  20  21
ENDBRANCH   5  20
TORSDOF 8
ENDMDL
MODEL 7
REMARK VINA RESULT:    -7.461      2.089      2.727
REMARK INTER + INTRA:         -11.934
REMARK INTER:                 -10.920
REMARK INTRA:                  -1.014
REMARK UNBOUND:                -1.201
REMARK  Name = 
REMARK  8 active torsions:
REMARK  status: ('A' for Active; 'I' for Inactive)
REMARK    1  A    between atoms: N_1  and  C_2
REMARK    2  A    between atoms: C_2  and  C_3
REMARK    3  A    between atoms: C_2  and  C_24
REMARK    4  A    between atoms: C_3  and  C_4
REMARK    5  A    between atoms: C_8  and  C_9
REMARK    6  A    between atoms: C_9  and  N_10
REMARK    7  A    between atoms: C_11  and  C_13
REMARK    8  A    between atoms: C_24  and  C_26
REMARK                            x       y       z     vdW  Elec       q    Type
REMARK                         _______ _______ _______ _____ _____    ______ ____
ROOT
ATOM      1  C   UNL     1      45.201   5.991  12.699  0.00  0.00    +0.000 A 
ATOM      2  C   UNL     1      44.934   7.156  11.980  0.00  0.00    +0.000 A 
ATOM      3  C   UNL     1      45.882   8.166  11.966  0.00  0.00    +0.000 A 
ATOM      4  N   UNL     1      47.072   8.087  12.599  0.00  0.00    +0.000 NA
ATOM      5  C   UNL     1      47.323   6.953  13.302  0.00  0.00    +0.000 A 
ATOM      6  C   UNL     1      46.409   5.904  13.396  0.00  0.00    +0.000 A 
ENDROOT
BRANCH   1   7
ATOM      7  C   UNL     1      44.210   4.850  12.721  0.00  0.00    +0.000 C 
BRANCH   7   8
ATOM      8  C   UNL     1      44.585   3.665  11.814  0.00  0.00    +0.000 C 
BRANCH   8   9
ATOM      9  N   UNL     1      43.847   2.432  12.205  0.00  0.00    +0.000 NA
ATOM     10  H   UNL     1      42.969   2.709  12.642  0.00  0.00    +0.000 HD
ATOM     11  H   UNL     1      44.382   1.987  12.959  0.00  0.00    +0.000 HD
ENDBRANCH   8   9
BRANCH   8  12
ATOM     12  C   UNL     1      44.205   4.010  10.360  0.00  0.00    +0.000 C 
ATOM     13  O   UNL     1      43.222   4.707  10.092  0.00  0.00    +0.000 OA
BRANCH  12  14
ATOM     14  C   UNL     1      45.067   3.482   9.261  0.00  0.00    +0.000 A 
ATOM     15  C   UNL     1      45.285   2.111   9.150  0.00  0.00    +0.000 A 
ATOM     16  C   UNL     1      46.134   1.655   8.144  0.00  0.00    +0.000 A 
ATOM     17  C   UNL     1      46.730   2.576   7.290  0.00  0.00    +0.000 A 
ATOM     18  C   UNL     1      46.444   3.921   7.468  0.00  0.00    +0.000 A 
ATOM     19  N   UNL     1      45.623   4.395   8.431  0.00  0.00    +0.000 NA
ENDBRANCH  12  14
ENDBRANCH   8  12
ENDBRANCH   7   8
ENDBRANCH   1   7
BRANCH   5  20
ATOM     20  C   UNL     1      48.656   6.866  14.004  0.00  0.00    +0.000 C 
BRANCH  20  21
ATOM     21  N   UNL     1      48.511   6.720  15.431  0.00  0.00    +0.000 N 
ATOM     22  C   UNL     1      48.929   7.674  16.315  0.00  0.00    +0.000 C 
ATOM     23  O   UNL     1      49.455   8.723  15.950  0.00  0.00    +0.000 OA
ATOM     24  H   UNL     1      48.323   5.775  15.755  0.00  0.00    +0.000 HD
BRANCH  22  25
ATOM     25  C   UNL     1      48.639   7.421  17.734  0.00  0.00    +0.000 A 
ATOM     26  C   UNL     1      48.118   8.442  18.519  0.00  0.00    +0.000 A 
ATOM     27  S   UNL     1      47.775   7.969  20.121  0.00  0.00    +0.000 S 
ATOM     28  C   UNL     1      48.352   6.393  19.836  0.00  0.00    +0.000 A 
ATOM     29  N   UNL     1      48.356   5.462  20.828  0.00  0.00    +0.000 NA
ATOM     30  C   UNL     1      48.851   4.319  20.483  0.00  0.00    +0.000 A 
ATOM     31  N   UNL     1      49.335   4.022  19.236  0.00  0.00    +0.000 N 
ATOM     32  C   UNL     1      49.302   4.913  18.190  0.00  0.00    +0.000 A 
ATOM     33  O   UNL     1      49.664   4.587  17.068  0.00  0.00    +0.000 OA
ATOM     34  C   UNL     1      48.783   6.226  18.532  0.00  0.00    +0.000 A 
ATOM     35  H   UNL     1      49.693   3.103  19.023  0.00  0.00    +0.000 HD
ENDBRANCH  22  25
ENDBRANCH  20  21
ENDBRANCH   5  20
TORSDOF 8
ENDMDL
MODEL 8
REMARK VINA RESULT:    -7.403      4.144      8.930
REMARK INTER + INTRA:         -11.850
REMARK INTER:                 -10.465
REMARK INTRA:                  -1.385
REMARK UNBOUND:                -1.201
REMARK  Name = 
REMARK  8 active torsions:
REMARK  status: ('A' for Active; 'I' for Inactive)
REMARK    1  A    between atoms: N_1  and  C_2
REMARK    2  A    between atoms: C_2  and  C_3
REMARK    3  A    between atoms: C_2  and  C_24
REMARK    4  A    between atoms: C_3  and  C_4
REMARK    5  A    between atoms: C_8  and  C_9
REMARK    6  A    between atoms: C_9  and  N_10
REMARK    7  A    between atoms: C_11  and  C_13
REMARK    8  A    between atoms: C_24  and  C_26
REMARK                            x       y       z     vdW  Elec       q    Type
REMARK                         _______ _______ _______ _____ _____    ______ ____
ROOT
ATOM      1  C   UNL     1      48.772   5.617  16.602  0.00  0.00    +0.000 A 
ATOM      2  C   UNL     1      49.846   6.172  17.299  0.00  0.00    +0.000 A 
ATOM      3  C   UNL     1      50.303   7.428  16.934  0.00  0.00    +0.000 A 
ATOM      4  N   UNL     1      49.755   8.167  15.946  0.00  0.00    +0.000 NA
ATOM      5  C   UNL     1      48.715   7.620  15.268  0.00  0.00    +0.000 A 
ATOM      6  C   UNL     1      48.216   6.347  15.548  0.00  0.00    +0.000 A 
ENDROOT
BRANCH   1   7
ATOM      7  C   UNL     1      48.220   4.262  16.981  0.00  0.00    +0.000 C 
BRANCH   7   8
ATOM      8  C   UNL     1      49.113   3.459  17.944  0.00  0.00    +0.000 C 
BRANCH   8   9
ATOM      9  N   UNL     1      48.298   2.749  18.969  0.00  0.00    +0.000 NA
ATOM     10  H   UNL     1      48.915   2.133  19.497  0.00  0.00    +0.000 HD
ATOM     11  H   UNL     1      47.667   2.116  18.468  0.00  0.00    +0.000 HD
ENDBRANCH   8   9
BRANCH   8  12
ATOM     12  C   UNL     1      49.894   2.403  17.137  0.00  0.00    +0.000 C 
ATOM     13  O   UNL     1      49.368   1.764  16.221  0.00  0.00    +0.000 OA
BRANCH  12  14
ATOM     14  C   UNL     1      51.327   2.167  17.484  0.00  0.00    +0.000 A 
ATOM     15  C   UNL     1      52.122   3.231  17.902  0.00  0.00    +0.000 A 
ATOM     16  C   UNL     1      53.467   2.987  18.171  0.00  0.00    +0.000 A 
ATOM     17  C   UNL     1      53.967   1.700  18.014  0.00  0.00    +0.000 A 
ATOM     18  C   UNL     1      53.099   0.700  17.605  0.00  0.00    +0.000 A 
ATOM     19  N   UNL     1      51.788   0.903  17.340  0.00  0.00    +0.000 NA
ENDBRANCH  12  14
ENDBRANCH   8  12
ENDBRANCH   7   8
ENDBRANCH   1   7
BRANCH   5  20
ATOM     20  C   UNL     1      48.103   8.450  14.168  0.00  0.00    +0.000 C 
BRANCH  20  21
ATOM     21  N   UNL     1      46.892   7.862  13.650  0.00  0.00    +0.000 N 
ATOM     22  C   UNL     1      46.856   7.168  12.474  0.00  0.00    +0.000 C 
ATOM     23  O   UNL     1      47.856   6.997  11.780  0.00  0.00    +0.000 OA
ATOM     24  H   UNL     1      46.030   8.205  14.065  0.00  0.00    +0.000 HD
BRANCH  22  25
ATOM     25  C   UNL     1      45.568   6.555  12.118  0.00  0.00    +0.000 A 
ATOM     26  C   UNL     1      44.569   7.338  11.551  0.00  0.00    +0.000 A 
ATOM     27  S   UNL     1      43.165   6.464  11.136  0.00  0.00    +0.000 S 
ATOM     28  C   UNL     1      43.822   5.015  11.741  0.00  0.00    +0.000 A 
ATOM     29  N   UNL     1      43.109   3.857  11.705  0.00  0.00    +0.000 NA
ATOM     30  C   UNL     1      43.715   2.843  12.227  0.00  0.00    +0.000 A 
ATOM     31  N   UNL     1      44.971   2.879  12.772  0.00  0.00    +0.000 N 
ATOM     32  C   UNL     1      45.749   4.012  12.782  0.00  0.00    +0.000 A 
ATOM     33  O   UNL     1      46.899   3.988  13.200  0.00  0.00    +0.000 OA
ATOM     34  C   UNL     1      45.102   5.192  12.235  0.00  0.00    +0.000 A 
ATOM     35  H   UNL     1      45.399   2.046  13.149  0.00  0.00    +0.000 HD
ENDBRANCH  22  25
ENDBRANCH  20  21
ENDBRANCH   5  20
TORSDOF 8
ENDMDL
MODEL 9
REMARK VINA RESULT:    -7.094      2.133      3.202
REMARK INTER + INTRA:         -11.406
REMARK INTER:                 -11.238
REMARK INTRA:                  -0.167
REMARK UNBOUND:                -1.201
REMARK  Name = 
REMARK  8 active torsions:
REMARK  status: ('A' for Active; 'I' for Inactive)
REMARK    1  A    between atoms: N_1  and  C_2
REMARK    2  A    between atoms: C_2  and  C_3
REMARK    3  A    between atoms: C_2  and  C_24
REMARK    4  A    between atoms: C_3  and  C_4
REMARK    5  A    between atoms: C_8  and  C_9
REMARK    6  A    between atoms: C_9  and  N_10
REMARK    7  A    between atoms: C_11  and  C_13
REMARK    8  A    between atoms: C_24  and  C_26
REMARK                            x       y       z     vdW  Elec       q    Type
REMARK                         _______ _______ _______ _____ _____    ______ ____
ROOT
ATOM      1  C   UNL     1      46.241   5.380  12.481  0.00  0.00    +0.000 A 
ATOM      2  C   UNL     1      46.119   4.236  13.271  0.00  0.00    +0.000 A 
ATOM      3  C   UNL     1      46.871   4.140  14.430  0.00  0.00    +0.000 A 
ATOM      4  N   UNL     1      47.714   5.104  14.859  0.00  0.00    +0.000 NA
ATOM      5  C   UNL     1      47.834   6.211  14.083  0.00  0.00    +0.000 A 
ATOM      6  C   UNL     1      47.140   6.372  12.884  0.00  0.00    +0.000 A 
ENDROOT
BRANCH   1   7
ATOM      7  C   UNL     1      45.420   5.543  11.223  0.00  0.00    +0.000 C 
BRANCH   7   8
ATOM      8  C   UNL     1      43.978   5.016  11.332  0.00  0.00    +0.000 C 
BRANCH   8   9
ATOM      9  N   UNL     1      43.026   5.896  10.599  0.00  0.00    +0.000 NA
ATOM     10  H   UNL     1      42.135   5.408  10.519  0.00  0.00    +0.000 HD
ATOM     11  H   UNL     1      43.367   5.973   9.635  0.00  0.00    +0.000 HD
ENDBRANCH   8   9
BRANCH   8  12
ATOM     12  C   UNL     1      43.911   3.609  10.705  0.00  0.00    +0.000 C 
ATOM     13  O   UNL     1      43.130   2.749  11.121  0.00  0.00    +0.000 OA
BRANCH  12  14
ATOM     14  C   UNL     1      44.818   3.303   9.561  0.00  0.00    +0.000 A 
ATOM     15  C   UNL     1      45.187   4.315   8.678  0.00  0.00    +0.000 A 
ATOM     16  C   UNL     1      45.995   3.986   7.593  0.00  0.00    +0.000 A 
ATOM     17  C   UNL     1      46.404   2.668   7.426  0.00  0.00    +0.000 A 
ATOM     18  C   UNL     1      45.998   1.728   8.362  0.00  0.00    +0.000 A 
ATOM     19  N   UNL     1      45.218   2.016   9.428  0.00  0.00    +0.000 NA
ENDBRANCH  12  14
ENDBRANCH   8  12
ENDBRANCH   7   8
ENDBRANCH   1   7
BRANCH   5  20
ATOM     20  C   UNL     1      48.774   7.286  14.567  0.00  0.00    +0.000 C 
BRANCH  20  21
ATOM     21  N   UNL     1      48.777   7.400  16.005  0.00  0.00    +0.000 N 
ATOM     22  C   UNL     1      49.765   6.866  16.783  0.00  0.00    +0.000 C 
ATOM     23  O   UNL     1      50.718   6.254  16.307  0.00  0.00    +0.000 OA
ATOM     24  H   UNL     1      47.890   7.668  16.423  0.00  0.00    +0.000 HD
BRANCH  22  25
ATOM     25  C   UNL     1      49.677   7.136  18.226  0.00  0.00    +0.000 A 
ATOM     26  C   UNL     1      50.601   7.985  18.822  0.00  0.00    +0.000 A 
ATOM     27  S   UNL     1      50.321   8.246  20.483  0.00  0.00    +0.000 S 
ATOM     28  C   UNL     1      48.982   7.197  20.478  0.00  0.00    +0.000 A 
ATOM     29  N   UNL     1      48.279   6.956  21.618  0.00  0.00    +0.000 NA
ATOM     30  C   UNL     1      47.308   6.115  21.477  0.00  0.00    +0.000 A 
ATOM     31  N   UNL     1      46.972   5.501  20.300  0.00  0.00    +0.000 N 
ATOM     32  C   UNL     1      47.618   5.754  19.113  0.00  0.00    +0.000 A 
ATOM     33  O   UNL     1      47.237   5.252  18.064  0.00  0.00    +0.000 OA
ATOM     34  C   UNL     1      48.740   6.670  19.222  0.00  0.00    +0.000 A 
ATOM     35  H   UNL     1      46.189   4.866  20.250  0.00  0.00    +0.000 HD
ENDBRANCH  22  25
ENDBRANCH  20  21
ENDBRANCH   5  20
TORSDOF 8
ENDMDL
