MODEL 1
REMARK VINA RESULT:    -7.167      0.000      0.000
REMARK INTER + INTRA:         -11.611
REMARK INTER:                 -10.519
REMARK INTRA:                  -1.092
REMARK UNBOUND:                -1.092
REMARK  Name = 
REMARK  10 active torsions:
REMARK  status: ('A' for Active; 'I' for Inactive)
REMARK    1  A    between atoms: C_1  and  N_2
REMARK    2  A    between atoms: N_2  and  C_3
REMARK    3  A    between atoms: N_2  and  C_10
REMARK    4  A    between atoms: C_3  and  C_4
REMARK    5  A    between atoms: C_10  and  C_11
REMARK    6  A    between atoms: C_14  and  C_15
REMARK    7  A    between atoms: C_15  and  N_16
REMARK    8  A    between atoms: N_16  and  C_17
REMARK    9  A    between atoms: N_16  and  C_18
REMARK   10  A    between atoms: C_18  and  C_19
REMARK                            x       y       z     vdW  Elec       q    Type
REMARK                         _______ _______ _______ _____ _____    ______ ____
ROOT
ATOM      1  C   UNL     1      45.420   6.610  12.012  0.00  0.00    +0.000 A 
ATOM      2  C   UNL     1      45.307   7.822  12.696  0.00  0.00    +0.000 A 
ATOM      3  C   UNL     1      46.466   8.446  13.144  0.00  0.00    +0.000 A 
ATOM      4  C   UNL     1      47.702   7.842  12.929  0.00  0.00    +0.000 A 
ATOM      5  C   UNL     1      47.724   6.652  12.209  0.00  0.00    +0.000 A 
ATOM      6  N   UNL     1      46.617   6.031  11.747  0.00  0.00    +0.000 NA
ENDROOT
BRANCH   1   7
ATOM      7  C   UNL     1      44.184   5.868  11.546  0.00  0.00    +0.000 C 
BRANCH   7   9
ATOM      8  C   UNL     1      43.687   3.566  12.089  0.00  0.00    +0.000 C 
ATOM      9  N   UNL     1      44.423   4.451  11.177  0.00  0.00    +0.000 NA
BRANCH   9  10
ATOM     10  C   UNL     1      43.952   4.216   9.789  0.00  0.00    +0.000 C 
BRANCH  10  11
ATOM     11  C   UNL     1      44.981   3.563   8.882  0.00  0.00    +0.000 A 
ATOM     12  C   UNL     1      45.214   2.190   8.949  0.00  0.00    +0.000 A 
ATOM     13  C   UNL     1      46.202   1.635   8.140  0.00  0.00    +0.000 A 
ATOM     14  C   UNL     1      46.926   2.460   7.288  0.00  0.00    +0.000 A 
ATOM     15  C   UNL     1      46.631   3.812   7.279  0.00  0.00    +0.000 A 
ATOM     16  N   UNL     1      45.682   4.380   8.053  0.00  0.00    +0.000 NA
ENDBRANCH  10  11
ENDBRANCH   9  10
ENDBRANCH   7   9
ENDBRANCH   1   7
BRANCH   4  17
ATOM     17  C   UNL     1      48.980   8.401  13.498  0.00  0.00    +0.000 C 
BRANCH  17  18
ATOM     18  N   UNL     1      49.562   7.536  14.545  0.00  0.00    +0.000 NA
ATOM     19  C   UNL     1      50.972   7.871  14.795  0.00  0.00    +0.000 C 
BRANCH  18  20
ATOM     20  C   UNL     1      48.812   7.647  15.815  0.00  0.00    +0.000 C 
BRANCH  20  21
ATOM     21  C   UNL     1      49.208   6.533  16.748  0.00  0.00    +0.000 A 
ATOM     22  C   UNL     1      50.128   6.674  17.776  0.00  0.00    +0.000 A 
ATOM     23  S   UNL     1      50.514   5.196  18.536  0.00  0.00    +0.000 S 
ATOM     24  C   UNL     1      49.394   4.343  17.581  0.00  0.00    +0.000 A 
ATOM     25  N   UNL     1      49.218   3.001  17.725  0.00  0.00    +0.000 NA
ATOM     26  C   UNL     1      48.296   2.502  16.969  0.00  0.00    +0.000 A 
ATOM     27  N   UNL     1      47.537   3.219  16.079  0.00  0.00    +0.000 N 
ATOM     28  C   UNL     1      47.699   4.570  15.872  0.00  0.00    +0.000 A 
ATOM     29  O   UNL     1      47.013   5.180  15.059  0.00  0.00    +0.000 OA
ATOM     30  C   UNL     1      48.727   5.176  16.702  0.00  0.00    +0.000 A 
ATOM     31  H   UNL     1      46.818   2.769  15.534  0.00  0.00    +0.000 HD
ENDBRANCH  20  21
ENDBRANCH  18  20
ENDBRANCH  17  18
ENDBRANCH   4  17
TORSDOF 8
ENDMDL
MODEL 2
REMARK VINA RESULT:    -6.935      1.902      2.429
REMARK INTER + INTRA:         -11.270
REMARK INTER:                 -10.173
REMARK INTRA:                  -1.097
REMARK UNBOUND:                -1.092
REMARK  Name = 
REMARK  10 active torsions:
REMARK  status: ('A' for Active; 'I' for Inactive)
REMARK    1  A    between atoms: C_1  and  N_2
REMARK    2  A    between atoms: N_2  and  C_3
REMARK    3  A    between atoms: N_2  and  C_10
REMARK    4  A    between atoms: C_3  and  C_4
REMARK    5  A    between atoms: C_10  and  C_11
REMARK    6  A    between atoms: C_14  and  C_15
REMARK    7  A    between atoms: C_15  and  N_16
REMARK    8  A    between atoms: N_16  and  C_17
REMARK    9  A    between atoms: N_16  and  C_18
REMARK   10  A    between atoms: C_18  and  C_19
REMARK                            x       y       z     vdW  Elec       q    Type
REMARK                         _______ _______ _______ _____ _____    ______ ____
ROOT
ATOM      1  C   UNL     1      45.596   6.305  12.151  0.00  0.00    +0.000 A 
ATOM      2  C   UNL     1      46.527   5.344  12.553  0.00  0.00    +0.000 A 
ATOM      3  C   UNL     1      47.678   5.764  13.209  0.00  0.00    +0.000 A 
ATOM      4  C   UNL     1      47.893   7.123  13.425  0.00  0.00    +0.000 A 
ATOM      5  C   UNL     1      46.898   8.008  13.022  0.00  0.00    +0.000 A 
ATOM      6  N   UNL     1      45.762   7.628  12.398  0.00  0.00    +0.000 NA
ENDROOT
BRANCH   1   7
ATOM      7  C   UNL     1      44.349   5.903  11.392  0.00  0.00    +0.000 C 
BRANCH   7   9
ATOM      8  C   UNL     1      43.267   3.769  11.728  0.00  0.00    +0.000 C 
ATOM      9  N   UNL     1      44.315   4.477  10.981  0.00  0.00    +0.000 NA
BRANCH   9  10
ATOM     10  C   UNL     1      44.020   4.388   9.530  0.00  0.00    +0.000 C 
BRANCH  10  11
ATOM     11  C   UNL     1      45.037   3.588   8.734  0.00  0.00    +0.000 A 
ATOM     12  C   UNL     1      45.169   2.214   8.932  0.00  0.00    +0.000 A 
ATOM     13  C   UNL     1      46.149   1.524   8.222  0.00  0.00    +0.000 A 
ATOM     14  C   UNL     1      46.964   2.219   7.337  0.00  0.00    +0.000 A 
ATOM     15  C   UNL     1      46.766   3.581   7.195  0.00  0.00    +0.000 A 
ATOM     16  N   UNL     1      45.827   4.278   7.870  0.00  0.00    +0.000 NA
ENDBRANCH  10  11
ENDBRANCH   9  10
ENDBRANCH   7   9
ENDBRANCH   1   7
BRANCH   4  17
ATOM     17  C   UNL     1      49.175   7.651  14.014  0.00  0.00    +0.000 C 
BRANCH  17  18
ATOM     18  N   UNL     1      49.631   6.864  15.179  0.00  0.00    +0.000 NA
ATOM     19  C   UNL     1      51.030   7.166  15.516  0.00  0.00    +0.000 C 
BRANCH  18  20
ATOM     20  C   UNL     1      48.787   7.121  16.367  0.00  0.00    +0.000 C 
BRANCH  20  21
ATOM     21  C   UNL     1      48.638   5.860  17.176  0.00  0.00    +0.000 A 
ATOM     22  C   UNL     1      48.143   4.668  16.668  0.00  0.00    +0.000 A 
ATOM     23  S   UNL     1      47.913   3.475  17.866  0.00  0.00    +0.000 S 
ATOM     24  C   UNL     1      48.557   4.481  19.078  0.00  0.00    +0.000 A 
ATOM     25  N   UNL     1      48.653   4.062  20.369  0.00  0.00    +0.000 NA
ATOM     26  C   UNL     1      49.211   4.914  21.164  0.00  0.00    +0.000 A 
ATOM     27  N   UNL     1      49.679   6.148  20.789  0.00  0.00    +0.000 N 
ATOM     28  C   UNL     1      49.575   6.632  19.505  0.00  0.00    +0.000 A 
ATOM     29  O   UNL     1      49.991   7.746  19.204  0.00  0.00    +0.000 OA
ATOM     30  C   UNL     1      48.952   5.706  18.573  0.00  0.00    +0.000 A 
ATOM     31  H   UNL     1      50.124   6.757  21.458  0.00  0.00    +0.000 HD
ENDBRANCH  20  21
ENDBRANCH  18  20
ENDBRANCH  17  18
ENDBRANCH   4  17
TORSDOF 8
ENDMDL
MODEL 3
REMARK VINA RESULT:    -6.672      3.209      6.019
REMARK INTER + INTRA:         -10.884
REMARK INTER:                 -10.322
REMARK INTRA:                  -0.563
REMARK UNBOUND:                -1.092
REMARK  Name = 
REMARK  10 active torsions:
REMARK  status: ('A' for Active; 'I' for Inactive)
REMARK    1  A    between atoms: C_1  and  N_2
REMARK    2  A    between atoms: N_2  and  C_3
REMARK    3  A    between atoms: N_2  and  C_10
REMARK    4  A    between atoms: C_3  and  C_4
REMARK    5  A    between atoms: C_10  and  C_11
REMARK    6  A    between atoms: C_14  and  C_15
REMARK    7  A    between atoms: C_15  and  N_16
REMARK    8  A    between atoms: N_16  and  C_17
REMARK    9  A    between atoms: N_16  and  C_18
REMARK   10  A    between atoms: C_18  and  C_19
REMARK                            x       y       z     vdW  Elec       q    Type
REMARK                         _______ _______ _______ _____ _____    ______ ____
ROOT
ATOM      1  C   UNL     1      46.155   2.579   8.056  0.00  0.00    +0.000 A 
ATOM      2  C   UNL     1      45.408   1.646   8.779  0.00  0.00    +0.000 A 
ATOM      3  C   UNL     1      44.458   2.106   9.682  0.00  0.00    +0.000 A 
ATOM      4  C   UNL     1      44.289   3.476   9.868  0.00  0.00    +0.000 A 
ATOM      5  C   UNL     1      45.051   4.334   9.082  0.00  0.00    +0.000 A 
ATOM      6  N   UNL     1      45.970   3.916   8.185  0.00  0.00    +0.000 NA
ENDROOT
BRANCH   1   7
ATOM      7  C   UNL     1      47.235   2.128   7.096  0.00  0.00    +0.000 C 
BRANCH   7   9
ATOM      8  C   UNL     1      47.043   3.439   5.075  0.00  0.00    +0.000 C 
ATOM      9  N   UNL     1      46.822   2.115   5.671  0.00  0.00    +0.000 NA
BRANCH   9  10
ATOM     10  C   UNL     1      47.628   1.112   4.932  0.00  0.00    +0.000 C 
BRANCH  10  11
ATOM     11  C   UNL     1      46.844   0.318   3.901  0.00  0.00    +0.000 A 
ATOM     12  C   UNL     1      45.965   0.961   3.030  0.00  0.00    +0.000 A 
ATOM     13  C   UNL     1      45.224   0.194   2.135  0.00  0.00    +0.000 A 
ATOM     14  C   UNL     1      45.382  -1.186   2.129  0.00  0.00    +0.000 A 
ATOM     15  C   UNL     1      46.278  -1.747   3.022  0.00  0.00    +0.000 A 
ATOM     16  N   UNL     1      47.008  -1.031   3.904  0.00  0.00    +0.000 NA
ENDBRANCH  10  11
ENDBRANCH   9  10
ENDBRANCH   7   9
ENDBRANCH   1   7
BRANCH   4  17
ATOM     17  C   UNL     1      43.369   4.037  10.920  0.00  0.00    +0.000 C 
BRANCH  17  18
ATOM     18  N   UNL     1      44.047   4.996  11.817  0.00  0.00    +0.000 NA
ATOM     19  C   UNL     1      43.151   5.455  12.888  0.00  0.00    +0.000 C 
BRANCH  18  20
ATOM     20  C   UNL     1      45.257   4.401  12.427  0.00  0.00    +0.000 C 
BRANCH  20  21
ATOM     21  C   UNL     1      46.306   5.462  12.631  0.00  0.00    +0.000 A 
ATOM     22  C   UNL     1      46.636   6.419  11.683  0.00  0.00    +0.000 A 
ATOM     23  S   UNL     1      47.989   7.360  12.124  0.00  0.00    +0.000 S 
ATOM     24  C   UNL     1      48.113   6.583  13.634  0.00  0.00    +0.000 A 
ATOM     25  N   UNL     1      49.083   6.921  14.526  0.00  0.00    +0.000 NA
ATOM     26  C   UNL     1      49.019   6.284  15.648  0.00  0.00    +0.000 A 
ATOM     27  N   UNL     1      48.075   5.336  15.960  0.00  0.00    +0.000 N 
ATOM     28  C   UNL     1      47.095   4.936  15.081  0.00  0.00    +0.000 A 
ATOM     29  O   UNL     1      46.275   4.076  15.385  0.00  0.00    +0.000 OA
ATOM     30  C   UNL     1      47.129   5.627  13.802  0.00  0.00    +0.000 A 
ATOM     31  H   UNL     1      48.070   4.892  16.864  0.00  0.00    +0.000 HD
ENDBRANCH  20  21
ENDBRANCH  18  20
ENDBRANCH  17  18
ENDBRANCH   4  17
TORSDOF 8
ENDMDL
MODEL 4
REMARK VINA RESULT:    -6.669      2.000      2.621
REMARK INTER + INTRA:         -10.879
REMARK INTER:                 -10.150
REMARK INTRA:                  -0.729
REMARK UNBOUND:                -1.092
REMARK  Name = 
REMARK  10 active torsions:
REMARK  status: ('A' for Active; 'I' for Inactive)
REMARK    1  A    between atoms: C_1  and  N_2
REMARK    2  A    between atoms: N_2  and  C_3
REMARK    3  A    between atoms: N_2  and  C_10
REMARK    4  A    between atoms: C_3  and  C_4
REMARK    5  A    between atoms: C_10  and  C_11
REMARK    6  A    between atoms: C_14  and  C_15
REMARK    7  A    between atoms: C_15  and  N_16
REMARK    8  A    between atoms: N_16  and  C_17
REMARK    9  A    between atoms: N_16  and  C_18
REMARK   10  A    between atoms: C_18  and  C_19
REMARK                            x       y       z     vdW  Elec       q    Type
REMARK                         _______ _______ _______ _____ _____    ______ ____
ROOT
ATOM      1  C   UNL     1      45.313   5.497  11.561  0.00  0.00    +0.000 A 
ATOM      2  C   UNL     1      46.180   4.863  12.454  0.00  0.00    +0.000 A 
ATOM      3  C   UNL     1      46.946   5.645  13.310  0.00  0.00    +0.000 A 
ATOM      4  C   UNL     1      46.858   7.034  13.240  0.00  0.00    +0.000 A 
ATOM      5  C   UNL     1      45.944   7.580  12.344  0.00  0.00    +0.000 A 
ATOM      6  N   UNL     1      45.174   6.845  11.513  0.00  0.00    +0.000 NA
ENDROOT
BRANCH   1   7
ATOM      7  C   UNL     1      44.493   4.690  10.576  0.00  0.00    +0.000 C 
BRANCH   7   9
ATOM      8  C   UNL     1      43.605   2.800  11.792  0.00  0.00    +0.000 C 
ATOM      9  N   UNL     1      44.573   3.221  10.771  0.00  0.00    +0.000 NA
BRANCH   9  10
ATOM     10  C   UNL     1      44.258   2.535   9.493  0.00  0.00    +0.000 C 
BRANCH  10  11
ATOM     11  C   UNL     1      45.443   2.386   8.555  0.00  0.00    +0.000 A 
ATOM     12  C   UNL     1      45.883   3.467   7.792  0.00  0.00    +0.000 A 
ATOM     13  C   UNL     1      46.939   3.278   6.904  0.00  0.00    +0.000 A 
ATOM     14  C   UNL     1      47.526   2.024   6.803  0.00  0.00    +0.000 A 
ATOM     15  C   UNL     1      47.034   1.003   7.598  0.00  0.00    +0.000 A 
ATOM     16  N   UNL     1      46.010   1.154   8.466  0.00  0.00    +0.000 NA
ENDBRANCH  10  11
ENDBRANCH   9  10
ENDBRANCH   7   9
ENDBRANCH   1   7
BRANCH   4  17
ATOM     17  C   UNL     1      47.752   7.938  14.048  0.00  0.00    +0.000 C 
BRANCH  17  18
ATOM     18  N   UNL     1      49.053   7.314  14.365  0.00  0.00    +0.000 NA
ATOM     19  C   UNL     1      50.127   7.854  13.518  0.00  0.00    +0.000 C 
BRANCH  18  20
ATOM     20  C   UNL     1      49.416   7.517  15.785  0.00  0.00    +0.000 C 
BRANCH  20  21
ATOM     21  C   UNL     1      49.519   6.188  16.485  0.00  0.00    +0.000 A 
ATOM     22  C   UNL     1      48.427   5.393  16.802  0.00  0.00    +0.000 A 
ATOM     23  S   UNL     1      48.838   4.043  17.760  0.00  0.00    +0.000 S 
ATOM     24  C   UNL     1      50.495   4.427  17.699  0.00  0.00    +0.000 A 
ATOM     25  N   UNL     1      51.424   3.657  18.328  0.00  0.00    +0.000 NA
ATOM     26  C   UNL     1      52.644   4.042  18.147  0.00  0.00    +0.000 A 
ATOM     27  N   UNL     1      53.021   5.130  17.399  0.00  0.00    +0.000 N 
ATOM     28  C   UNL     1      52.120   5.959  16.772  0.00  0.00    +0.000 A 
ATOM     29  O   UNL     1      52.488   6.931  16.122  0.00  0.00    +0.000 OA
ATOM     30  C   UNL     1      50.731   5.564  16.948  0.00  0.00    +0.000 A 
ATOM     31  H   UNL     1      53.995   5.363  17.282  0.00  0.00    +0.000 HD
ENDBRANCH  20  21
ENDBRANCH  18  20
ENDBRANCH  17  18
ENDBRANCH   4  17
TORSDOF 8
ENDMDL
MODEL 5
REMARK VINA RESULT:    -6.582      1.859      2.307
REMARK INTER + INTRA:         -10.752
REMARK INTER:                  -9.963
REMARK INTRA:                  -0.789
REMARK UNBOUND:                -1.092
REMARK  Name = 
REMARK  10 active torsions:
REMARK  status: ('A' for Active; 'I' for Inactive)
REMARK    1  A    between atoms: C_1  and  N_2
REMARK    2  A    between atoms: N_2  and  C_3
REMARK    3  A    between atoms: N_2  and  C_10
REMARK    4  A    between atoms: C_3  and  C_4
REMARK    5  A    between atoms: C_10  and  C_11
REMARK    6  A    between atoms: C_14  and  C_15
REMARK    7  A    between atoms: C_15  and  N_16
REMARK    8  A    between atoms: N_16  and  C_17
REMARK    9  A    between atoms: N_16  and  C_18
REMARK   10  A    between atoms: C_18  and  C_19
REMARK                            x       y       z     vdW  Elec       q    Type
REMARK                         _______ _______ _______ _____ _____    ______ ____
ROOT
ATOM      1  C   UNL     1      45.078   6.074  12.532  0.00  0.00    +0.000 A 
ATOM      2  C   UNL     1      46.140   5.447  13.188  0.00  0.00    +0.000 A 
ATOM      3  C   UNL     1      47.195   6.227  13.645  0.00  0.00    +0.000 A 
ATOM      4  C   UNL     1      47.188   7.602  13.417  0.00  0.00    +0.000 A 
ATOM      5  C   UNL     1      46.074   8.146  12.786  0.00  0.00    +0.000 A 
ATOM      6  N   UNL     1      45.027   7.416  12.347  0.00  0.00    +0.000 NA
ENDROOT
BRANCH   1   7
ATOM      7  C   UNL     1      43.928   5.262  11.974  0.00  0.00    +0.000 C 
BRANCH   7   9
ATOM      8  C   UNL     1      43.656   2.862  11.922  0.00  0.00    +0.000 C 
ATOM      9  N   UNL     1      44.336   4.005  11.299  0.00  0.00    +0.000 NA
BRANCH   9  10
ATOM     10  C   UNL     1      43.960   4.069   9.865  0.00  0.00    +0.000 C 
BRANCH  10  11
ATOM     11  C   UNL     1      44.999   3.491   8.920  0.00  0.00    +0.000 A 
ATOM     12  C   UNL     1      45.279   2.126   8.925  0.00  0.00    +0.000 A 
ATOM     13  C   UNL     1      46.276   1.641   8.083  0.00  0.00    +0.000 A 
ATOM     14  C   UNL     1      46.961   2.525   7.260  0.00  0.00    +0.000 A 
ATOM     15  C   UNL     1      46.620   3.866   7.312  0.00  0.00    +0.000 A 
ATOM     16  N   UNL     1      45.661   4.367   8.120  0.00  0.00    +0.000 NA
ENDBRANCH  10  11
ENDBRANCH   9  10
ENDBRANCH   7   9
ENDBRANCH   1   7
BRANCH   4  17
ATOM     17  C   UNL     1      48.357   8.482  13.773  0.00  0.00    +0.000 C 
BRANCH  17  18
ATOM     18  N   UNL     1      49.628   7.733  13.858  0.00  0.00    +0.000 NA
ATOM     19  C   UNL     1      50.479   7.987  12.686  0.00  0.00    +0.000 C 
BRANCH  18  20
ATOM     20  C   UNL     1      50.381   8.086  15.081  0.00  0.00    +0.000 C 
BRANCH  20  21
ATOM     21  C   UNL     1      49.427   8.395  16.203  0.00  0.00    +0.000 A 
ATOM     22  C   UNL     1      49.040   9.678  16.560  0.00  0.00    +0.000 A 
ATOM     23  S   UNL     1      48.104   9.723  17.986  0.00  0.00    +0.000 S 
ATOM     24  C   UNL     1      48.107   8.026  18.114  0.00  0.00    +0.000 A 
ATOM     25  N   UNL     1      47.469   7.392  19.135  0.00  0.00    +0.000 NA
ATOM     26  C   UNL     1      47.513   6.103  19.070  0.00  0.00    +0.000 A 
ATOM     27  N   UNL     1      48.138   5.387  18.079  0.00  0.00    +0.000 N 
ATOM     28  C   UNL     1      48.824   5.980  17.044  0.00  0.00    +0.000 A 
ATOM     29  O   UNL     1      49.384   5.313  16.181  0.00  0.00    +0.000 OA
ATOM     30  C   UNL     1      48.803   7.434  17.076  0.00  0.00    +0.000 A 
ATOM     31  H   UNL     1      48.116   4.380  18.077  0.00  0.00    +0.000 HD
ENDBRANCH  20  21
ENDBRANCH  18  20
ENDBRANCH  17  18
ENDBRANCH   4  17
TORSDOF 8
ENDMDL
MODEL 6
REMARK VINA RESULT:    -6.358      2.905      7.270
REMARK INTER + INTRA:         -10.423
REMARK INTER:                  -8.758
REMARK INTRA:                  -1.666
REMARK UNBOUND:                -1.092
REMARK  Name = 
REMARK  10 active torsions:
REMARK  status: ('A' for Active; 'I' for Inactive)
REMARK    1  A    between atoms: C_1  and  N_2
REMARK    2  A    between atoms: N_2  and  C_3
REMARK    3  A    between atoms: N_2  and  C_10
REMARK    4  A    between atoms: C_3  and  C_4
REMARK    5  A    between atoms: C_10  and  C_11
REMARK    6  A    between atoms: C_14  and  C_15
REMARK    7  A    between atoms: C_15  and  N_16
REMARK    8  A    between atoms: N_16  and  C_17
REMARK    9  A    between atoms: N_16  and  C_18
REMARK   10  A    between atoms: C_18  and  C_19
REMARK                            x       y       z     vdW  Elec       q    Type
REMARK                         _______ _______ _______ _____ _____    ______ ____
ROOT
ATOM      1  C   UNL     1      50.235   7.753  15.985  0.00  0.00    +0.000 A 
ATOM      2  C   UNL     1      49.010   8.249  16.436  0.00  0.00    +0.000 A 
ATOM      3  C   UNL     1      48.088   8.702  15.500  0.00  0.00    +0.000 A 
ATOM      4  C   UNL     1      48.412   8.680  14.145  0.00  0.00    +0.000 A 
ATOM      5  C   UNL     1      49.641   8.137  13.783  0.00  0.00    +0.000 A 
ATOM      6  N   UNL     1      50.549   7.674  14.668  0.00  0.00    +0.000 NA
ENDROOT
BRANCH   1   7
ATOM      7  C   UNL     1      51.291   7.292  16.968  0.00  0.00    +0.000 C 
BRANCH   7   9
ATOM      8  C   UNL     1      53.183   5.802  16.772  0.00  0.00    +0.000 C 
ATOM      9  N   UNL     1      51.717   5.881  16.794  0.00  0.00    +0.000 NA
BRANCH   9  10
ATOM     10  C   UNL     1      51.205   5.067  17.924  0.00  0.00    +0.000 C 
BRANCH  10  11
ATOM     11  C   UNL     1      49.844   4.440  17.676  0.00  0.00    +0.000 A 
ATOM     12  C   UNL     1      48.687   5.039  18.174  0.00  0.00    +0.000 A 
ATOM     13  C   UNL     1      47.463   4.407  17.973  0.00  0.00    +0.000 A 
ATOM     14  C   UNL     1      47.424   3.203  17.281  0.00  0.00    +0.000 A 
ATOM     15  C   UNL     1      48.616   2.676  16.816  0.00  0.00    +0.000 A 
ATOM     16  N   UNL     1      49.819   3.263  16.997  0.00  0.00    +0.000 NA
ENDBRANCH  10  11
ENDBRANCH   9  10
ENDBRANCH   7   9
ENDBRANCH   1   7
BRANCH   4  17
ATOM     17  C   UNL     1      47.511   9.272  13.093  0.00  0.00    +0.000 C 
BRANCH  17  18
ATOM     18  N   UNL     1      46.270   8.492  12.903  0.00  0.00    +0.000 NA
ATOM     19  C   UNL     1      45.136   9.363  12.562  0.00  0.00    +0.000 C 
BRANCH  18  20
ATOM     20  C   UNL     1      46.430   7.475  11.840  0.00  0.00    +0.000 C 
BRANCH  20  21
ATOM     21  C   UNL     1      46.251   6.095  12.415  0.00  0.00    +0.000 A 
ATOM     22  C   UNL     1      47.197   5.456  13.203  0.00  0.00    +0.000 A 
ATOM     23  S   UNL     1      46.796   3.833  13.545  0.00  0.00    +0.000 S 
ATOM     24  C   UNL     1      45.306   3.967  12.734  0.00  0.00    +0.000 A 
ATOM     25  N   UNL     1      44.449   2.913  12.649  0.00  0.00    +0.000 NA
ATOM     26  C   UNL     1      43.335   3.180  12.051  0.00  0.00    +0.000 A 
ATOM     27  N   UNL     1      43.001   4.403  11.524  0.00  0.00    +0.000 N 
ATOM     28  C   UNL     1      43.845   5.489  11.553  0.00  0.00    +0.000 A 
ATOM     29  O   UNL     1      43.522   6.566  11.062  0.00  0.00    +0.000 OA
ATOM     30  C   UNL     1      45.113   5.235  12.219  0.00  0.00    +0.000 A 
ATOM     31  H   UNL     1      42.104   4.549  11.087  0.00  0.00    +0.000 HD
ENDBRANCH  20  21
ENDBRANCH  18  20
ENDBRANCH  17  18
ENDBRANCH   4  17
TORSDOF 8
ENDMDL
MODEL 7
REMARK VINA RESULT:    -6.336      3.419      6.205
REMARK INTER + INTRA:         -10.391
REMARK INTER:                 -10.193
REMARK INTRA:                  -0.198
REMARK UNBOUND:                -1.092
REMARK  Name = 
REMARK  10 active torsions:
REMARK  status: ('A' for Active; 'I' for Inactive)
REMARK    1  A    between atoms: C_1  and  N_2
REMARK    2  A    between atoms: N_2  and  C_3
REMARK    3  A    between atoms: N_2  and  C_10
REMARK    4  A    between atoms: C_3  and  C_4
REMARK    5  A    between atoms: C_10  and  C_11
REMARK    6  A    between atoms: C_14  and  C_15
REMARK    7  A    between atoms: C_15  and  N_16
REMARK    8  A    between atoms: N_16  and  C_17
REMARK    9  A    between atoms: N_16  and  C_18
REMARK   10  A    between atoms: C_18  and  C_19
REMARK                            x       y       z     vdW  Elec       q    Type
REMARK                         _______ _______ _______ _____ _____    ______ ____
ROOT
ATOM      1  C   UNL     1      45.584   3.180   7.838  0.00  0.00    +0.000 A 
ATOM      2  C   UNL     1      44.905   2.318   8.702  0.00  0.00    +0.000 A 
ATOM      3  C   UNL     1      44.528   2.789   9.954  0.00  0.00    +0.000 A 
ATOM      4  C   UNL     1      44.857   4.090  10.330  0.00  0.00    +0.000 A 
ATOM      5  C   UNL     1      45.504   4.889   9.394  0.00  0.00    +0.000 A 
ATOM      6  N   UNL     1      45.868   4.465   8.165  0.00  0.00    +0.000 NA
ENDROOT
BRANCH   1   7
ATOM      7  C   UNL     1      46.058   2.699   6.482  0.00  0.00    +0.000 C 
BRANCH   7   9
ATOM      8  C   UNL     1      47.165   0.611   6.984  0.00  0.00    +0.000 C 
ATOM      9  N   UNL     1      47.358   1.986   6.505  0.00  0.00    +0.000 NA
BRANCH   9  10
ATOM     10  C   UNL     1      47.924   1.945   5.133  0.00  0.00    +0.000 C 
BRANCH  10  11
ATOM     11  C   UNL     1      47.170   1.042   4.173  0.00  0.00    +0.000 A 
ATOM     12  C   UNL     1      46.112   1.541   3.414  0.00  0.00    +0.000 A 
ATOM     13  C   UNL     1      45.411   0.671   2.584  0.00  0.00    +0.000 A 
ATOM     14  C   UNL     1      45.783  -0.667   2.531  0.00  0.00    +0.000 A 
ATOM     15  C   UNL     1      46.847  -1.082   3.313  0.00  0.00    +0.000 A 
ATOM     16  N   UNL     1      47.544  -0.264   4.129  0.00  0.00    +0.000 NA
ENDBRANCH  10  11
ENDBRANCH   9  10
ENDBRANCH   7   9
ENDBRANCH   1   7
BRANCH   4  17
ATOM     17  C   UNL     1      44.591   4.618  11.716  0.00  0.00    +0.000 C 
BRANCH  17  18
ATOM     18  N   UNL     1      44.407   6.084  11.739  0.00  0.00    +0.000 NA
ATOM     19  C   UNL     1      42.991   6.449  11.584  0.00  0.00    +0.000 C 
BRANCH  18  20
ATOM     20  C   UNL     1      44.917   6.671  12.998  0.00  0.00    +0.000 C 
BRANCH  20  21
ATOM     21  C   UNL     1      45.865   7.800  12.692  0.00  0.00    +0.000 A 
ATOM     22  C   UNL     1      45.466   9.112  12.481  0.00  0.00    +0.000 A 
ATOM     23  S   UNL     1      46.740  10.125  11.968  0.00  0.00    +0.000 S 
ATOM     24  C   UNL     1      47.877   8.866  12.106  0.00  0.00    +0.000 A 
ATOM     25  N   UNL     1      49.191   9.064  11.811  0.00  0.00    +0.000 NA
ATOM     26  C   UNL     1      49.942   8.033  12.015  0.00  0.00    +0.000 A 
ATOM     27  N   UNL     1      49.501   6.820  12.483  0.00  0.00    +0.000 N 
ATOM     28  C   UNL     1      48.180   6.560  12.763  0.00  0.00    +0.000 A 
ATOM     29  O   UNL     1      47.815   5.460  13.168  0.00  0.00    +0.000 OA
ATOM     30  C   UNL     1      47.294   7.693  12.548  0.00  0.00    +0.000 A 
ATOM     31  H   UNL     1      50.147   6.062  12.639  0.00  0.00    +0.000 HD
ENDBRANCH  20  21
ENDBRANCH  18  20
ENDBRANCH  17  18
ENDBRANCH   4  17
TORSDOF 8
ENDMDL
MODEL 8
REMARK VINA RESULT:    -6.332      2.161      2.880
REMARK INTER + INTRA:         -10.385
REMARK INTER:                  -9.377
REMARK INTRA:                  -1.008
REMARK UNBOUND:                -1.092
REMARK  Name = 
REMARK  10 active torsions:
REMARK  status: ('A' for Active; 'I' for Inactive)
REMARK    1  A    between atoms: C_1  and  N_2
REMARK    2  A    between atoms: N_2  and  C_3
REMARK    3  A    between atoms: N_2  and  C_10
REMARK    4  A    between atoms: C_3  and  C_4
REMARK    5  A    between atoms: C_10  and  C_11
REMARK    6  A    between atoms: C_14  and  C_15
REMARK    7  A    between atoms: C_15  and  N_16
REMARK    8  A    between atoms: N_16  and  C_17
REMARK    9  A    between atoms: N_16  and  C_18
REMARK   10  A    between atoms: C_18  and  C_19
REMARK                            x       y       z     vdW  Elec       q    Type
REMARK                         _______ _______ _______ _____ _____    ______ ____
ROOT
ATOM      1  C   UNL     1      45.214   5.989  12.038  0.00  0.00    +0.000 A 
ATOM      2  C   UNL     1      45.200   7.384  11.986  0.00  0.00    +0.000 A 
ATOM      3  C   UNL     1      46.221   8.085  12.617  0.00  0.00    +0.000 A 
ATOM      4  C   UNL     1      47.213   7.391  13.305  0.00  0.00    +0.000 A 
ATOM      5  C   UNL     1      47.168   6.001  13.276  0.00  0.00    +0.000 A 
ATOM      6  N   UNL     1      46.198   5.292  12.658  0.00  0.00    +0.000 NA
ENDROOT
BRANCH   1   7
ATOM      7  C   UNL     1      44.098   5.181  11.408  0.00  0.00    +0.000 C 
BRANCH   7   9
ATOM      8  C   UNL     1      43.745   2.891  12.094  0.00  0.00    +0.000 C 
ATOM      9  N   UNL     1      44.443   3.763  11.140  0.00  0.00    +0.000 NA
BRANCH   9  10
ATOM     10  C   UNL     1      44.027   3.404   9.762  0.00  0.00    +0.000 C 
BRANCH  10  11
ATOM     11  C   UNL     1      45.172   3.012   8.845  0.00  0.00    +0.000 A 
ATOM     12  C   UNL     1      45.789   3.964   8.036  0.00  0.00    +0.000 A 
ATOM     13  C   UNL     1      46.800   3.557   7.169  0.00  0.00    +0.000 A 
ATOM     14  C   UNL     1      47.169   2.218   7.135  0.00  0.00    +0.000 A 
ATOM     15  C   UNL     1      46.510   1.336   7.973  0.00  0.00    +0.000 A 
ATOM     16  N   UNL     1      45.524   1.699   8.822  0.00  0.00    +0.000 NA
ENDBRANCH  10  11
ENDBRANCH   9  10
ENDBRANCH   7   9
ENDBRANCH   1   7
BRANCH   4  17
ATOM     17  C   UNL     1      48.272   8.093  14.113  0.00  0.00    +0.000 C 
BRANCH  17  18
ATOM     18  N   UNL     1      49.588   7.424  14.029  0.00  0.00    +0.000 NA
ATOM     19  C   UNL     1      50.367   7.916  12.884  0.00  0.00    +0.000 C 
BRANCH  18  20
ATOM     20  C   UNL     1      50.375   7.624  15.266  0.00  0.00    +0.000 C 
BRANCH  20  21
ATOM     21  C   UNL     1      49.621   7.081  16.450  0.00  0.00    +0.000 A 
ATOM     22  C   UNL     1      49.457   5.728  16.711  0.00  0.00    +0.000 A 
ATOM     23  S   UNL     1      48.398   5.420  18.013  0.00  0.00    +0.000 S 
ATOM     24  C   UNL     1      48.204   7.082  18.326  0.00  0.00    +0.000 A 
ATOM     25  N   UNL     1      47.406   7.523  19.337  0.00  0.00    +0.000 NA
ATOM     26  C   UNL     1      47.400   8.806  19.487  0.00  0.00    +0.000 A 
ATOM     27  N   UNL     1      48.114   9.690  18.718  0.00  0.00    +0.000 N 
ATOM     28  C   UNL     1      48.908   9.298  17.665  0.00  0.00    +0.000 A 
ATOM     29  O   UNL     1      49.524  10.114  16.988  0.00  0.00    +0.000 OA
ATOM     30  C   UNL     1      48.946   7.859  17.456  0.00  0.00    +0.000 A 
ATOM     31  H   UNL     1      48.080  10.681  18.904  0.00  0.00    +0.000 HD
ENDBRANCH  20  21
ENDBRANCH  18  20
ENDBRANCH  17  18
ENDBRANCH   4  17
TORSDOF 8
ENDMDL
MODEL 9
REMARK VINA RESULT:    -6.032      2.191      3.894
REMARK INTER + INTRA:          -9.945
REMARK INTER:                  -8.556
REMARK INTRA:                  -1.389
REMARK UNBOUND:                -1.092
REMARK  Name = 
REMARK  10 active torsions:
REMARK  status: ('A' for Active; 'I' for Inactive)
REMARK    1  A    between atoms: C_1  and  N_2
REMARK    2  A    between atoms: N_2  and  C_3
REMARK    3  A    between atoms: N_2  and  C_10
REMARK    4  A    between atoms: C_3  and  C_4
REMARK    5  A    between atoms: C_10  and  C_11
REMARK    6  A    between atoms: C_14  and  C_15
REMARK    7  A    between atoms: C_15  and  N_16
REMARK    8  A    between atoms: N_16  and  C_17
REMARK    9  A    between atoms: N_16  and  C_18
REMARK   10  A    between atoms: C_18  and  C_19
REMARK                            x       y       z     vdW  Elec       q    Type
REMARK                         _______ _______ _______ _____ _____    ______ ____
ROOT
ATOM      1  C   UNL     1      48.524   7.859  14.404  0.00  0.00    +0.000 A 
ATOM      2  C   UNL     1      48.117   8.920  15.217  0.00  0.00    +0.000 A 
ATOM      3  C   UNL     1      48.569   8.965  16.531  0.00  0.00    +0.000 A 
ATOM      4  C   UNL     1      49.387   7.947  17.015  0.00  0.00    +0.000 A 
ATOM      5  C   UNL     1      49.771   6.948  16.126  0.00  0.00    +0.000 A 
ATOM      6  N   UNL     1      49.362   6.887  14.841  0.00  0.00    +0.000 NA
ENDROOT
BRANCH   1   7
ATOM      7  C   UNL     1      48.020   7.740  12.981  0.00  0.00    +0.000 C 
BRANCH   7   9
ATOM      8  C   UNL     1      45.688   8.271  12.640  0.00  0.00    +0.000 C 
ATOM      9  N   UNL     1      46.651   7.184  12.860  0.00  0.00    +0.000 NA
BRANCH   9  10
ATOM     10  C   UNL     1      46.596   6.250  11.708  0.00  0.00    +0.000 C 
BRANCH  10  11
ATOM     11  C   UNL     1      45.380   5.340  11.698  0.00  0.00    +0.000 A 
ATOM     12  C   UNL     1      45.064   4.567  12.814  0.00  0.00    +0.000 A 
ATOM     13  C   UNL     1      43.972   3.705  12.748  0.00  0.00    +0.000 A 
ATOM     14  C   UNL     1      43.226   3.641  11.578  0.00  0.00    +0.000 A 
ATOM     15  C   UNL     1      43.603   4.444  10.515  0.00  0.00    +0.000 A 
ATOM     16  N   UNL     1      44.658   5.286  10.547  0.00  0.00    +0.000 NA
ENDBRANCH  10  11
ENDBRANCH   9  10
ENDBRANCH   7   9
ENDBRANCH   1   7
BRANCH   4  17
ATOM     17  C   UNL     1      49.806   7.870  18.460  0.00  0.00    +0.000 C 
BRANCH  17  18
ATOM     18  N   UNL     1      50.910   6.914  18.682  0.00  0.00    +0.000 NA
ATOM     19  C   UNL     1      52.055   7.561  19.339  0.00  0.00    +0.000 C 
BRANCH  18  20
ATOM     20  C   UNL     1      50.472   5.765  19.505  0.00  0.00    +0.000 C 
BRANCH  20  21
ATOM     21  C   UNL     1      50.736   4.476  18.773  0.00  0.00    +0.000 A 
ATOM     22  C   UNL     1      51.962   3.827  18.762  0.00  0.00    +0.000 A 
ATOM     23  S   UNL     1      52.006   2.498  17.694  0.00  0.00    +0.000 S 
ATOM     24  C   UNL     1      50.365   2.691  17.289  0.00  0.00    +0.000 A 
ATOM     25  N   UNL     1      49.752   1.860  16.402  0.00  0.00    +0.000 NA
ATOM     26  C   UNL     1      48.493   2.096  16.236  0.00  0.00    +0.000 A 
ATOM     27  N   UNL     1      47.789   3.090  16.870  0.00  0.00    +0.000 N 
ATOM     28  C   UNL     1      48.369   3.976  17.749  0.00  0.00    +0.000 A 
ATOM     29  O   UNL     1      47.716   4.862  18.290  0.00  0.00    +0.000 OA
ATOM     30  C   UNL     1      49.789   3.749  17.968  0.00  0.00    +0.000 A 
ATOM     31  H   UNL     1      46.801   3.206  16.710  0.00  0.00    +0.000 HD
ENDBRANCH  20  21
ENDBRANCH  18  20
ENDBRANCH  17  18
ENDBRANCH   4  17
TORSDOF 8
ENDMDL
