MODEL 1
REMARK VINA RESULT:    -6.366      0.000      0.000
REMARK INTER + INTRA:          -9.434
REMARK INTER:                  -8.785
REMARK INTRA:                  -0.649
REMARK UNBOUND:                -0.649
REMARK  Name = 
REMARK  8 active torsions:
REMARK  status: ('A' for Active; 'I' for Inactive)
REMARK    1  A    between atoms: C_1  and  S_2
REMARK    2  A    between atoms: S_2  and  C_3
REMARK    3  A    between atoms: C_5  and  C_6
REMARK    4  A    between atoms: C_11  and  C_12
REMARK    5  A    between atoms: C_13  and  C_14
REMARK    6  A    between atoms: C_14  and  C_15
REMARK    7  A    between atoms: C_19  and  C_20
REMARK    8  A    between atoms: C_20  and  N_21
REMARK                            x       y       z     vdW  Elec       q    Type
REMARK                         _______ _______ _______ _____ _____    ______ ____
ROOT
ATOM      1  C   UNL     1      48.452   6.144  14.972  0.00  0.00    +0.000 A 
ATOM      2  N   UNL     1      49.050   5.840  16.157  0.00  0.00    +0.000 NA
ATOM      3  C   UNL     1      48.594   4.750  16.821  0.00  0.00    +0.000 A 
ATOM      4  C   UNL     1      47.561   3.948  16.359  0.00  0.00    +0.000 A 
ATOM      5  C   UNL     1      46.934   4.299  15.163  0.00  0.00    +0.000 A 
ATOM      6  C   UNL     1      47.377   5.414  14.446  0.00  0.00    +0.000 A 
ENDROOT
BRANCH   3   7
ATOM      7  C   UNL     1      49.272   4.423  18.119  0.00  0.00    +0.000 C 
ATOM      8  N   UNL     1      48.784   3.352  18.822  0.00  0.00    +0.000 N 
ATOM      9  O   UNL     1      50.221   5.072  18.535  0.00  0.00    +0.000 OA
ATOM     10  H   UNL     1      48.027   2.789  18.456  0.00  0.00    +0.000 HD
ATOM     11  H   UNL     1      49.241   3.086  19.682  0.00  0.00    +0.000 HD
ENDBRANCH   3   7
BRANCH   1  13
ATOM     12  C   UNL     1      48.115   8.853  14.825  0.00  0.00    +0.000 C 
ATOM     13  S   UNL     1      49.155   7.551  14.116  0.00  0.00    +0.000 S 
ENDBRANCH   1  13
BRANCH   6  14
ATOM     14  C   UNL     1      46.743   5.727  13.198  0.00  0.00    +0.000 C 
ATOM     15  C   UNL     1      46.194   5.971  12.151  0.00  0.00    +0.000 C 
BRANCH  15  16
ATOM     16  C   UNL     1      45.532   6.219  10.860  0.00  0.00    +0.000 C 
BRANCH  16  17
ATOM     17  C   UNL     1      45.256   4.945  10.097  0.00  0.00    +0.000 A 
ATOM     18  C   UNL     1      44.525   3.903  10.681  0.00  0.00    +0.000 A 
ATOM     19  C   UNL     1      44.311   2.715   9.982  0.00  0.00    +0.000 A 
ATOM     20  C   UNL     1      44.841   2.550   8.701  0.00  0.00    +0.000 A 
ATOM     21  C   UNL     1      45.575   3.576   8.090  0.00  0.00    +0.000 A 
ATOM     22  C   UNL     1      45.774   4.771   8.802  0.00  0.00    +0.000 A 
BRANCH  21  23
ATOM     23  C   UNL     1      46.226   3.330   6.749  0.00  0.00    +0.000 C 
BRANCH  23  24
ATOM     24  N   UNL     1      47.683   3.263   6.810  0.00  0.00    +0.000 NA
ATOM     25  H   UNL     1      47.958   2.297   6.981  0.00  0.00    +0.000 HD
ATOM     26  H   UNL     1      48.003   3.800   7.614  0.00  0.00    +0.000 HD
ENDBRANCH  23  24
ENDBRANCH  21  23
ENDBRANCH  16  17
ENDBRANCH  15  16
ENDBRANCH   6  14
TORSDOF 7
ENDMDL
MODEL 2
REMARK VINA RESULT:    -6.296      2.131      3.230
REMARK INTER + INTRA:          -9.338
REMARK INTER:                  -8.714
REMARK INTRA:                  -0.624
REMARK UNBOUND:                -0.649
REMARK  Name = 
REMARK  8 active torsions:
REMARK  status: ('A' for Active; 'I' for Inactive)
REMARK    1  A    between atoms: C_1  and  S_2
REMARK    2  A    between atoms: S_2  and  C_3
REMARK    3  A    between atoms: C_5  and  C_6
REMARK    4  A    between atoms: C_11  and  C_12
REMARK    5  A    between atoms: C_13  and  C_14
REMARK    6  A    between atoms: C_14  and  C_15
REMARK    7  A    between atoms: C_19  and  C_20
REMARK    8  A    between atoms: C_20  and  N_21
REMARK                            x       y       z     vdW  Elec       q    Type
REMARK                         _______ _______ _______ _____ _____    ______ ____
ROOT
ATOM      1  C   UNL     1      47.612   5.873  13.681  0.00  0.00    +0.000 A 
ATOM      2  N   UNL     1      48.572   6.374  14.507  0.00  0.00    +0.000 NA
ATOM      3  C   UNL     1      49.191   7.517  14.119  0.00  0.00    +0.000 A 
ATOM      4  C   UNL     1      48.899   8.182  12.937  0.00  0.00    +0.000 A 
ATOM      5  C   UNL     1      47.941   7.631  12.086  0.00  0.00    +0.000 A 
ATOM      6  C   UNL     1      47.277   6.457  12.451  0.00  0.00    +0.000 A 
ENDROOT
BRANCH   3   7
ATOM      7  C   UNL     1      50.237   8.061  15.046  0.00  0.00    +0.000 C 
ATOM      8  N   UNL     1      51.271   7.221  15.376  0.00  0.00    +0.000 N 
ATOM      9  O   UNL     1      50.184   9.199  15.487  0.00  0.00    +0.000 OA
ATOM     10  H   UNL     1      51.338   6.294  14.976  0.00  0.00    +0.000 HD
ATOM     11  H   UNL     1      52.009   7.569  15.970  0.00  0.00    +0.000 HD
ENDBRANCH   3   7
BRANCH   1  13
ATOM     12  C   UNL     1      47.489   4.373  15.964  0.00  0.00    +0.000 C 
ATOM     13  S   UNL     1      46.788   4.406  14.294  0.00  0.00    +0.000 S 
ENDBRANCH   1  13
BRANCH   6  14
ATOM     14  C   UNL     1      46.267   5.935  11.577  0.00  0.00    +0.000 C 
ATOM     15  C   UNL     1      45.425   5.472  10.847  0.00  0.00    +0.000 C 
BRANCH  15  16
ATOM     16  C   UNL     1      44.434   4.881   9.933  0.00  0.00    +0.000 C 
BRANCH  16  17
ATOM     17  C   UNL     1      45.013   3.763   9.098  0.00  0.00    +0.000 A 
ATOM     18  C   UNL     1      44.837   2.424   9.470  0.00  0.00    +0.000 A 
ATOM     19  C   UNL     1      45.410   1.402   8.713  0.00  0.00    +0.000 A 
ATOM     20  C   UNL     1      46.179   1.707   7.589  0.00  0.00    +0.000 A 
ATOM     21  C   UNL     1      46.371   3.038   7.191  0.00  0.00    +0.000 A 
ATOM     22  C   UNL     1      45.780   4.057   7.958  0.00  0.00    +0.000 A 
BRANCH  21  23
ATOM     23  C   UNL     1      47.294   3.345   6.036  0.00  0.00    +0.000 C 
BRANCH  23  24
ATOM     24  N   UNL     1      48.484   2.500   5.999  0.00  0.00    +0.000 NA
ATOM     25  H   UNL     1      48.931   2.525   6.914  0.00  0.00    +0.000 HD
ATOM     26  H   UNL     1      49.152   2.902   5.342  0.00  0.00    +0.000 HD
ENDBRANCH  23  24
ENDBRANCH  21  23
ENDBRANCH  16  17
ENDBRANCH  15  16
ENDBRANCH   6  14
TORSDOF 7
ENDMDL
MODEL 3
REMARK VINA RESULT:    -6.193      3.384      8.168
REMARK INTER + INTRA:          -9.195
REMARK INTER:                  -8.548
REMARK INTRA:                  -0.647
REMARK UNBOUND:                -0.649
REMARK  Name = 
REMARK  8 active torsions:
REMARK  status: ('A' for Active; 'I' for Inactive)
REMARK    1  A    between atoms: C_1  and  S_2
REMARK    2  A    between atoms: S_2  and  C_3
REMARK    3  A    between atoms: C_5  and  C_6
REMARK    4  A    between atoms: C_11  and  C_12
REMARK    5  A    between atoms: C_13  and  C_14
REMARK    6  A    between atoms: C_14  and  C_15
REMARK    7  A    between atoms: C_19  and  C_20
REMARK    8  A    between atoms: C_20  and  N_21
REMARK                            x       y       z     vdW  Elec       q    Type
REMARK                         _______ _______ _______ _____ _____    ______ ____
ROOT
ATOM      1  C   UNL     1      46.650   5.719  12.807  0.00  0.00    +0.000 A 
ATOM      2  N   UNL     1      46.215   5.838  11.522  0.00  0.00    +0.000 NA
ATOM      3  C   UNL     1      45.602   4.761  10.972  0.00  0.00    +0.000 A 
ATOM      4  C   UNL     1      45.408   3.564  11.645  0.00  0.00    +0.000 A 
ATOM      5  C   UNL     1      45.897   3.449  12.946  0.00  0.00    +0.000 A 
ATOM      6  C   UNL     1      46.531   4.537  13.551  0.00  0.00    +0.000 A 
ENDROOT
BRANCH   3   7
ATOM      7  C   UNL     1      45.118   4.914   9.560  0.00  0.00    +0.000 C 
ATOM      8  N   UNL     1      43.803   4.608   9.318  0.00  0.00    +0.000 N 
ATOM      9  O   UNL     1      45.852   5.298   8.662  0.00  0.00    +0.000 OA
ATOM     10  H   UNL     1      43.184   4.332  10.070  0.00  0.00    +0.000 HD
ATOM     11  H   UNL     1      43.438   4.733   8.385  0.00  0.00    +0.000 HD
ENDBRANCH   3   7
BRANCH   1  13
ATOM     12  C   UNL     1      49.086   6.955  12.931  0.00  0.00    +0.000 C 
ATOM     13  S   UNL     1      47.382   7.204  13.490  0.00  0.00    +0.000 S 
ENDBRANCH   1  13
BRANCH   6  14
ATOM     14  C   UNL     1      46.987   4.405  14.905  0.00  0.00    +0.000 C 
ATOM     15  C   UNL     1      47.387   4.278  16.036  0.00  0.00    +0.000 C 
BRANCH  15  16
ATOM     16  C   UNL     1      47.873   4.071  17.410  0.00  0.00    +0.000 C 
BRANCH  16  17
ATOM     17  C   UNL     1      49.380   4.112  17.503  0.00  0.00    +0.000 A 
ATOM     18  C   UNL     1      50.075   5.320  17.363  0.00  0.00    +0.000 A 
ATOM     19  C   UNL     1      51.469   5.340  17.410  0.00  0.00    +0.000 A 
ATOM     20  C   UNL     1      52.183   4.152  17.579  0.00  0.00    +0.000 A 
ATOM     21  C   UNL     1      51.514   2.928  17.724  0.00  0.00    +0.000 A 
ATOM     22  C   UNL     1      50.110   2.925  17.684  0.00  0.00    +0.000 A 
BRANCH  21  23
ATOM     23  C   UNL     1      52.312   1.647  17.797  0.00  0.00    +0.000 C 
BRANCH  23  24
ATOM     24  N   UNL     1      51.491   0.458  18.005  0.00  0.00    +0.000 NA
ATOM     25  H   UNL     1      51.829  -0.283  17.394  0.00  0.00    +0.000 HD
ATOM     26  H   UNL     1      50.537   0.662  17.710  0.00  0.00    +0.000 HD
ENDBRANCH  23  24
ENDBRANCH  21  23
ENDBRANCH  16  17
ENDBRANCH  15  16
ENDBRANCH   6  14
TORSDOF 7
ENDMDL
MODEL 4
REMARK VINA RESULT:    -5.969      1.839      2.408
REMARK INTER + INTRA:          -8.886
REMARK INTER:                  -8.291
REMARK INTRA:                  -0.595
REMARK UNBOUND:                -0.649
REMARK  Name = 
REMARK  8 active torsions:
REMARK  status: ('A' for Active; 'I' for Inactive)
REMARK    1  A    between atoms: C_1  and  S_2
REMARK    2  A    between atoms: S_2  and  C_3
REMARK    3  A    between atoms: C_5  and  C_6
REMARK    4  A    between atoms: C_11  and  C_12
REMARK    5  A    between atoms: C_13  and  C_14
REMARK    6  A    between atoms: C_14  and  C_15
REMARK    7  A    between atoms: C_19  and  C_20
REMARK    8  A    between atoms: C_20  and  N_21
REMARK                            x       y       z     vdW  Elec       q    Type
REMARK                         _______ _______ _______ _____ _____    ______ ____
ROOT
ATOM      1  C   UNL     1      47.393   5.728  13.776  0.00  0.00    +0.000 A 
ATOM      2  N   UNL     1      48.111   6.221  14.822  0.00  0.00    +0.000 NA
ATOM      3  C   UNL     1      48.187   5.455  15.939  0.00  0.00    +0.000 A 
ATOM      4  C   UNL     1      47.573   4.217  16.061  0.00  0.00    +0.000 A 
ATOM      5  C   UNL     1      46.809   3.748  14.993  0.00  0.00    +0.000 A 
ATOM      6  C   UNL     1      46.709   4.505  13.822  0.00  0.00    +0.000 A 
ENDROOT
BRANCH   3   7
ATOM      7  C   UNL     1      48.991   6.008  17.078  0.00  0.00    +0.000 C 
ATOM      8  N   UNL     1      50.161   5.361  17.383  0.00  0.00    +0.000 N 
ATOM      9  O   UNL     1      48.632   6.993  17.706  0.00  0.00    +0.000 OA
ATOM     10  H   UNL     1      50.480   4.573  16.835  0.00  0.00    +0.000 HD
ATOM     11  H   UNL     1      50.742   5.730  18.122  0.00  0.00    +0.000 HD
ENDBRANCH   3   7
BRANCH   1  13
ATOM     12  C   UNL     1      46.507   8.188  12.976  0.00  0.00    +0.000 C 
ATOM     13  S   UNL     1      47.399   6.759  12.311  0.00  0.00    +0.000 S 
ENDBRANCH   1  13
BRANCH   6  14
ATOM     14  C   UNL     1      45.952   3.980  12.723  0.00  0.00    +0.000 C 
ATOM     15  C   UNL     1      45.319   3.559  11.786  0.00  0.00    +0.000 C 
BRANCH  15  16
ATOM     16  C   UNL     1      44.520   3.089  10.642  0.00  0.00    +0.000 C 
BRANCH  16  17
ATOM     17  C   UNL     1      45.295   3.114   9.346  0.00  0.00    +0.000 A 
ATOM     18  C   UNL     1      45.434   4.302   8.616  0.00  0.00    +0.000 A 
ATOM     19  C   UNL     1      46.117   4.305   7.400  0.00  0.00    +0.000 A 
ATOM     20  C   UNL     1      46.651   3.120   6.892  0.00  0.00    +0.000 A 
ATOM     21  C   UNL     1      46.529   1.916   7.601  0.00  0.00    +0.000 A 
ATOM     22  C   UNL     1      45.846   1.930   8.829  0.00  0.00    +0.000 A 
BRANCH  21  23
ATOM     23  C   UNL     1      47.022   0.631   6.978  0.00  0.00    +0.000 C 
BRANCH  23  24
ATOM     24  N   UNL     1      46.689  -0.560   7.754  0.00  0.00    +0.000 NA
ATOM     25  H   UNL     1      47.212  -0.537   8.628  0.00  0.00    +0.000 HD
ATOM     26  H   UNL     1      47.012  -1.383   7.247  0.00  0.00    +0.000 HD
ENDBRANCH  23  24
ENDBRANCH  21  23
ENDBRANCH  16  17
ENDBRANCH  15  16
ENDBRANCH   6  14
TORSDOF 7
ENDMDL
MODEL 5
REMARK VINA RESULT:    -5.934      2.709      3.308
REMARK INTER + INTRA:          -8.838
REMARK INTER:                  -8.217
REMARK INTRA:                  -0.621
REMARK UNBOUND:                -0.649
REMARK  Name = 
REMARK  8 active torsions:
REMARK  status: ('A' for Active; 'I' for Inactive)
REMARK    1  A    between atoms: C_1  and  S_2
REMARK    2  A    between atoms: S_2  and  C_3
REMARK    3  A    between atoms: C_5  and  C_6
REMARK    4  A    between atoms: C_11  and  C_12
REMARK    5  A    between atoms: C_13  and  C_14
REMARK    6  A    between atoms: C_14  and  C_15
REMARK    7  A    between atoms: C_19  and  C_20
REMARK    8  A    between atoms: C_20  and  N_21
REMARK                            x       y       z     vdW  Elec       q    Type
REMARK                         _______ _______ _______ _____ _____    ______ ____
ROOT
ATOM      1  C   UNL     1      46.310   7.999  12.748  0.00  0.00    +0.000 A 
ATOM      2  N   UNL     1      47.117   8.610  13.658  0.00  0.00    +0.000 NA
ATOM      3  C   UNL     1      48.080   7.853  14.241  0.00  0.00    +0.000 A 
ATOM      4  C   UNL     1      48.270   6.509  13.961  0.00  0.00    +0.000 A 
ATOM      5  C   UNL     1      47.408   5.892  13.056  0.00  0.00    +0.000 A 
ATOM      6  C   UNL     1      46.405   6.637  12.430  0.00  0.00    +0.000 A 
ENDROOT
BRANCH   3   7
ATOM      7  C   UNL     1      48.967   8.545  15.233  0.00  0.00    +0.000 C 
ATOM      8  N   UNL     1      50.167   7.944  15.518  0.00  0.00    +0.000 N 
ATOM      9  O   UNL     1      48.648   9.599  15.763  0.00  0.00    +0.000 OA
ATOM     10  H   UNL     1      50.450   7.094  15.047  0.00  0.00    +0.000 HD
ATOM     11  H   UNL     1      50.801   8.402  16.155  0.00  0.00    +0.000 HD
ENDBRANCH   3   7
BRANCH   1  13
ATOM     12  C   UNL     1      46.143  10.558  11.797  0.00  0.00    +0.000 C 
ATOM     13  S   UNL     1      45.113   9.077  11.966  0.00  0.00    +0.000 S 
ENDBRANCH   1  13
BRANCH   6  14
ATOM     14  C   UNL     1      45.559   5.988  11.471  0.00  0.00    +0.000 C 
ATOM     15  C   UNL     1      44.849   5.420  10.678  0.00  0.00    +0.000 C 
BRANCH  15  16
ATOM     16  C   UNL     1      44.017   4.689   9.707  0.00  0.00    +0.000 C 
BRANCH  16  17
ATOM     17  C   UNL     1      44.787   3.610   8.983  0.00  0.00    +0.000 A 
ATOM     18  C   UNL     1      44.688   2.270   9.380  0.00  0.00    +0.000 A 
ATOM     19  C   UNL     1      45.435   1.286   8.731  0.00  0.00    +0.000 A 
ATOM     20  C   UNL     1      46.300   1.633   7.692  0.00  0.00    +0.000 A 
ATOM     21  C   UNL     1      46.418   2.966   7.271  0.00  0.00    +0.000 A 
ATOM     22  C   UNL     1      45.653   3.944   7.928  0.00  0.00    +0.000 A 
BRANCH  21  23
ATOM     23  C   UNL     1      47.439   3.327   6.219  0.00  0.00    +0.000 C 
BRANCH  23  24
ATOM     24  N   UNL     1      48.675   2.557   6.315  0.00  0.00    +0.000 NA
ATOM     25  H   UNL     1      48.451   1.619   6.643  0.00  0.00    +0.000 HD
ATOM     26  H   UNL     1      49.269   2.977   7.029  0.00  0.00    +0.000 HD
ENDBRANCH  23  24
ENDBRANCH  21  23
ENDBRANCH  16  17
ENDBRANCH  15  16
ENDBRANCH   6  14
TORSDOF 7
ENDMDL
MODEL 6
REMARK VINA RESULT:    -5.710      3.401      7.869
REMARK INTER + INTRA:          -8.528
REMARK INTER:                  -7.923
REMARK INTRA:                  -0.605
REMARK UNBOUND:                -0.649
REMARK  Name = 
REMARK  8 active torsions:
REMARK  status: ('A' for Active; 'I' for Inactive)
REMARK    1  A    between atoms: C_1  and  S_2
REMARK    2  A    between atoms: S_2  and  C_3
REMARK    3  A    between atoms: C_5  and  C_6
REMARK    4  A    between atoms: C_11  and  C_12
REMARK    5  A    between atoms: C_13  and  C_14
REMARK    6  A    between atoms: C_14  and  C_15
REMARK    7  A    between atoms: C_19  and  C_20
REMARK    8  A    between atoms: C_20  and  N_21
REMARK                            x       y       z     vdW  Elec       q    Type
REMARK                         _______ _______ _______ _____ _____    ______ ____
ROOT
ATOM      1  C   UNL     1      46.083   6.521  12.406  0.00  0.00    +0.000 A 
ATOM      2  N   UNL     1      45.171   6.005  11.536  0.00  0.00    +0.000 NA
ATOM      3  C   UNL     1      44.893   4.682  11.640  0.00  0.00    +0.000 A 
ATOM      4  C   UNL     1      45.490   3.846  12.571  0.00  0.00    +0.000 A 
ATOM      5  C   UNL     1      46.450   4.385  13.426  0.00  0.00    +0.000 A 
ATOM      6  C   UNL     1      46.762   5.745  13.355  0.00  0.00    +0.000 A 
ENDROOT
BRANCH   3   7
ATOM      7  C   UNL     1      43.878   4.133  10.681  0.00  0.00    +0.000 C 
ATOM      8  N   UNL     1      43.954   4.566   9.382  0.00  0.00    +0.000 N 
ATOM      9  O   UNL     1      43.024   3.332  11.031  0.00  0.00    +0.000 OA
ATOM     10  H   UNL     1      44.687   5.196   9.084  0.00  0.00    +0.000 HD
ATOM     11  H   UNL     1      43.306   4.189   8.705  0.00  0.00    +0.000 HD
ENDBRANCH   3   7
BRANCH   1  13
ATOM     12  C   UNL     1      44.726   8.749  11.586  0.00  0.00    +0.000 C 
ATOM     13  S   UNL     1      46.343   8.287  12.258  0.00  0.00    +0.000 S 
ENDBRANCH   1  13
BRANCH   6  14
ATOM     14  C   UNL     1      47.723   6.283  14.275  0.00  0.00    +0.000 C 
ATOM     15  C   UNL     1      48.550   6.728  15.032  0.00  0.00    +0.000 C 
BRANCH  15  16
ATOM     16  C   UNL     1      49.584   7.226  15.954  0.00  0.00    +0.000 C 
BRANCH  16  17
ATOM     17  C   UNL     1      50.356   6.109  16.616  0.00  0.00    +0.000 A 
ATOM     18  C   UNL     1      51.698   6.281  16.977  0.00  0.00    +0.000 A 
ATOM     19  C   UNL     1      52.414   5.229  17.550  0.00  0.00    +0.000 A 
ATOM     20  C   UNL     1      51.801   3.991  17.751  0.00  0.00    +0.000 A 
ATOM     21  C   UNL     1      50.458   3.790  17.402  0.00  0.00    +0.000 A 
ATOM     22  C   UNL     1      49.748   4.861  16.834  0.00  0.00    +0.000 A 
BRANCH  21  23
ATOM     23  C   UNL     1      49.853   2.413  17.531  0.00  0.00    +0.000 C 
BRANCH  23  24
ATOM     24  N   UNL     1      49.749   1.698  16.263  0.00  0.00    +0.000 NA
ATOM     25  H   UNL     1      48.855   1.929  15.830  0.00  0.00    +0.000 HD
ATOM     26  H   UNL     1      49.727   0.697  16.450  0.00  0.00    +0.000 HD
ENDBRANCH  23  24
ENDBRANCH  21  23
ENDBRANCH  16  17
ENDBRANCH  15  16
ENDBRANCH   6  14
TORSDOF 7
ENDMDL
MODEL 7
REMARK VINA RESULT:    -5.702      3.468      8.516
REMARK INTER + INTRA:          -8.517
REMARK INTER:                  -7.878
REMARK INTRA:                  -0.639
REMARK UNBOUND:                -0.649
REMARK  Name = 
REMARK  8 active torsions:
REMARK  status: ('A' for Active; 'I' for Inactive)
REMARK    1  A    between atoms: C_1  and  S_2
REMARK    2  A    between atoms: S_2  and  C_3
REMARK    3  A    between atoms: C_5  and  C_6
REMARK    4  A    between atoms: C_11  and  C_12
REMARK    5  A    between atoms: C_13  and  C_14
REMARK    6  A    between atoms: C_14  and  C_15
REMARK    7  A    between atoms: C_19  and  C_20
REMARK    8  A    between atoms: C_20  and  N_21
REMARK                            x       y       z     vdW  Elec       q    Type
REMARK                         _______ _______ _______ _____ _____    ______ ____
ROOT
ATOM      1  C   UNL     1      46.433   6.271  12.348  0.00  0.00    +0.000 A 
ATOM      2  N   UNL     1      45.550   5.808  11.421  0.00  0.00    +0.000 NA
ATOM      3  C   UNL     1      45.088   4.543  11.581  0.00  0.00    +0.000 A 
ATOM      4  C   UNL     1      45.473   3.714  12.624  0.00  0.00    +0.000 A 
ATOM      5  C   UNL     1      46.409   4.193  13.540  0.00  0.00    +0.000 A 
ATOM      6  C   UNL     1      46.906   5.493  13.414  0.00  0.00    +0.000 A 
ENDROOT
BRANCH   3   7
ATOM      7  C   UNL     1      44.107   4.054  10.557  0.00  0.00    +0.000 C 
ATOM      8  N   UNL     1      44.121   4.677   9.336  0.00  0.00    +0.000 N 
ATOM      9  O   UNL     1      43.332   3.138  10.789  0.00  0.00    +0.000 OA
ATOM     10  H   UNL     1      44.793   5.406   9.130  0.00  0.00    +0.000 HD
ATOM     11  H   UNL     1      43.497   4.348   8.614  0.00  0.00    +0.000 HD
ENDBRANCH   3   7
BRANCH   1  13
ATOM     12  C   UNL     1      45.536   8.793  12.911  0.00  0.00    +0.000 C 
ATOM     13  S   UNL     1      46.941   7.973  12.114  0.00  0.00    +0.000 S 
ENDBRANCH   1  13
BRANCH   6  14
ATOM     14  C   UNL     1      47.836   5.975  14.394  0.00  0.00    +0.000 C 
ATOM     15  C   UNL     1      48.613   6.360  15.233  0.00  0.00    +0.000 C 
BRANCH  15  16
ATOM     16  C   UNL     1      49.526   6.821  16.292  0.00  0.00    +0.000 C 
BRANCH  16  17
ATOM     17  C   UNL     1      48.844   6.933  17.635  0.00  0.00    +0.000 A 
ATOM     18  C   UNL     1      48.159   8.101  17.996  0.00  0.00    +0.000 A 
ATOM     19  C   UNL     1      47.567   8.210  19.254  0.00  0.00    +0.000 A 
ATOM     20  C   UNL     1      47.669   7.162  20.170  0.00  0.00    +0.000 A 
ATOM     21  C   UNL     1      48.346   5.980  19.837  0.00  0.00    +0.000 A 
ATOM     22  C   UNL     1      48.929   5.881  18.562  0.00  0.00    +0.000 A 
BRANCH  21  23
ATOM     23  C   UNL     1      48.533   4.907  20.883  0.00  0.00    +0.000 C 
BRANCH  23  24
ATOM     24  N   UNL     1      48.402   3.551  20.359  0.00  0.00    +0.000 NA
ATOM     25  H   UNL     1      47.454   3.222  20.537  0.00  0.00    +0.000 HD
ATOM     26  H   UNL     1      49.023   2.935  20.883  0.00  0.00    +0.000 HD
ENDBRANCH  23  24
ENDBRANCH  21  23
ENDBRANCH  16  17
ENDBRANCH  15  16
ENDBRANCH   6  14
TORSDOF 7
ENDMDL
MODEL 8
REMARK VINA RESULT:    -5.464      4.523      6.929
REMARK INTER + INTRA:          -8.189
REMARK INTER:                  -7.524
REMARK INTRA:                  -0.665
REMARK UNBOUND:                -0.649
REMARK  Name = 
REMARK  8 active torsions:
REMARK  status: ('A' for Active; 'I' for Inactive)
REMARK    1  A    between atoms: C_1  and  S_2
REMARK    2  A    between atoms: S_2  and  C_3
REMARK    3  A    between atoms: C_5  and  C_6
REMARK    4  A    between atoms: C_11  and  C_12
REMARK    5  A    between atoms: C_13  and  C_14
REMARK    6  A    between atoms: C_14  and  C_15
REMARK    7  A    between atoms: C_19  and  C_20
REMARK    8  A    between atoms: C_20  and  N_21
REMARK                            x       y       z     vdW  Elec       q    Type
REMARK                         _______ _______ _______ _____ _____    ______ ____
ROOT
ATOM      1  C   UNL     1      46.636   5.601  12.976  0.00  0.00    +0.000 A 
ATOM      2  N   UNL     1      45.761   4.560  13.025  0.00  0.00    +0.000 NA
ATOM      3  C   UNL     1      45.064   4.280  11.896  0.00  0.00    +0.000 A 
ATOM      4  C   UNL     1      45.198   4.998  10.717  0.00  0.00    +0.000 A 
ATOM      5  C   UNL     1      46.070   6.086  10.699  0.00  0.00    +0.000 A 
ATOM      6  C   UNL     1      46.809   6.405  11.841  0.00  0.00    +0.000 A 
ENDROOT
BRANCH   3   7
ATOM      7  C   UNL     1      44.113   3.122  11.965  0.00  0.00    +0.000 C 
ATOM      8  N   UNL     1      43.924   2.405  10.811  0.00  0.00    +0.000 N 
ATOM      9  O   UNL     1      43.533   2.820  12.998  0.00  0.00    +0.000 OA
ATOM     10  H   UNL     1      44.437   2.628   9.968  0.00  0.00    +0.000 HD
ATOM     11  H   UNL     1      43.316   1.599  10.834  0.00  0.00    +0.000 HD
ENDBRANCH   3   7
BRANCH   1  13
ATOM     12  C   UNL     1      47.144   4.331  15.344  0.00  0.00    +0.000 C 
ATOM     13  S   UNL     1      47.573   5.864  14.480  0.00  0.00    +0.000 S 
ENDBRANCH   1  13
BRANCH   6  14
ATOM     14  C   UNL     1      47.731   7.503  11.782  0.00  0.00    +0.000 C 
ATOM     15  C   UNL     1      48.522   8.412  11.719  0.00  0.00    +0.000 C 
BRANCH  15  16
ATOM     16  C   UNL     1      49.523   9.489  11.660  0.00  0.00    +0.000 C 
BRANCH  16  17
ATOM     17  C   UNL     1      50.939   8.962  11.633  0.00  0.00    +0.000 A 
ATOM     18  C   UNL     1      51.937   9.547  12.423  0.00  0.00    +0.000 A 
ATOM     19  C   UNL     1      53.249   9.079  12.361  0.00  0.00    +0.000 A 
ATOM     20  C   UNL     1      53.581   8.035  11.496  0.00  0.00    +0.000 A 
ATOM     21  C   UNL     1      52.603   7.428  10.694  0.00  0.00    +0.000 A 
ATOM     22  C   UNL     1      51.283   7.905  10.775  0.00  0.00    +0.000 A 
BRANCH  21  23
ATOM     23  C   UNL     1      53.010   6.375   9.691  0.00  0.00    +0.000 C 
BRANCH  23  24
ATOM     24  N   UNL     1      53.649   5.210  10.295  0.00  0.00    +0.000 NA
ATOM     25  H   UNL     1      54.324   5.529  10.987  0.00  0.00    +0.000 HD
ATOM     26  H   UNL     1      54.182   4.719   9.578  0.00  0.00    +0.000 HD
ENDBRANCH  23  24
ENDBRANCH  21  23
ENDBRANCH  16  17
ENDBRANCH  15  16
ENDBRANCH   6  14
TORSDOF 7
ENDMDL
MODEL 9
REMARK VINA RESULT:    -5.444      1.929      2.577
REMARK INTER + INTRA:          -8.161
REMARK INTER:                  -7.545
REMARK INTRA:                  -0.617
REMARK UNBOUND:                -0.649
REMARK  Name = 
REMARK  8 active torsions:
REMARK  status: ('A' for Active; 'I' for Inactive)
REMARK    1  A    between atoms: C_1  and  S_2
REMARK    2  A    between atoms: S_2  and  C_3
REMARK    3  A    between atoms: C_5  and  C_6
REMARK    4  A    between atoms: C_11  and  C_12
REMARK    5  A    between atoms: C_13  and  C_14
REMARK    6  A    between atoms: C_14  and  C_15
REMARK    7  A    between atoms: C_19  and  C_20
REMARK    8  A    between atoms: C_20  and  N_21
REMARK                            x       y       z     vdW  Elec       q    Type
REMARK                         _______ _______ _______ _____ _____    ______ ____
ROOT
ATOM      1  C   UNL     1      49.321   6.612  15.750  0.00  0.00    +0.000 A 
ATOM      2  N   UNL     1      49.862   6.367  16.975  0.00  0.00    +0.000 NA
ATOM      3  C   UNL     1      49.344   5.336  17.688  0.00  0.00    +0.000 A 
ATOM      4  C   UNL     1      48.303   4.540  17.235  0.00  0.00    +0.000 A 
ATOM      5  C   UNL     1      47.736   4.832  15.996  0.00  0.00    +0.000 A 
ATOM      6  C   UNL     1      48.243   5.883  15.227  0.00  0.00    +0.000 A 
ENDROOT
BRANCH   3   7
ATOM      7  C   UNL     1      49.960   5.074  19.030  0.00  0.00    +0.000 C 
ATOM      8  N   UNL     1      50.727   3.943  19.151  0.00  0.00    +0.000 N 
ATOM      9  O   UNL     1      49.797   5.830  19.977  0.00  0.00    +0.000 OA
ATOM     10  H   UNL     1      50.897   3.341  18.356  0.00  0.00    +0.000 HD
ATOM     11  H   UNL     1      51.183   3.757  20.032  0.00  0.00    +0.000 HD
ENDBRANCH   3   7
BRANCH   1  13
ATOM     12  C   UNL     1      48.976   9.283  15.280  0.00  0.00    +0.000 C 
ATOM     13  S   UNL     1      50.104   7.938  14.836  0.00  0.00    +0.000 S 
ENDBRANCH   1  13
BRANCH   6  14
ATOM     14  C   UNL     1      47.669   6.135  13.937  0.00  0.00    +0.000 C 
ATOM     15  C   UNL     1      47.196   6.370  12.852  0.00  0.00    +0.000 C 
BRANCH  15  16
ATOM     16  C   UNL     1      46.600   6.700  11.547  0.00  0.00    +0.000 C 
BRANCH  16  17
ATOM     17  C   UNL     1      45.804   5.554  10.969  0.00  0.00    +0.000 A 
ATOM     18  C   UNL     1      45.709   5.374   9.583  0.00  0.00    +0.000 A 
ATOM     19  C   UNL     1      44.938   4.337   9.058  0.00  0.00    +0.000 A 
ATOM     20  C   UNL     1      44.239   3.481   9.912  0.00  0.00    +0.000 A 
ATOM     21  C   UNL     1      44.316   3.636  11.303  0.00  0.00    +0.000 A 
ATOM     22  C   UNL     1      45.104   4.680  11.817  0.00  0.00    +0.000 A 
BRANCH  21  23
ATOM     23  C   UNL     1      43.466   2.765  12.198  0.00  0.00    +0.000 C 
BRANCH  23  24
ATOM     24  N   UNL     1      42.870   1.625  11.508  0.00  0.00    +0.000 NA
ATOM     25  H   UNL     1      43.367   0.780  11.783  0.00  0.00    +0.000 HD
ATOM     26  H   UNL     1      43.018   1.733  10.506  0.00  0.00    +0.000 HD
ENDBRANCH  23  24
ENDBRANCH  21  23
ENDBRANCH  16  17
ENDBRANCH  15  16
ENDBRANCH   6  14
TORSDOF 7
ENDMDL
