MODEL 1
REMARK VINA RESULT:    -8.018      0.000      0.000
REMARK INTER + INTRA:         -12.289
REMARK INTER:                 -11.300
REMARK INTRA:                  -0.989
REMARK UNBOUND:                -0.989
REMARK  Name = 
REMARK  9 active torsions:
REMARK  status: ('A' for Active; 'I' for Inactive)
REMARK    1  A    between atoms: C_1  and  C_2
REMARK    2  A    between atoms: C_2  and  C_3
REMARK    3  A    between atoms: C_2  and  C_14
REMARK    4  A    between atoms: C_3  and  O_4
REMARK    5  A    between atoms: O_4  and  C_5
REMARK    6  A    between atoms: C_8  and  C_9
REMARK    7  A    between atoms: C_18  and  O_19
REMARK    8  A    between atoms: O_19  and  C_20
REMARK    9  A    between atoms: N_22  and  C_23
REMARK                            x       y       z     vdW  Elec       q    Type
REMARK                         _______ _______ _______ _____ _____    ______ ____
ROOT
ATOM      1  C   UNL     1      42.945   4.710  12.909  0.00  0.00    +0.000 C 
ATOM      2  C   UNL     1      43.704   5.575  11.893  0.00  0.00    +0.000 C 
ENDROOT
BRANCH   2   3
ATOM      3  C   UNL     1      45.185   5.717  12.261  0.00  0.00    +0.000 A 
ATOM      4  C   UNL     1      46.037   6.660  11.668  0.00  0.00    +0.000 A 
ATOM      5  C   UNL     1      47.355   6.820  12.104  0.00  0.00    +0.000 A 
ATOM      6  C   UNL     1      47.861   6.023  13.124  0.00  0.00    +0.000 A 
ATOM      7  C   UNL     1      47.044   5.059  13.707  0.00  0.00    +0.000 A 
ATOM      8  C   UNL     1      45.716   4.921  13.290  0.00  0.00    +0.000 A 
BRANCH   7   9
ATOM      9  O   UNL     1      47.430   4.225  14.723  0.00  0.00    +0.000 OA
BRANCH   9  10
ATOM     10  C   UNL     1      47.373   4.713  16.083  0.00  0.00    +0.000 C 
ATOM     11  C   UNL     1      48.669   5.274  16.712  0.00  0.00    +0.000 C 
ATOM     12  N   UNL     1      48.512   4.376  17.872  0.00  0.00    +0.000 NA
ATOM     13  C   UNL     1      47.941   5.091  19.011  0.00  0.00    +0.000 C 
ATOM     14  C   UNL     1      47.469   3.614  17.162  0.00  0.00    +0.000 C 
ENDBRANCH   9  10
ENDBRANCH   7   9
ENDBRANCH   2   3
BRANCH   2  15
ATOM     15  C   UNL     1      43.436   5.033  10.471  0.00  0.00    +0.000 C 
BRANCH  15  16
ATOM     16  O   UNL     1      43.896   3.679  10.413  0.00  0.00    +0.000 OA
BRANCH  16  17
ATOM     17  C   UNL     1      44.739   3.334   9.402  0.00  0.00    +0.000 A 
ATOM     18  C   UNL     1      45.299   4.191   8.461  0.00  0.00    +0.000 A 
ATOM     19  C   UNL     1      46.199   3.683   7.524  0.00  0.00    +0.000 A 
ATOM     20  C   UNL     1      46.502   2.329   7.561  0.00  0.00    +0.000 A 
ATOM     21  N   UNL     1      45.948   1.451   8.444  0.00  0.00    +0.000 NA
ATOM     22  C   UNL     1      45.080   1.984   9.335  0.00  0.00    +0.000 A 
BRANCH  20  23
ATOM     23  C   UNL     1      47.516   1.768   6.616  0.00  0.00    +0.000 C 
ATOM     24  N   UNL     1      48.613   2.556   6.399  0.00  0.00    +0.000 N 
ATOM     25  O   UNL     1      47.376   0.687   6.059  0.00  0.00    +0.000 OA
ATOM     26  H   UNL     1      48.672   3.463   6.853  0.00  0.00    +0.000 HD
ATOM     27  H   UNL     1      49.316   2.267   5.734  0.00  0.00    +0.000 HD
ENDBRANCH  20  23
ENDBRANCH  16  17
ENDBRANCH  15  16
ENDBRANCH   2  15
TORSDOF 7
ENDMDL
MODEL 2
REMARK VINA RESULT:    -7.271      2.988      4.457
REMARK INTER + INTRA:         -11.236
REMARK INTER:                 -10.392
REMARK INTRA:                  -0.844
REMARK UNBOUND:                -0.989
REMARK  Name = 
REMARK  9 active torsions:
REMARK  status: ('A' for Active; 'I' for Inactive)
REMARK    1  A    between atoms: C_1  and  C_2
REMARK    2  A    between atoms: C_2  and  C_3
REMARK    3  A    between atoms: C_2  and  C_14
REMARK    4  A    between atoms: C_3  and  O_4
REMARK    5  A    between atoms: O_4  and  C_5
REMARK    6  A    between atoms: C_8  and  C_9
REMARK    7  A    between atoms: C_18  and  O_19
REMARK    8  A    between atoms: O_19  and  C_20
REMARK    9  A    between atoms: N_22  and  C_23
REMARK                            x       y       z     vdW  Elec       q    Type
REMARK                         _______ _______ _______ _____ _____    ______ ____
ROOT
ATOM      1  C   UNL     1      43.550   3.552  12.760  0.00  0.00    +0.000 C 
ATOM      2  C   UNL     1      43.703   4.963  12.173  0.00  0.00    +0.000 C 
ENDROOT
BRANCH   2   3
ATOM      3  C   UNL     1      45.001   5.633  12.635  0.00  0.00    +0.000 A 
ATOM      4  C   UNL     1      46.163   4.917  12.956  0.00  0.00    +0.000 A 
ATOM      5  C   UNL     1      47.354   5.575  13.279  0.00  0.00    +0.000 A 
ATOM      6  C   UNL     1      47.403   6.963  13.316  0.00  0.00    +0.000 A 
ATOM      7  C   UNL     1      46.254   7.695  13.032  0.00  0.00    +0.000 A 
ATOM      8  C   UNL     1      45.072   7.035  12.679  0.00  0.00    +0.000 A 
BRANCH   7   9
ATOM      9  O   UNL     1      46.186   9.064  13.028  0.00  0.00    +0.000 OA
BRANCH   9  10
ATOM     10  C   UNL     1      45.876   9.741  11.789  0.00  0.00    +0.000 C 
ATOM     11  C   UNL     1      46.459  11.156  11.565  0.00  0.00    +0.000 C 
ATOM     12  N   UNL     1      45.113  11.678  11.261  0.00  0.00    +0.000 NA
ATOM     13  C   UNL     1      44.914  11.798   9.819  0.00  0.00    +0.000 C 
ATOM     14  C   UNL     1      44.499  10.437  11.767  0.00  0.00    +0.000 C 
ENDBRANCH   9  10
ENDBRANCH   7   9
ENDBRANCH   2   3
BRANCH   2  15
ATOM     15  C   UNL     1      43.516   4.894  10.641  0.00  0.00    +0.000 C 
BRANCH  15  16
ATOM     16  O   UNL     1      43.677   3.532  10.230  0.00  0.00    +0.000 OA
BRANCH  16  17
ATOM     17  C   UNL     1      44.630   3.255   9.299  0.00  0.00    +0.000 A 
ATOM     18  C   UNL     1      45.285   4.173   8.485  0.00  0.00    +0.000 A 
ATOM     19  C   UNL     1      46.287   3.728   7.622  0.00  0.00    +0.000 A 
ATOM     20  C   UNL     1      46.593   2.373   7.603  0.00  0.00    +0.000 A 
ATOM     21  N   UNL     1      45.950   1.439   8.359  0.00  0.00    +0.000 NA
ATOM     22  C   UNL     1      44.986   1.913   9.182  0.00  0.00    +0.000 A 
BRANCH  20  23
ATOM     23  C   UNL     1      47.710   1.876   6.742  0.00  0.00    +0.000 C 
ATOM     24  N   UNL     1      48.657   2.807   6.416  0.00  0.00    +0.000 N 
ATOM     25  O   UNL     1      47.772   0.722   6.339  0.00  0.00    +0.000 OA
ATOM     26  H   UNL     1      48.548   3.764   6.741  0.00  0.00    +0.000 HD
ATOM     27  H   UNL     1      49.414   2.558   5.796  0.00  0.00    +0.000 HD
ENDBRANCH  20  23
ENDBRANCH  16  17
ENDBRANCH  15  16
ENDBRANCH   2  15
TORSDOF 7
ENDMDL
MODEL 3
REMARK VINA RESULT:    -6.875      2.543      3.744
REMARK INTER + INTRA:         -10.677
REMARK INTER:                  -9.793
REMARK INTRA:                  -0.884
REMARK UNBOUND:                -0.989
REMARK  Name = 
REMARK  9 active torsions:
REMARK  status: ('A' for Active; 'I' for Inactive)
REMARK    1  A    between atoms: C_1  and  C_2
REMARK    2  A    between atoms: C_2  and  C_3
REMARK    3  A    between atoms: C_2  and  C_14
REMARK    4  A    between atoms: C_3  and  O_4
REMARK    5  A    between atoms: O_4  and  C_5
REMARK    6  A    between atoms: C_8  and  C_9
REMARK    7  A    between atoms: C_18  and  O_19
REMARK    8  A    between atoms: O_19  and  C_20
REMARK    9  A    between atoms: N_22  and  C_23
REMARK                            x       y       z     vdW  Elec       q    Type
REMARK                         _______ _______ _______ _____ _____    ______ ____
ROOT
ATOM      1  C   UNL     1      43.303   3.891  12.381  0.00  0.00    +0.000 C 
ATOM      2  C   UNL     1      43.920   5.197  11.861  0.00  0.00    +0.000 C 
ENDROOT
BRANCH   2   3
ATOM      3  C   UNL     1      45.274   5.486  12.516  0.00  0.00    +0.000 A 
ATOM      4  C   UNL     1      45.715   4.846  13.684  0.00  0.00    +0.000 A 
ATOM      5  C   UNL     1      46.999   5.068  14.191  0.00  0.00    +0.000 A 
ATOM      6  C   UNL     1      47.862   5.956  13.560  0.00  0.00    +0.000 A 
ATOM      7  C   UNL     1      47.435   6.627  12.417  0.00  0.00    +0.000 A 
ATOM      8  C   UNL     1      46.162   6.379  11.894  0.00  0.00    +0.000 A 
BRANCH   7   9
ATOM      9  O   UNL     1      48.200   7.515  11.708  0.00  0.00    +0.000 OA
BRANCH   9  10
ATOM     10  C   UNL     1      49.567   7.740  12.121  0.00  0.00    +0.000 C 
ATOM     11  C   UNL     1      50.028   9.197  12.359  0.00  0.00    +0.000 C 
ATOM     12  N   UNL     1      51.174   8.999  11.451  0.00  0.00    +0.000 NA
ATOM     13  C   UNL     1      52.399   8.746  12.206  0.00  0.00    +0.000 C 
ATOM     14  C   UNL     1      50.594   7.732  10.968  0.00  0.00    +0.000 C 
ENDBRANCH   9  10
ENDBRANCH   7   9
ENDBRANCH   2   3
BRANCH   2  15
ATOM     15  C   UNL     1      43.937   5.166  10.316  0.00  0.00    +0.000 C 
BRANCH  15  16
ATOM     16  O   UNL     1      43.750   3.811   9.893  0.00  0.00    +0.000 OA
BRANCH  16  17
ATOM     17  C   UNL     1      44.721   3.242   9.129  0.00  0.00    +0.000 A 
ATOM     18  C   UNL     1      45.077   1.898   9.108  0.00  0.00    +0.000 A 
ATOM     19  C   UNL     1      46.057   1.464   8.214  0.00  0.00    +0.000 A 
ATOM     20  C   UNL     1      46.650   2.399   7.376  0.00  0.00    +0.000 A 
ATOM     21  N   UNL     1      46.354   3.729   7.391  0.00  0.00    +0.000 NA
ATOM     22  C   UNL     1      45.398   4.107   8.272  0.00  0.00    +0.000 A 
BRANCH  20  23
ATOM     23  C   UNL     1      47.652   1.954   6.359  0.00  0.00    +0.000 C 
ATOM     24  N   UNL     1      48.795   2.704   6.295  0.00  0.00    +0.000 N 
ATOM     25  O   UNL     1      47.465   0.997   5.619  0.00  0.00    +0.000 OA
ATOM     26  H   UNL     1      48.893   3.513   6.902  0.00  0.00    +0.000 HD
ATOM     27  H   UNL     1      49.495   2.496   5.598  0.00  0.00    +0.000 HD
ENDBRANCH  20  23
ENDBRANCH  16  17
ENDBRANCH  15  16
ENDBRANCH   2  15
TORSDOF 7
ENDMDL
MODEL 4
REMARK VINA RESULT:    -6.852      1.805      2.356
REMARK INTER + INTRA:         -10.645
REMARK INTER:                  -9.987
REMARK INTRA:                  -0.658
REMARK UNBOUND:                -0.989
REMARK  Name = 
REMARK  9 active torsions:
REMARK  status: ('A' for Active; 'I' for Inactive)
REMARK    1  A    between atoms: C_1  and  C_2
REMARK    2  A    between atoms: C_2  and  C_3
REMARK    3  A    between atoms: C_2  and  C_14
REMARK    4  A    between atoms: C_3  and  O_4
REMARK    5  A    between atoms: O_4  and  C_5
REMARK    6  A    between atoms: C_8  and  C_9
REMARK    7  A    between atoms: C_18  and  O_19
REMARK    8  A    between atoms: O_19  and  C_20
REMARK    9  A    between atoms: N_22  and  C_23
REMARK                            x       y       z     vdW  Elec       q    Type
REMARK                         _______ _______ _______ _____ _____    ______ ____
ROOT
ATOM      1  C   UNL     1      42.334   5.710  11.811  0.00  0.00    +0.000 C 
ATOM      2  C   UNL     1      43.708   5.593  11.136  0.00  0.00    +0.000 C 
ENDROOT
BRANCH   2   3
ATOM      3  C   UNL     1      44.716   6.584  11.725  0.00  0.00    +0.000 A 
ATOM      4  C   UNL     1      44.639   7.970  11.523  0.00  0.00    +0.000 A 
ATOM      5  C   UNL     1      45.523   8.846  12.160  0.00  0.00    +0.000 A 
ATOM      6  C   UNL     1      46.523   8.355  12.992  0.00  0.00    +0.000 A 
ATOM      7  C   UNL     1      46.639   6.981  13.183  0.00  0.00    +0.000 A 
ATOM      8  C   UNL     1      45.734   6.109  12.569  0.00  0.00    +0.000 A 
BRANCH   7   9
ATOM      9  O   UNL     1      47.577   6.386  13.984  0.00  0.00    +0.000 OA
BRANCH   9  10
ATOM     10  C   UNL     1      48.503   7.225  14.712  0.00  0.00    +0.000 C 
ATOM     11  C   UNL     1      49.933   7.394  14.148  0.00  0.00    +0.000 C 
ATOM     12  N   UNL     1      50.509   6.999  15.449  0.00  0.00    +0.000 NA
ATOM     13  C   UNL     1      50.933   8.173  16.208  0.00  0.00    +0.000 C 
ATOM     14  C   UNL     1      49.188   6.533  15.910  0.00  0.00    +0.000 C 
ENDBRANCH   9  10
ENDBRANCH   7   9
ENDBRANCH   2   3
BRANCH   2  15
ATOM     15  C   UNL     1      44.157   4.114  11.162  0.00  0.00    +0.000 C 
BRANCH  15  16
ATOM     16  O   UNL     1      43.760   3.504   9.930  0.00  0.00    +0.000 OA
BRANCH  16  17
ATOM     17  C   UNL     1      44.730   2.968   9.141  0.00  0.00    +0.000 A 
ATOM     18  C   UNL     1      45.069   1.623   9.042  0.00  0.00    +0.000 A 
ATOM     19  C   UNL     1      46.052   1.231   8.133  0.00  0.00    +0.000 A 
ATOM     20  C   UNL     1      46.666   2.206   7.358  0.00  0.00    +0.000 A 
ATOM     21  N   UNL     1      46.386   3.537   7.450  0.00  0.00    +0.000 NA
ATOM     22  C   UNL     1      45.427   3.874   8.344  0.00  0.00    +0.000 A 
BRANCH  20  23
ATOM     23  C   UNL     1      47.671   1.810   6.324  0.00  0.00    +0.000 C 
ATOM     24  N   UNL     1      48.752   2.641   6.211  0.00  0.00    +0.000 N 
ATOM     25  O   UNL     1      47.538   0.823   5.614  0.00  0.00    +0.000 OA
ATOM     26  H   UNL     1      48.806   3.471   6.794  0.00  0.00    +0.000 HD
ATOM     27  H   UNL     1      49.448   2.467   5.500  0.00  0.00    +0.000 HD
ENDBRANCH  20  23
ENDBRANCH  16  17
ENDBRANCH  15  16
ENDBRANCH   2  15
TORSDOF 7
ENDMDL
MODEL 5
REMARK VINA RESULT:    -6.619      1.791      7.892
REMARK INTER + INTRA:         -10.318
REMARK INTER:                  -9.782
REMARK INTRA:                  -0.536
REMARK UNBOUND:                -0.989
REMARK  Name = 
REMARK  9 active torsions:
REMARK  status: ('A' for Active; 'I' for Inactive)
REMARK    1  A    between atoms: C_1  and  C_2
REMARK    2  A    between atoms: C_2  and  C_3
REMARK    3  A    between atoms: C_2  and  C_14
REMARK    4  A    between atoms: C_3  and  O_4
REMARK    5  A    between atoms: O_4  and  C_5
REMARK    6  A    between atoms: C_8  and  C_9
REMARK    7  A    between atoms: C_18  and  O_19
REMARK    8  A    between atoms: O_19  and  C_20
REMARK    9  A    between atoms: N_22  and  C_23
REMARK                            x       y       z     vdW  Elec       q    Type
REMARK                         _______ _______ _______ _____ _____    ______ ____
ROOT
ATOM      1  C   UNL     1      44.055   7.696  11.402  0.00  0.00    +0.000 C 
ATOM      2  C   UNL     1      44.829   6.526  12.027  0.00  0.00    +0.000 C 
ENDROOT
BRANCH   2   3
ATOM      3  C   UNL     1      44.722   5.256  11.178  0.00  0.00    +0.000 A 
ATOM      4  C   UNL     1      44.061   4.097  11.609  0.00  0.00    +0.000 A 
ATOM      5  C   UNL     1      43.903   2.995  10.762  0.00  0.00    +0.000 A 
ATOM      6  C   UNL     1      44.426   3.016   9.475  0.00  0.00    +0.000 A 
ATOM      7  C   UNL     1      45.113   4.144   9.035  0.00  0.00    +0.000 A 
ATOM      8  C   UNL     1      45.242   5.257   9.872  0.00  0.00    +0.000 A 
BRANCH   7   9
ATOM      9  O   UNL     1      45.661   4.281   7.786  0.00  0.00    +0.000 OA
BRANCH   9  10
ATOM     10  C   UNL     1      45.915   3.092   7.004  0.00  0.00    +0.000 C 
ATOM     11  C   UNL     1      46.915   2.053   7.560  0.00  0.00    +0.000 C 
ATOM     12  N   UNL     1      47.672   2.082   6.294  0.00  0.00    +0.000 NA
ATOM     13  C   UNL     1      47.327   0.938   5.454  0.00  0.00    +0.000 C 
ATOM     14  C   UNL     1      46.935   3.283   5.861  0.00  0.00    +0.000 C 
ENDBRANCH   9  10
ENDBRANCH   7   9
ENDBRANCH   2   3
BRANCH   2  15
ATOM     15  C   UNL     1      46.272   6.984  12.335  0.00  0.00    +0.000 C 
BRANCH  15  16
ATOM     16  O   UNL     1      47.113   5.827  12.364  0.00  0.00    +0.000 OA
BRANCH  16  17
ATOM     17  C   UNL     1      47.413   5.287  13.577  0.00  0.00    +0.000 A 
ATOM     18  C   UNL     1      47.885   5.969  14.693  0.00  0.00    +0.000 A 
ATOM     19  C   UNL     1      48.084   5.272  15.886  0.00  0.00    +0.000 A 
ATOM     20  C   UNL     1      47.806   3.912  15.914  0.00  0.00    +0.000 A 
ATOM     21  N   UNL     1      47.376   3.202  14.833  0.00  0.00    +0.000 NA
ATOM     22  C   UNL     1      47.196   3.916  13.697  0.00  0.00    +0.000 A 
BRANCH  20  23
ATOM     23  C   UNL     1      47.941   3.152  17.195  0.00  0.00    +0.000 C 
ATOM     24  N   UNL     1      46.766   2.716  17.743  0.00  0.00    +0.000 N 
ATOM     25  O   UNL     1      49.021   2.944  17.731  0.00  0.00    +0.000 OA
ATOM     26  H   UNL     1      45.888   2.943  17.285  0.00  0.00    +0.000 HD
ATOM     27  H   UNL     1      46.773   2.241  18.634  0.00  0.00    +0.000 HD
ENDBRANCH  20  23
ENDBRANCH  16  17
ENDBRANCH  15  16
ENDBRANCH   2  15
TORSDOF 7
ENDMDL
MODEL 6
REMARK VINA RESULT:    -6.527      2.897      3.569
REMARK INTER + INTRA:         -10.187
REMARK INTER:                  -9.839
REMARK INTRA:                  -0.348
REMARK UNBOUND:                -0.989
REMARK  Name = 
REMARK  9 active torsions:
REMARK  status: ('A' for Active; 'I' for Inactive)
REMARK    1  A    between atoms: C_1  and  C_2
REMARK    2  A    between atoms: C_2  and  C_3
REMARK    3  A    between atoms: C_2  and  C_14
REMARK    4  A    between atoms: C_3  and  O_4
REMARK    5  A    between atoms: O_4  and  C_5
REMARK    6  A    between atoms: C_8  and  C_9
REMARK    7  A    between atoms: C_18  and  O_19
REMARK    8  A    between atoms: O_19  and  C_20
REMARK    9  A    between atoms: N_22  and  C_23
REMARK                            x       y       z     vdW  Elec       q    Type
REMARK                         _______ _______ _______ _____ _____    ______ ____
ROOT
ATOM      1  C   UNL     1      45.256   4.251  12.343  0.00  0.00    +0.000 C 
ATOM      2  C   UNL     1      44.247   5.335  11.938  0.00  0.00    +0.000 C 
ENDROOT
BRANCH   2   3
ATOM      3  C   UNL     1      44.856   6.738  12.023  0.00  0.00    +0.000 A 
ATOM      4  C   UNL     1      44.307   7.854  11.374  0.00  0.00    +0.000 A 
ATOM      5  C   UNL     1      44.839   9.134  11.559  0.00  0.00    +0.000 A 
ATOM      6  C   UNL     1      45.948   9.324  12.374  0.00  0.00    +0.000 A 
ATOM      7  C   UNL     1      46.529   8.227  13.004  0.00  0.00    +0.000 A 
ATOM      8  C   UNL     1      45.976   6.952  12.843  0.00  0.00    +0.000 A 
BRANCH   7   9
ATOM      9  O   UNL     1      47.616   8.295  13.836  0.00  0.00    +0.000 OA
BRANCH   9  10
ATOM     10  C   UNL     1      48.937   8.151  13.266  0.00  0.00    +0.000 C 
ATOM     11  C   UNL     1      49.676   9.428  12.804  0.00  0.00    +0.000 C 
ATOM     12  N   UNL     1      49.907   8.831  11.474  0.00  0.00    +0.000 NA
ATOM     13  C   UNL     1      51.265   8.303  11.369  0.00  0.00    +0.000 C 
ATOM     14  C   UNL     1      48.952   7.749  11.776  0.00  0.00    +0.000 C 
ENDBRANCH   9  10
ENDBRANCH   7   9
ENDBRANCH   2   3
BRANCH   2  15
ATOM     15  C   UNL     1      43.641   4.970  10.564  0.00  0.00    +0.000 C 
BRANCH  15  16
ATOM     16  O   UNL     1      43.901   3.585  10.313  0.00  0.00    +0.000 OA
BRANCH  16  17
ATOM     17  C   UNL     1      44.761   3.270   9.307  0.00  0.00    +0.000 A 
ATOM     18  C   UNL     1      45.326   4.152   8.393  0.00  0.00    +0.000 A 
ATOM     19  C   UNL     1      46.244   3.672   7.458  0.00  0.00    +0.000 A 
ATOM     20  C   UNL     1      46.558   2.320   7.470  0.00  0.00    +0.000 A 
ATOM     21  N   UNL     1      46.000   1.418   8.326  0.00  0.00    +0.000 NA
ATOM     22  C   UNL     1      45.115   1.925   9.216  0.00  0.00    +0.000 A 
BRANCH  20  23
ATOM     23  C   UNL     1      47.590   1.788   6.528  0.00  0.00    +0.000 C 
ATOM     24  N   UNL     1      48.680   2.594   6.338  0.00  0.00    +0.000 N 
ATOM     25  O   UNL     1      47.471   0.716   5.950  0.00  0.00    +0.000 OA
ATOM     26  H   UNL     1      48.722   3.493   6.808  0.00  0.00    +0.000 HD
ATOM     27  H   UNL     1      49.394   2.326   5.677  0.00  0.00    +0.000 HD
ENDBRANCH  20  23
ENDBRANCH  16  17
ENDBRANCH  15  16
ENDBRANCH   2  15
TORSDOF 7
ENDMDL
MODEL 7
REMARK VINA RESULT:    -6.384      1.647      8.572
REMARK INTER + INTRA:          -9.986
REMARK INTER:                  -9.279
REMARK INTRA:                  -0.707
REMARK UNBOUND:                -0.989
REMARK  Name = 
REMARK  9 active torsions:
REMARK  status: ('A' for Active; 'I' for Inactive)
REMARK    1  A    between atoms: C_1  and  C_2
REMARK    2  A    between atoms: C_2  and  C_3
REMARK    3  A    between atoms: C_2  and  C_14
REMARK    4  A    between atoms: C_3  and  O_4
REMARK    5  A    between atoms: O_4  and  C_5
REMARK    6  A    between atoms: C_8  and  C_9
REMARK    7  A    between atoms: C_18  and  O_19
REMARK    8  A    between atoms: O_19  and  C_20
REMARK    9  A    between atoms: N_22  and  C_23
REMARK                            x       y       z     vdW  Elec       q    Type
REMARK                         _______ _______ _______ _____ _____    ______ ____
ROOT
ATOM      1  C   UNL     1      46.526   7.697  12.053  0.00  0.00    +0.000 C 
ATOM      2  C   UNL     1      46.252   6.528  13.010  0.00  0.00    +0.000 C 
ENDROOT
BRANCH   2   3
ATOM      3  C   UNL     1      45.308   5.494  12.388  0.00  0.00    +0.000 A 
ATOM      4  C   UNL     1      44.319   4.820  13.119  0.00  0.00    +0.000 A 
ATOM      5  C   UNL     1      43.415   3.958  12.490  0.00  0.00    +0.000 A 
ATOM      6  C   UNL     1      43.497   3.727  11.122  0.00  0.00    +0.000 A 
ATOM      7  C   UNL     1      44.491   4.361  10.381  0.00  0.00    +0.000 A 
ATOM      8  C   UNL     1      45.374   5.247  11.007  0.00  0.00    +0.000 A 
BRANCH   7   9
ATOM      9  O   UNL     1      44.662   4.217   9.029  0.00  0.00    +0.000 OA
BRANCH   9  10
ATOM     10  C   UNL     1      45.873   3.595   8.544  0.00  0.00    +0.000 C 
ATOM     11  C   UNL     1      46.100   3.533   7.015  0.00  0.00    +0.000 C 
ATOM     12  N   UNL     1      46.331   2.078   7.093  0.00  0.00    +0.000 NA
ATOM     13  C   UNL     1      47.760   1.775   7.071  0.00  0.00    +0.000 C 
ATOM     14  C   UNL     1      45.818   2.054   8.475  0.00  0.00    +0.000 C 
ENDBRANCH   9  10
ENDBRANCH   7   9
ENDBRANCH   2   3
BRANCH   2  15
ATOM     15  C   UNL     1      47.600   5.961  13.511  0.00  0.00    +0.000 C 
BRANCH  15  16
ATOM     16  O   UNL     1      47.348   4.705  14.150  0.00  0.00    +0.000 OA
BRANCH  16  17
ATOM     17  C   UNL     1      47.632   4.596  15.476  0.00  0.00    +0.000 A 
ATOM     18  C   UNL     1      47.335   3.516  16.300  0.00  0.00    +0.000 A 
ATOM     19  C   UNL     1      47.754   3.536  17.631  0.00  0.00    +0.000 A 
ATOM     20  C   UNL     1      48.453   4.645  18.089  0.00  0.00    +0.000 A 
ATOM     21  N   UNL     1      48.733   5.737  17.323  0.00  0.00    +0.000 NA
ATOM     22  C   UNL     1      48.309   5.676  16.039  0.00  0.00    +0.000 A 
BRANCH  20  23
ATOM     23  C   UNL     1      48.978   4.666  19.489  0.00  0.00    +0.000 C 
ATOM     24  N   UNL     1      48.484   3.693  20.314  0.00  0.00    +0.000 N 
ATOM     25  O   UNL     1      49.780   5.502  19.884  0.00  0.00    +0.000 OA
ATOM     26  H   UNL     1      47.791   3.042  19.957  0.00  0.00    +0.000 HD
ATOM     27  H   UNL     1      48.753   3.675  21.288  0.00  0.00    +0.000 HD
ENDBRANCH  20  23
ENDBRANCH  16  17
ENDBRANCH  15  16
ENDBRANCH   2  15
TORSDOF 7
ENDMDL
MODEL 8
REMARK VINA RESULT:    -6.174      1.449      2.153
REMARK INTER + INTRA:          -9.689
REMARK INTER:                  -9.141
REMARK INTRA:                  -0.548
REMARK UNBOUND:                -0.989
REMARK  Name = 
REMARK  9 active torsions:
REMARK  status: ('A' for Active; 'I' for Inactive)
REMARK    1  A    between atoms: C_1  and  C_2
REMARK    2  A    between atoms: C_2  and  C_3
REMARK    3  A    between atoms: C_2  and  C_14
REMARK    4  A    between atoms: C_3  and  O_4
REMARK    5  A    between atoms: O_4  and  C_5
REMARK    6  A    between atoms: C_8  and  C_9
REMARK    7  A    between atoms: C_18  and  O_19
REMARK    8  A    between atoms: O_19  and  C_20
REMARK    9  A    between atoms: N_22  and  C_23
REMARK                            x       y       z     vdW  Elec       q    Type
REMARK                         _______ _______ _______ _____ _____    ______ ____
ROOT
ATOM      1  C   UNL     1      44.866   7.713  11.899  0.00  0.00    +0.000 C 
ATOM      2  C   UNL     1      45.888   6.620  11.554  0.00  0.00    +0.000 C 
ENDROOT
BRANCH   2   3
ATOM      3  C   UNL     1      47.231   6.857  12.252  0.00  0.00    +0.000 A 
ATOM      4  C   UNL     1      48.372   7.325  11.585  0.00  0.00    +0.000 A 
ATOM      5  C   UNL     1      49.548   7.620  12.280  0.00  0.00    +0.000 A 
ATOM      6  C   UNL     1      49.620   7.429  13.655  0.00  0.00    +0.000 A 
ATOM      7  C   UNL     1      48.510   6.936  14.335  0.00  0.00    +0.000 A 
ATOM      8  C   UNL     1      47.325   6.671  13.642  0.00  0.00    +0.000 A 
BRANCH   7   9
ATOM      9  O   UNL     1      48.462   6.717  15.687  0.00  0.00    +0.000 OA
BRANCH   9  10
ATOM     10  C   UNL     1      48.603   5.364  16.177  0.00  0.00    +0.000 C 
ATOM     11  C   UNL     1      47.503   4.807  17.110  0.00  0.00    +0.000 C 
ATOM     12  N   UNL     1      48.521   4.427  18.108  0.00  0.00    +0.000 NA
ATOM     13  C   UNL     1      48.827   3.001  18.023  0.00  0.00    +0.000 C 
ATOM     14  C   UNL     1      49.539   5.219  17.396  0.00  0.00    +0.000 C 
ENDBRANCH   9  10
ENDBRANCH   7   9
ENDBRANCH   2   3
BRANCH   2  15
ATOM     15  C   UNL     1      45.253   5.236  11.816  0.00  0.00    +0.000 C 
BRANCH  15  16
ATOM     16  O   UNL     1      44.488   4.868  10.663  0.00  0.00    +0.000 OA
BRANCH  16  17
ATOM     17  C   UNL     1      45.091   4.097   9.718  0.00  0.00    +0.000 A 
ATOM     18  C   UNL     1      45.057   2.709   9.637  0.00  0.00    +0.000 A 
ATOM     19  C   UNL     1      45.679   2.072   8.562  0.00  0.00    +0.000 A 
ATOM     20  C   UNL     1      46.318   2.852   7.608  0.00  0.00    +0.000 A 
ATOM     21  N   UNL     1      46.403   4.211   7.672  0.00  0.00    +0.000 NA
ATOM     22  C   UNL     1      45.787   4.789   8.729  0.00  0.00    +0.000 A 
BRANCH  20  23
ATOM     23  C   UNL     1      46.932   2.205   6.408  0.00  0.00    +0.000 C 
ATOM     24  N   UNL     1      47.161   3.037   5.347  0.00  0.00    +0.000 N 
ATOM     25  O   UNL     1      47.199   1.011   6.363  0.00  0.00    +0.000 OA
ATOM     26  H   UNL     1      46.890   4.014   5.412  0.00  0.00    +0.000 HD
ATOM     27  H   UNL     1      47.526   2.662   4.483  0.00  0.00    +0.000 HD
ENDBRANCH  20  23
ENDBRANCH  16  17
ENDBRANCH  15  16
ENDBRANCH   2  15
TORSDOF 7
ENDMDL
MODEL 9
REMARK VINA RESULT:    -5.947      3.878      7.755
REMARK INTER + INTRA:          -9.370
REMARK INTER:                  -8.442
REMARK INTRA:                  -0.928
REMARK UNBOUND:                -0.989
REMARK  Name = 
REMARK  9 active torsions:
REMARK  status: ('A' for Active; 'I' for Inactive)
REMARK    1  A    between atoms: C_1  and  C_2
REMARK    2  A    between atoms: C_2  and  C_3
REMARK    3  A    between atoms: C_2  and  C_14
REMARK    4  A    between atoms: C_3  and  O_4
REMARK    5  A    between atoms: O_4  and  C_5
REMARK    6  A    between atoms: C_8  and  C_9
REMARK    7  A    between atoms: C_18  and  O_19
REMARK    8  A    between atoms: O_19  and  C_20
REMARK    9  A    between atoms: N_22  and  C_23
REMARK                            x       y       z     vdW  Elec       q    Type
REMARK                         _______ _______ _______ _____ _____    ______ ____
ROOT
ATOM      1  C   UNL     1      46.971   4.178  14.705  0.00  0.00    +0.000 C 
ATOM      2  C   UNL     1      46.781   4.964  13.400  0.00  0.00    +0.000 C 
ENDROOT
BRANCH   2   3
ATOM      3  C   UNL     1      45.424   4.674  12.753  0.00  0.00    +0.000 A 
ATOM      4  C   UNL     1      44.212   5.174  13.253  0.00  0.00    +0.000 A 
ATOM      5  C   UNL     1      43.007   4.965  12.575  0.00  0.00    +0.000 A 
ATOM      6  C   UNL     1      42.981   4.228  11.397  0.00  0.00    +0.000 A 
ATOM      7  C   UNL     1      44.167   3.695  10.898  0.00  0.00    +0.000 A 
ATOM      8  C   UNL     1      45.375   3.932  11.561  0.00  0.00    +0.000 A 
BRANCH   7   9
ATOM      9  O   UNL     1      44.263   2.962   9.744  0.00  0.00    +0.000 OA
BRANCH   9  10
ATOM     10  C   UNL     1      45.518   2.957   9.027  0.00  0.00    +0.000 C 
ATOM     11  C   UNL     1      45.531   3.488   7.574  0.00  0.00    +0.000 C 
ATOM     12  N   UNL     1      46.175   2.244   7.110  0.00  0.00    +0.000 NA
ATOM     13  C   UNL     1      47.613   2.437   6.933  0.00  0.00    +0.000 C 
ATOM     14  C   UNL     1      45.895   1.596   8.404  0.00  0.00    +0.000 C 
ENDBRANCH   9  10
ENDBRANCH   7   9
ENDBRANCH   2   3
BRANCH   2  15
ATOM     15  C   UNL     1      47.070   6.459  13.666  0.00  0.00    +0.000 C 
BRANCH  15  16
ATOM     16  O   UNL     1      47.375   7.086  12.416  0.00  0.00    +0.000 OA
BRANCH  16  17
ATOM     17  C   UNL     1      46.821   8.302  12.160  0.00  0.00    +0.000 A 
ATOM     18  C   UNL     1      47.489   9.520  12.097  0.00  0.00    +0.000 A 
ATOM     19  C   UNL     1      46.778  10.672  11.758  0.00  0.00    +0.000 A 
ATOM     20  C   UNL     1      45.418  10.561  11.501  0.00  0.00    +0.000 A 
ATOM     21  N   UNL     1      44.722   9.393  11.587  0.00  0.00    +0.000 NA
ATOM     22  C   UNL     1      45.449   8.300  11.917  0.00  0.00    +0.000 A 
BRANCH  20  23
ATOM     23  C   UNL     1      44.644  11.764  11.067  0.00  0.00    +0.000 C 
ATOM     24  N   UNL     1      44.925  12.219   9.807  0.00  0.00    +0.000 N 
ATOM     25  O   UNL     1      43.825  12.320  11.787  0.00  0.00    +0.000 OA
ATOM     26  H   UNL     1      45.639  11.750   9.257  0.00  0.00    +0.000 HD
ATOM     27  H   UNL     1      44.479  13.057   9.464  0.00  0.00    +0.000 HD
ENDBRANCH  20  23
ENDBRANCH  16  17
ENDBRANCH  15  16
ENDBRANCH   2  15
TORSDOF 7
ENDMDL
