MODEL 1
REMARK VINA RESULT:    -7.670      0.000      0.000
REMARK INTER + INTRA:         -13.637
REMARK INTER:                 -12.377
REMARK INTRA:                  -1.260
REMARK UNBOUND:                -1.260
REMARK  Name = 
REMARK  12 active torsions:
REMARK  status: ('A' for Active; 'I' for Inactive)
REMARK    1  A    between atoms: C_1  and  O_2
REMARK    2  A    between atoms: O_2  and  C_3
REMARK    3  A    between atoms: C_8  and  C_9
REMARK    4  A    between atoms: N_11  and  C_12
REMARK    5  A    between atoms: C_12  and  C_13
REMARK    6  A    between atoms: C_12  and  C_16
REMARK    7  A    between atoms: C_13  and  C_14
REMARK    8  A    between atoms: C_14  and  O_15
REMARK    9  A    between atoms: C_19  and  C_20
REMARK   10  A    between atoms: C_20  and  O_21
REMARK   11  A    between atoms: O_21  and  C_22
REMARK   12  A    between atoms: C_22  and  C_23
REMARK                            x       y       z     vdW  Elec       q    Type
REMARK                         _______ _______ _______ _____ _____    ______ ____
ROOT
ATOM      1  C   UNL     1      44.335   3.610  11.594  0.00  0.00    +0.000 C 
ENDROOT
BRANCH   1   2
ATOM      2  C   UNL     1      44.846   3.467  10.157  0.00  0.00    +0.000 A 
ATOM      3  C   UNL     1      44.874   2.230   9.490  0.00  0.00    +0.000 A 
ATOM      4  C   UNL     1      45.424   2.109   8.211  0.00  0.00    +0.000 A 
ATOM      5  C   UNL     1      45.948   3.224   7.549  0.00  0.00    +0.000 A 
ATOM      6  C   UNL     1      45.859   4.473   8.172  0.00  0.00    +0.000 A 
ATOM      7  C   UNL     1      45.307   4.593   9.454  0.00  0.00    +0.000 A 
BRANCH   5   8
ATOM      8  C   UNL     1      46.625   3.064   6.212  0.00  0.00    +0.000 C 
BRANCH   8   9
ATOM      9  O   UNL     1      46.930   1.691   6.013  0.00  0.00    +0.000 OA
BRANCH   9  10
ATOM     10  C   UNL     1      47.712   1.483   4.834  0.00  0.00    +0.000 C 
BRANCH  10  11
ATOM     11  C   UNL     1      46.941   0.648   3.837  0.00  0.00    +0.000 A 
ATOM     12  C   UNL     1      45.907   1.211   3.091  0.00  0.00    +0.000 A 
ATOM     13  C   UNL     1      45.197   0.410   2.202  0.00  0.00    +0.000 A 
ATOM     14  C   UNL     1      45.548  -0.925   2.066  0.00  0.00    +0.000 A 
ATOM     15  C   UNL     1      46.607  -1.403   2.818  0.00  0.00    +0.000 A 
ATOM     16  N   UNL     1      47.314  -0.650   3.692  0.00  0.00    +0.000 NA
ENDBRANCH  10  11
ENDBRANCH   9  10
ENDBRANCH   8   9
ENDBRANCH   5   8
ENDBRANCH   1   2
BRANCH   1  19
ATOM     17  C   UNL     1      46.217   3.857  13.227  0.00  0.00    +0.000 C 
ATOM     18  O   UNL     1      46.453   2.654  13.284  0.00  0.00    +0.000 OA
ATOM     19  N   UNL     1      45.245   4.394  12.416  0.00  0.00    +0.000 N 
ATOM     20  H   UNL     1      44.888   5.303  12.679  0.00  0.00    +0.000 HD
BRANCH  17  26
ATOM     21  C   UNL     1      48.671   6.068  16.982  0.00  0.00    +0.000 A 
ATOM     22  N   UNL     1      48.732   5.034  17.850  0.00  0.00    +0.000 NA
ATOM     23  C   UNL     1      48.191   3.850  17.486  0.00  0.00    +0.000 A 
ATOM     24  C   UNL     1      47.557   3.601  16.274  0.00  0.00    +0.000 A 
ATOM     25  C   UNL     1      47.485   4.668  15.363  0.00  0.00    +0.000 A 
ATOM     26  C   UNL     1      46.932   4.849  14.044  0.00  0.00    +0.000 A 
ATOM     27  C   UNL     1      47.231   6.155  13.680  0.00  0.00    +0.000 A 
ATOM     28  N   UNL     1      47.896   6.761  14.711  0.00  0.00    +0.000 N 
ATOM     29  C   UNL     1      48.060   5.879  15.748  0.00  0.00    +0.000 A 
ATOM     30  H   UNL     1      48.235   7.714  14.723  0.00  0.00    +0.000 HD
BRANCH  21  32
ATOM     31  C   UNL     1      49.664   7.374  18.641  0.00  0.00    +0.000 C 
ATOM     32  O   UNL     1      49.199   7.303  17.298  0.00  0.00    +0.000 OA
ENDBRANCH  21  32
ENDBRANCH  17  26
ENDBRANCH   1  19
BRANCH   1  33
ATOM     33  C   UNL     1      42.915   4.228  11.664  0.00  0.00    +0.000 C 
BRANCH  33  34
ATOM     34  C   UNL     1      42.884   5.701  12.081  0.00  0.00    +0.000 C 
BRANCH  34  35
ATOM     35  O   UNL     1      42.875   5.838  13.498  0.00  0.00    +0.000 OA
ATOM     36  H   UNL     1      42.066   6.330  13.730  0.00  0.00    +0.000 HD
ENDBRANCH  34  35
ENDBRANCH  33  34
ENDBRANCH   1  33
TORSDOF 11
ENDMDL
MODEL 2
REMARK VINA RESULT:    -7.609      2.884      4.374
REMARK INTER + INTRA:         -13.539
REMARK INTER:                 -12.384
REMARK INTRA:                  -1.155
REMARK UNBOUND:                -1.260
REMARK  Name = 
REMARK  12 active torsions:
REMARK  status: ('A' for Active; 'I' for Inactive)
REMARK    1  A    between atoms: C_1  and  O_2
REMARK    2  A    between atoms: O_2  and  C_3
REMARK    3  A    between atoms: C_8  and  C_9
REMARK    4  A    between atoms: N_11  and  C_12
REMARK    5  A    between atoms: C_12  and  C_13
REMARK    6  A    between atoms: C_12  and  C_16
REMARK    7  A    between atoms: C_13  and  C_14
REMARK    8  A    between atoms: C_14  and  O_15
REMARK    9  A    between atoms: C_19  and  C_20
REMARK   10  A    between atoms: C_20  and  O_21
REMARK   11  A    between atoms: O_21  and  C_22
REMARK   12  A    between atoms: C_22  and  C_23
REMARK                            x       y       z     vdW  Elec       q    Type
REMARK                         _______ _______ _______ _____ _____    ______ ____
ROOT
ATOM      1  C   UNL     1      46.640   7.979  13.029  0.00  0.00    +0.000 C 
ENDROOT
BRANCH   1   2
ATOM      2  C   UNL     1      45.789   6.843  12.453  0.00  0.00    +0.000 A 
ATOM      3  C   UNL     1      44.796   6.192  13.205  0.00  0.00    +0.000 A 
ATOM      4  C   UNL     1      44.092   5.102  12.687  0.00  0.00    +0.000 A 
ATOM      5  C   UNL     1      44.344   4.637  11.392  0.00  0.00    +0.000 A 
ATOM      6  C   UNL     1      45.277   5.323  10.607  0.00  0.00    +0.000 A 
ATOM      7  C   UNL     1      45.982   6.416  11.127  0.00  0.00    +0.000 A 
BRANCH   5   8
ATOM      8  C   UNL     1      43.649   3.402  10.879  0.00  0.00    +0.000 C 
BRANCH   8   9
ATOM      9  O   UNL     1      43.973   3.230   9.506  0.00  0.00    +0.000 OA
BRANCH   9  10
ATOM     10  C   UNL     1      44.570   1.955   9.255  0.00  0.00    +0.000 C 
BRANCH  10  11
ATOM     11  C   UNL     1      45.697   2.094   8.258  0.00  0.00    +0.000 A 
ATOM     12  C   UNL     1      45.913   3.303   7.597  0.00  0.00    +0.000 A 
ATOM     13  C   UNL     1      46.941   3.392   6.664  0.00  0.00    +0.000 A 
ATOM     14  C   UNL     1      47.739   2.282   6.428  0.00  0.00    +0.000 A 
ATOM     15  C   UNL     1      47.483   1.127   7.148  0.00  0.00    +0.000 A 
ATOM     16  N   UNL     1      46.489   1.009   8.058  0.00  0.00    +0.000 NA
ENDBRANCH  10  11
ENDBRANCH   9  10
ENDBRANCH   8   9
ENDBRANCH   5   8
ENDBRANCH   1   2
BRANCH   1  19
ATOM     17  C   UNL     1      48.336   6.656  14.309  0.00  0.00    +0.000 C 
ATOM     18  O   UNL     1      48.814   6.124  13.313  0.00  0.00    +0.000 OA
ATOM     19  N   UNL     1      47.319   7.580  14.253  0.00  0.00    +0.000 N 
ATOM     20  H   UNL     1      46.766   7.696  15.091  0.00  0.00    +0.000 HD
BRANCH  17  26
ATOM     21  C   UNL     1      48.897   4.415  18.745  0.00  0.00    +0.000 A 
ATOM     22  N   UNL     1      48.077   3.355  18.566  0.00  0.00    +0.000 NA
ATOM     23  C   UNL     1      47.439   3.223  17.382  0.00  0.00    +0.000 A 
ATOM     24  C   UNL     1      47.547   4.105  16.314  0.00  0.00    +0.000 A 
ATOM     25  C   UNL     1      48.394   5.212  16.487  0.00  0.00    +0.000 A 
ATOM     26  C   UNL     1      48.782   6.338  15.674  0.00  0.00    +0.000 A 
ATOM     27  C   UNL     1      49.690   7.062  16.434  0.00  0.00    +0.000 A 
ATOM     28  N   UNL     1      49.837   6.453  17.649  0.00  0.00    +0.000 N 
ATOM     29  C   UNL     1      49.057   5.326  17.709  0.00  0.00    +0.000 A 
ATOM     30  H   UNL     1      50.437   6.763  18.404  0.00  0.00    +0.000 HD
BRANCH  21  32
ATOM     31  C   UNL     1      48.804   5.325  20.891  0.00  0.00    +0.000 C 
ATOM     32  O   UNL     1      49.573   4.608  19.932  0.00  0.00    +0.000 OA
ENDBRANCH  21  32
ENDBRANCH  17  26
ENDBRANCH   1  19
BRANCH   1  33
ATOM     33  C   UNL     1      47.680   8.519  12.015  0.00  0.00    +0.000 C 
BRANCH  33  34
ATOM     34  C   UNL     1      47.704  10.044  11.882  0.00  0.00    +0.000 C 
BRANCH  34  35
ATOM     35  O   UNL     1      46.600  10.641  12.556  0.00  0.00    +0.000 OA
ATOM     36  H   UNL     1      45.799  10.400  12.057  0.00  0.00    +0.000 HD
ENDBRANCH  34  35
ENDBRANCH  33  34
ENDBRANCH   1  33
TORSDOF 11
ENDMDL
MODEL 3
REMARK VINA RESULT:    -7.522      1.323      2.274
REMARK INTER + INTRA:         -13.398
REMARK INTER:                 -12.093
REMARK INTRA:                  -1.306
REMARK UNBOUND:                -1.260
REMARK  Name = 
REMARK  12 active torsions:
REMARK  status: ('A' for Active; 'I' for Inactive)
REMARK    1  A    between atoms: C_1  and  O_2
REMARK    2  A    between atoms: O_2  and  C_3
REMARK    3  A    between atoms: C_8  and  C_9
REMARK    4  A    between atoms: N_11  and  C_12
REMARK    5  A    between atoms: C_12  and  C_13
REMARK    6  A    between atoms: C_12  and  C_16
REMARK    7  A    between atoms: C_13  and  C_14
REMARK    8  A    between atoms: C_14  and  O_15
REMARK    9  A    between atoms: C_19  and  C_20
REMARK   10  A    between atoms: C_20  and  O_21
REMARK   11  A    between atoms: O_21  and  C_22
REMARK   12  A    between atoms: C_22  and  C_23
REMARK                            x       y       z     vdW  Elec       q    Type
REMARK                         _______ _______ _______ _____ _____    ______ ____
ROOT
ATOM      1  C   UNL     1      44.681   3.495  11.825  0.00  0.00    +0.000 C 
ENDROOT
BRANCH   1   2
ATOM      2  C   UNL     1      45.017   3.410  10.333  0.00  0.00    +0.000 A 
ATOM      3  C   UNL     1      44.916   2.211   9.608  0.00  0.00    +0.000 A 
ATOM      4  C   UNL     1      45.310   2.138   8.268  0.00  0.00    +0.000 A 
ATOM      5  C   UNL     1      45.800   3.267   7.604  0.00  0.00    +0.000 A 
ATOM      6  C   UNL     1      45.835   4.484   8.294  0.00  0.00    +0.000 A 
ATOM      7  C   UNL     1      45.440   4.555   9.636  0.00  0.00    +0.000 A 
BRANCH   5   8
ATOM      8  C   UNL     1      46.312   3.155   6.192  0.00  0.00    +0.000 C 
BRANCH   8   9
ATOM      9  O   UNL     1      46.928   1.885   6.026  0.00  0.00    +0.000 OA
BRANCH   9  10
ATOM     10  C   UNL     1      47.605   1.779   4.771  0.00  0.00    +0.000 C 
BRANCH  10  11
ATOM     11  C   UNL     1      46.895   0.787   3.877  0.00  0.00    +0.000 A 
ATOM     12  C   UNL     1      45.884   1.208   3.015  0.00  0.00    +0.000 A 
ATOM     13  C   UNL     1      45.230   0.268   2.226  0.00  0.00    +0.000 A 
ATOM     14  C   UNL     1      45.613  -1.063   2.302  0.00  0.00    +0.000 A 
ATOM     15  C   UNL     1      46.648  -1.398   3.158  0.00  0.00    +0.000 A 
ATOM     16  N   UNL     1      47.300  -0.508   3.940  0.00  0.00    +0.000 NA
ENDBRANCH  10  11
ENDBRANCH   9  10
ENDBRANCH   8   9
ENDBRANCH   5   8
ENDBRANCH   1   2
BRANCH   1  19
ATOM     17  C   UNL     1      46.545   4.057  13.400  0.00  0.00    +0.000 C 
ATOM     18  O   UNL     1      46.834   2.887  13.628  0.00  0.00    +0.000 OA
ATOM     19  N   UNL     1      45.552   4.429  12.523  0.00  0.00    +0.000 N 
ATOM     20  H   UNL     1      45.155   5.349  12.654  0.00  0.00    +0.000 HD
BRANCH  17  26
ATOM     21  C   UNL     1      48.768   8.456  14.248  0.00  0.00    +0.000 A 
ATOM     22  N   UNL     1      48.702   8.984  13.006  0.00  0.00    +0.000 NA
ATOM     23  C   UNL     1      48.114   8.262  12.026  0.00  0.00    +0.000 A 
ATOM     24  C   UNL     1      47.568   6.994  12.187  0.00  0.00    +0.000 A 
ATOM     25  C   UNL     1      47.631   6.433  13.472  0.00  0.00    +0.000 A 
ATOM     26  C   UNL     1      47.212   5.187  14.064  0.00  0.00    +0.000 A 
ATOM     27  C   UNL     1      47.545   5.272  15.409  0.00  0.00    +0.000 A 
ATOM     28  N   UNL     1      48.160   6.472  15.638  0.00  0.00    +0.000 N 
ATOM     29  C   UNL     1      48.228   7.196  14.476  0.00  0.00    +0.000 A 
ATOM     30  H   UNL     1      48.510   6.802  16.529  0.00  0.00    +0.000 HD
BRANCH  21  32
ATOM     31  C   UNL     1      50.780   9.149  15.205  0.00  0.00    +0.000 C 
ATOM     32  O   UNL     1      49.359   9.141  15.290  0.00  0.00    +0.000 OA
ENDBRANCH  21  32
ENDBRANCH  17  26
ENDBRANCH   1  19
BRANCH   1  33
ATOM     33  C   UNL     1      43.202   3.879  12.083  0.00  0.00    +0.000 C 
BRANCH  33  34
ATOM     34  C   UNL     1      42.937   5.386  12.128  0.00  0.00    +0.000 C 
BRANCH  34  35
ATOM     35  O   UNL     1      42.890   5.865  13.468  0.00  0.00    +0.000 OA
ATOM     36  H   UNL     1      43.487   5.300  13.992  0.00  0.00    +0.000 HD
ENDBRANCH  34  35
ENDBRANCH  33  34
ENDBRANCH   1  33
TORSDOF 11
ENDMDL
MODEL 4
REMARK VINA RESULT:    -7.467      2.879      4.871
REMARK INTER + INTRA:         -13.310
REMARK INTER:                 -11.556
REMARK INTRA:                  -1.754
REMARK UNBOUND:                -1.260
REMARK  Name = 
REMARK  12 active torsions:
REMARK  status: ('A' for Active; 'I' for Inactive)
REMARK    1  A    between atoms: C_1  and  O_2
REMARK    2  A    between atoms: O_2  and  C_3
REMARK    3  A    between atoms: C_8  and  C_9
REMARK    4  A    between atoms: N_11  and  C_12
REMARK    5  A    between atoms: C_12  and  C_13
REMARK    6  A    between atoms: C_12  and  C_16
REMARK    7  A    between atoms: C_13  and  C_14
REMARK    8  A    between atoms: C_14  and  O_15
REMARK    9  A    between atoms: C_19  and  C_20
REMARK   10  A    between atoms: C_20  and  O_21
REMARK   11  A    between atoms: O_21  and  C_22
REMARK   12  A    between atoms: C_22  and  C_23
REMARK                            x       y       z     vdW  Elec       q    Type
REMARK                         _______ _______ _______ _____ _____    ______ ____
ROOT
ATOM      1  C   UNL     1      47.221   7.474  13.289  0.00  0.00    +0.000 C 
ENDROOT
BRANCH   1   2
ATOM      2  C   UNL     1      46.327   6.409  12.646  0.00  0.00    +0.000 A 
ATOM      3  C   UNL     1      45.716   6.598  11.394  0.00  0.00    +0.000 A 
ATOM      4  C   UNL     1      44.836   5.648  10.867  0.00  0.00    +0.000 A 
ATOM      5  C   UNL     1      44.551   4.471  11.566  0.00  0.00    +0.000 A 
ATOM      6  C   UNL     1      45.210   4.238  12.777  0.00  0.00    +0.000 A 
ATOM      7  C   UNL     1      46.093   5.190  13.305  0.00  0.00    +0.000 A 
BRANCH   5   8
ATOM      8  C   UNL     1      43.528   3.501  11.034  0.00  0.00    +0.000 C 
BRANCH   8   9
ATOM      9  O   UNL     1      43.826   3.220   9.673  0.00  0.00    +0.000 OA
BRANCH   9  10
ATOM     10  C   UNL     1      44.579   2.012   9.530  0.00  0.00    +0.000 C 
BRANCH  10  11
ATOM     11  C   UNL     1      45.634   2.180   8.461  0.00  0.00    +0.000 A 
ATOM     12  C   UNL     1      45.827   3.415   7.843  0.00  0.00    +0.000 A 
ATOM     13  C   UNL     1      46.787   3.530   6.843  0.00  0.00    +0.000 A 
ATOM     14  C   UNL     1      47.542   2.419   6.498  0.00  0.00    +0.000 A 
ATOM     15  C   UNL     1      47.314   1.236   7.179  0.00  0.00    +0.000 A 
ATOM     16  N   UNL     1      46.387   1.091   8.153  0.00  0.00    +0.000 NA
ENDBRANCH  10  11
ENDBRANCH   9  10
ENDBRANCH   8   9
ENDBRANCH   5   8
ENDBRANCH   1   2
BRANCH   1  19
ATOM     17  C   UNL     1      48.614   7.587  15.366  0.00  0.00    +0.000 C 
ATOM     18  O   UNL     1      48.296   8.742  15.632  0.00  0.00    +0.000 OA
ATOM     19  N   UNL     1      48.115   6.901  14.284  0.00  0.00    +0.000 N 
ATOM     20  H   UNL     1      48.667   6.124  13.947  0.00  0.00    +0.000 HD
BRANCH  17  26
ATOM     21  C   UNL     1      50.748   4.034  18.165  0.00  0.00    +0.000 A 
ATOM     22  N   UNL     1      49.727   3.150  18.222  0.00  0.00    +0.000 NA
ATOM     23  C   UNL     1      48.579   3.445  17.574  0.00  0.00    +0.000 A 
ATOM     24  C   UNL     1      48.348   4.606  16.846  0.00  0.00    +0.000 A 
ATOM     25  C   UNL     1      49.400   5.534  16.780  0.00  0.00    +0.000 A 
ATOM     26  C   UNL     1      49.586   6.825  16.164  0.00  0.00    +0.000 A 
ATOM     27  C   UNL     1      50.889   7.203  16.455  0.00  0.00    +0.000 A 
ATOM     28  N   UNL     1      51.470   6.234  17.227  0.00  0.00    +0.000 N 
ATOM     29  C   UNL     1      50.584   5.209  17.442  0.00  0.00    +0.000 A 
ATOM     30  H   UNL     1      52.416   6.245  17.587  0.00  0.00    +0.000 HD
BRANCH  21  32
ATOM     31  C   UNL     1      52.754   2.843  18.126  0.00  0.00    +0.000 C 
ATOM     32  O   UNL     1      51.944   3.793  18.810  0.00  0.00    +0.000 OA
ENDBRANCH  21  32
ENDBRANCH  17  26
ENDBRANCH   1  19
BRANCH   1  33
ATOM     33  C   UNL     1      48.051   8.266  12.245  0.00  0.00    +0.000 C 
BRANCH  33  34
ATOM     34  C   UNL     1      49.211   7.479  11.630  0.00  0.00    +0.000 C 
BRANCH  34  35
ATOM     35  O   UNL     1      50.363   7.514  12.466  0.00  0.00    +0.000 OA
ATOM     36  H   UNL     1      50.992   8.136  12.057  0.00  0.00    +0.000 HD
ENDBRANCH  34  35
ENDBRANCH  33  34
ENDBRANCH   1  33
TORSDOF 11
ENDMDL
MODEL 5
REMARK VINA RESULT:    -7.379      2.948      5.186
REMARK INTER + INTRA:         -13.168
REMARK INTER:                 -11.707
REMARK INTRA:                  -1.461
REMARK UNBOUND:                -1.260
REMARK  Name = 
REMARK  12 active torsions:
REMARK  status: ('A' for Active; 'I' for Inactive)
REMARK    1  A    between atoms: C_1  and  O_2
REMARK    2  A    between atoms: O_2  and  C_3
REMARK    3  A    between atoms: C_8  and  C_9
REMARK    4  A    between atoms: N_11  and  C_12
REMARK    5  A    between atoms: C_12  and  C_13
REMARK    6  A    between atoms: C_12  and  C_16
REMARK    7  A    between atoms: C_13  and  C_14
REMARK    8  A    between atoms: C_14  and  O_15
REMARK    9  A    between atoms: C_19  and  C_20
REMARK   10  A    between atoms: C_20  and  O_21
REMARK   11  A    between atoms: O_21  and  C_22
REMARK   12  A    between atoms: C_22  and  C_23
REMARK                            x       y       z     vdW  Elec       q    Type
REMARK                         _______ _______ _______ _____ _____    ______ ____
ROOT
ATOM      1  C   UNL     1      47.818   4.733  14.863  0.00  0.00    +0.000 C 
ENDROOT
BRANCH   1   2
ATOM      2  C   UNL     1      46.748   4.695  13.767  0.00  0.00    +0.000 A 
ATOM      3  C   UNL     1      46.161   5.863  13.250  0.00  0.00    +0.000 A 
ATOM      4  C   UNL     1      45.125   5.800  12.313  0.00  0.00    +0.000 A 
ATOM      5  C   UNL     1      44.655   4.568  11.847  0.00  0.00    +0.000 A 
ATOM      6  C   UNL     1      45.282   3.401  12.298  0.00  0.00    +0.000 A 
ATOM      7  C   UNL     1      46.320   3.465  13.237  0.00  0.00    +0.000 A 
BRANCH   5   8
ATOM      8  C   UNL     1      43.476   4.510  10.912  0.00  0.00    +0.000 C 
BRANCH   8   9
ATOM      9  O   UNL     1      43.756   3.578   9.877  0.00  0.00    +0.000 OA
BRANCH   9  10
ATOM     10  C   UNL     1      44.371   4.204   8.747  0.00  0.00    +0.000 C 
BRANCH  10  11
ATOM     11  C   UNL     1      45.427   3.296   8.159  0.00  0.00    +0.000 A 
ATOM     12  C   UNL     1      45.489   1.952   8.523  0.00  0.00    +0.000 A 
ATOM     13  C   UNL     1      46.489   1.148   7.986  0.00  0.00    +0.000 A 
ATOM     14  C   UNL     1      47.390   1.700   7.086  0.00  0.00    +0.000 A 
ATOM     15  C   UNL     1      47.243   3.034   6.749  0.00  0.00    +0.000 A 
ATOM     16  N   UNL     1      46.284   3.841   7.256  0.00  0.00    +0.000 NA
ENDBRANCH  10  11
ENDBRANCH   9  10
ENDBRANCH   8   9
ENDBRANCH   5   8
ENDBRANCH   1   2
BRANCH   1  19
ATOM     17  C   UNL     1      48.849   6.796  15.835  0.00  0.00    +0.000 C 
ATOM     18  O   UNL     1      49.954   6.594  15.340  0.00  0.00    +0.000 OA
ATOM     19  N   UNL     1      47.769   5.972  15.624  0.00  0.00    +0.000 N 
ATOM     20  H   UNL     1      47.033   6.006  16.316  0.00  0.00    +0.000 HD
BRANCH  17  26
ATOM     21  C   UNL     1      47.656   9.517  19.859  0.00  0.00    +0.000 A 
ATOM     22  N   UNL     1      47.460   8.521  20.752  0.00  0.00    +0.000 NA
ATOM     23  C   UNL     1      47.637   7.244  20.348  0.00  0.00    +0.000 A 
ATOM     24  C   UNL     1      48.002   6.857  19.063  0.00  0.00    +0.000 A 
ATOM     25  C   UNL     1      48.207   7.881  18.125  0.00  0.00    +0.000 A 
ATOM     26  C   UNL     1      48.574   7.929  16.731  0.00  0.00    +0.000 A 
ATOM     27  C   UNL     1      48.639   9.276  16.401  0.00  0.00    +0.000 A 
ATOM     28  N   UNL     1      48.306  10.019  17.499  0.00  0.00    +0.000 N 
ATOM     29  C   UNL     1      48.035   9.194  18.561  0.00  0.00    +0.000 A 
ATOM     30  H   UNL     1      48.269  11.029  17.548  0.00  0.00    +0.000 HD
BRANCH  21  32
ATOM     31  C   UNL     1      46.138  11.152  20.541  0.00  0.00    +0.000 C 
ATOM     32  O   UNL     1      47.487  10.840  20.209  0.00  0.00    +0.000 OA
ENDBRANCH  21  32
ENDBRANCH  17  26
ENDBRANCH   1  19
BRANCH   1  33
ATOM     33  C   UNL     1      47.721   3.528  15.833  0.00  0.00    +0.000 C 
BRANCH  33  34
ATOM     34  C   UNL     1      47.037   3.840  17.166  0.00  0.00    +0.000 C 
BRANCH  34  35
ATOM     35  O   UNL     1      46.514   2.661  17.770  0.00  0.00    +0.000 OA
ATOM     36  H   UNL     1      45.702   2.921  18.243  0.00  0.00    +0.000 HD
ENDBRANCH  34  35
ENDBRANCH  33  34
ENDBRANCH   1  33
TORSDOF 11
ENDMDL
MODEL 6
REMARK VINA RESULT:    -7.254      5.601      8.203
REMARK INTER + INTRA:         -12.967
REMARK INTER:                 -11.246
REMARK INTRA:                  -1.721
REMARK UNBOUND:                -1.260
REMARK  Name = 
REMARK  12 active torsions:
REMARK  status: ('A' for Active; 'I' for Inactive)
REMARK    1  A    between atoms: C_1  and  O_2
REMARK    2  A    between atoms: O_2  and  C_3
REMARK    3  A    between atoms: C_8  and  C_9
REMARK    4  A    between atoms: N_11  and  C_12
REMARK    5  A    between atoms: C_12  and  C_13
REMARK    6  A    between atoms: C_12  and  C_16
REMARK    7  A    between atoms: C_13  and  C_14
REMARK    8  A    between atoms: C_14  and  O_15
REMARK    9  A    between atoms: C_19  and  C_20
REMARK   10  A    between atoms: C_20  and  O_21
REMARK   11  A    between atoms: O_21  and  C_22
REMARK   12  A    between atoms: C_22  and  C_23
REMARK                            x       y       z     vdW  Elec       q    Type
REMARK                         _______ _______ _______ _____ _____    ______ ____
ROOT
ATOM      1  C   UNL     1      45.652   5.255  13.158  0.00  0.00    +0.000 C 
ENDROOT
BRANCH   1   2
ATOM      2  C   UNL     1      45.694   6.708  12.672  0.00  0.00    +0.000 A 
ATOM      3  C   UNL     1      46.676   7.615  13.105  0.00  0.00    +0.000 A 
ATOM      4  C   UNL     1      46.644   8.958  12.715  0.00  0.00    +0.000 A 
ATOM      5  C   UNL     1      45.641   9.432  11.864  0.00  0.00    +0.000 A 
ATOM      6  C   UNL     1      44.702   8.522  11.367  0.00  0.00    +0.000 A 
ATOM      7  C   UNL     1      44.735   7.177  11.758  0.00  0.00    +0.000 A 
BRANCH   5   8
ATOM      8  C   UNL     1      45.560  10.899  11.529  0.00  0.00    +0.000 C 
BRANCH   8   9
ATOM      9  O   UNL     1      44.356  11.427  12.067  0.00  0.00    +0.000 OA
BRANCH   9  10
ATOM     10  C   UNL     1      43.474  11.896  11.043  0.00  0.00    +0.000 C 
BRANCH  10  11
ATOM     11  C   UNL     1      42.046  11.528  11.376  0.00  0.00    +0.000 A 
ATOM     12  C   UNL     1      41.348  10.615  10.585  0.00  0.00    +0.000 A 
ATOM     13  C   UNL     1      40.026  10.318  10.900  0.00  0.00    +0.000 A 
ATOM     14  C   UNL     1      39.440  10.922  12.003  0.00  0.00    +0.000 A 
ATOM     15  C   UNL     1      40.209  11.792  12.757  0.00  0.00    +0.000 A 
ATOM     16  N   UNL     1      41.494  12.104  12.475  0.00  0.00    +0.000 NA
ENDBRANCH  10  11
ENDBRANCH   9  10
ENDBRANCH   8   9
ENDBRANCH   5   8
ENDBRANCH   1   2
BRANCH   1  19
ATOM     17  C   UNL     1      47.066   4.059  14.842  0.00  0.00    +0.000 C 
ATOM     18  O   UNL     1      47.412   3.175  14.066  0.00  0.00    +0.000 OA
ATOM     19  N   UNL     1      46.255   5.107  14.474  0.00  0.00    +0.000 N 
ATOM     20  H   UNL     1      45.750   5.571  15.216  0.00  0.00    +0.000 HD
BRANCH  17  26
ATOM     21  C   UNL     1      49.059   5.410  19.226  0.00  0.00    +0.000 A 
ATOM     22  N   UNL     1      49.618   6.587  18.865  0.00  0.00    +0.000 NA
ATOM     23  C   UNL     1      49.478   7.005  17.588  0.00  0.00    +0.000 A 
ATOM     24  C   UNL     1      48.802   6.312  16.590  0.00  0.00    +0.000 A 
ATOM     25  C   UNL     1      48.218   5.087  16.951  0.00  0.00    +0.000 A 
ATOM     26  C   UNL     1      47.459   4.075  16.259  0.00  0.00    +0.000 A 
ATOM     27  C   UNL     1      47.148   3.114  17.211  0.00  0.00    +0.000 A 
ATOM     28  N   UNL     1      47.700   3.480  18.407  0.00  0.00    +0.000 N 
ATOM     29  C   UNL     1      48.359   4.676  18.276  0.00  0.00    +0.000 A 
ATOM     30  H   UNL     1      47.634   2.966  19.277  0.00  0.00    +0.000 HD
BRANCH  21  32
ATOM     31  C   UNL     1      48.300   5.584  21.425  0.00  0.00    +0.000 C 
ATOM     32  O   UNL     1      49.172   4.926  20.513  0.00  0.00    +0.000 OA
ENDBRANCH  21  32
ENDBRANCH  17  26
ENDBRANCH   1  19
BRANCH   1  33
ATOM     33  C   UNL     1      44.214   4.676  13.181  0.00  0.00    +0.000 C 
BRANCH  33  34
ATOM     34  C   UNL     1      44.067   3.317  12.493  0.00  0.00    +0.000 C 
BRANCH  34  35
ATOM     35  O   UNL     1      45.326   2.821  12.049  0.00  0.00    +0.000 OA
ATOM     36  H   UNL     1      45.455   3.149  11.140  0.00  0.00    +0.000 HD
ENDBRANCH  34  35
ENDBRANCH  33  34
ENDBRANCH   1  33
TORSDOF 11
ENDMDL
MODEL 7
REMARK VINA RESULT:    -6.989      5.665      7.462
REMARK INTER + INTRA:         -12.539
REMARK INTER:                 -10.788
REMARK INTRA:                  -1.752
REMARK UNBOUND:                -1.260
REMARK  Name = 
REMARK  12 active torsions:
REMARK  status: ('A' for Active; 'I' for Inactive)
REMARK    1  A    between atoms: C_1  and  O_2
REMARK    2  A    between atoms: O_2  and  C_3
REMARK    3  A    between atoms: C_8  and  C_9
REMARK    4  A    between atoms: N_11  and  C_12
REMARK    5  A    between atoms: C_12  and  C_13
REMARK    6  A    between atoms: C_12  and  C_16
REMARK    7  A    between atoms: C_13  and  C_14
REMARK    8  A    between atoms: C_14  and  O_15
REMARK    9  A    between atoms: C_19  and  C_20
REMARK   10  A    between atoms: C_20  and  O_21
REMARK   11  A    between atoms: O_21  and  C_22
REMARK   12  A    between atoms: C_22  and  C_23
REMARK                            x       y       z     vdW  Elec       q    Type
REMARK                         _______ _______ _______ _____ _____    ______ ____
ROOT
ATOM      1  C   UNL     1      46.044   5.309  13.282  0.00  0.00    +0.000 C 
ENDROOT
BRANCH   1   2
ATOM      2  C   UNL     1      46.327   6.730  12.783  0.00  0.00    +0.000 A 
ATOM      3  C   UNL     1      47.631   7.192  12.536  0.00  0.00    +0.000 A 
ATOM      4  C   UNL     1      47.871   8.518  12.164  0.00  0.00    +0.000 A 
ATOM      5  C   UNL     1      46.814   9.420  12.008  0.00  0.00    +0.000 A 
ATOM      6  C   UNL     1      45.507   8.953  12.178  0.00  0.00    +0.000 A 
ATOM      7  C   UNL     1      45.267   7.624  12.551  0.00  0.00    +0.000 A 
BRANCH   5   8
ATOM      8  C   UNL     1      47.092  10.870  11.701  0.00  0.00    +0.000 C 
BRANCH   8   9
ATOM      9  O   UNL     1      45.879  11.602  11.813  0.00  0.00    +0.000 OA
BRANCH   9  10
ATOM     10  C   UNL     1      45.765  12.603  10.798  0.00  0.00    +0.000 C 
BRANCH  10  11
ATOM     11  C   UNL     1      45.115  12.023   9.563  0.00  0.00    +0.000 A 
ATOM     12  C   UNL     1      43.925  11.302   9.662  0.00  0.00    +0.000 A 
ATOM     13  C   UNL     1      43.366  10.756   8.512  0.00  0.00    +0.000 A 
ATOM     14  C   UNL     1      43.994  10.957   7.292  0.00  0.00    +0.000 A 
ATOM     15  C   UNL     1      45.155  11.712   7.271  0.00  0.00    +0.000 A 
ATOM     16  N   UNL     1      45.725  12.252   8.371  0.00  0.00    +0.000 NA
ENDBRANCH  10  11
ENDBRANCH   9  10
ENDBRANCH   8   9
ENDBRANCH   5   8
ENDBRANCH   1   2
BRANCH   1  19
ATOM     17  C   UNL     1      47.234   3.988  15.044  0.00  0.00    +0.000 C 
ATOM     18  O   UNL     1      47.559   3.083  14.282  0.00  0.00    +0.000 OA
ATOM     19  N   UNL     1      46.540   5.102  14.635  0.00  0.00    +0.000 N 
ATOM     20  H   UNL     1      46.024   5.601  15.347  0.00  0.00    +0.000 HD
BRANCH  17  26
ATOM     21  C   UNL     1      48.855   5.238  19.607  0.00  0.00    +0.000 A 
ATOM     22  N   UNL     1      49.381   6.453  19.334  0.00  0.00    +0.000 NA
ATOM     23  C   UNL     1      49.309   6.919  18.067  0.00  0.00    +0.000 A 
ATOM     24  C   UNL     1      48.737   6.240  16.998  0.00  0.00    +0.000 A 
ATOM     25  C   UNL     1      48.188   4.976  17.268  0.00  0.00    +0.000 A 
ATOM     26  C   UNL     1      47.528   3.961  16.485  0.00  0.00    +0.000 A 
ATOM     27  C   UNL     1      47.198   2.947  17.374  0.00  0.00    +0.000 A 
ATOM     28  N   UNL     1      47.648   3.286  18.620  0.00  0.00    +0.000 N 
ATOM     29  C   UNL     1      48.258   4.515  18.583  0.00  0.00    +0.000 A 
ATOM     30  H   UNL     1      47.547   2.734  19.462  0.00  0.00    +0.000 HD
BRANCH  21  32
ATOM     31  C   UNL     1      48.053   5.391  21.793  0.00  0.00    +0.000 C 
ATOM     32  O   UNL     1      48.901   4.705  20.879  0.00  0.00    +0.000 OA
ENDBRANCH  21  32
ENDBRANCH  17  26
ENDBRANCH   1  19
BRANCH   1  33
ATOM     33  C   UNL     1      44.538   4.946  13.224  0.00  0.00    +0.000 C 
BRANCH  33  34
ATOM     34  C   UNL     1      44.231   3.625  12.514  0.00  0.00    +0.000 C 
BRANCH  34  35
ATOM     35  O   UNL     1      45.339   2.732  12.580  0.00  0.00    +0.000 OA
ATOM     36  H   UNL     1      46.112   3.259  12.851  0.00  0.00    +0.000 HD
ENDBRANCH  34  35
ENDBRANCH  33  34
ENDBRANCH   1  33
TORSDOF 11
ENDMDL
MODEL 8
REMARK VINA RESULT:    -6.554      5.565      8.767
REMARK INTER + INTRA:         -11.836
REMARK INTER:                  -9.761
REMARK INTRA:                  -2.076
REMARK UNBOUND:                -1.260
REMARK  Name = 
REMARK  12 active torsions:
REMARK  status: ('A' for Active; 'I' for Inactive)
REMARK    1  A    between atoms: C_1  and  O_2
REMARK    2  A    between atoms: O_2  and  C_3
REMARK    3  A    between atoms: C_8  and  C_9
REMARK    4  A    between atoms: N_11  and  C_12
REMARK    5  A    between atoms: C_12  and  C_13
REMARK    6  A    between atoms: C_12  and  C_16
REMARK    7  A    between atoms: C_13  and  C_14
REMARK    8  A    between atoms: C_14  and  O_15
REMARK    9  A    between atoms: C_19  and  C_20
REMARK   10  A    between atoms: C_20  and  O_21
REMARK   11  A    between atoms: O_21  and  C_22
REMARK   12  A    between atoms: C_22  and  C_23
REMARK                            x       y       z     vdW  Elec       q    Type
REMARK                         _______ _______ _______ _____ _____    ______ ____
ROOT
ATOM      1  C   UNL     1      46.216   5.391  13.290  0.00  0.00    +0.000 C 
ENDROOT
BRANCH   1   2
ATOM      2  C   UNL     1      46.481   6.828  12.831  0.00  0.00    +0.000 A 
ATOM      3  C   UNL     1      47.744   7.253  12.385  0.00  0.00    +0.000 A 
ATOM      4  C   UNL     1      47.984   8.590  12.053  0.00  0.00    +0.000 A 
ATOM      5  C   UNL     1      46.963   9.542  12.139  0.00  0.00    +0.000 A 
ATOM      6  C   UNL     1      45.683   9.118  12.511  0.00  0.00    +0.000 A 
ATOM      7  C   UNL     1      45.444   7.778  12.843  0.00  0.00    +0.000 A 
BRANCH   5   8
ATOM      8  C   UNL     1      47.257  10.996  11.873  0.00  0.00    +0.000 C 
BRANCH   8   9
ATOM      9  O   UNL     1      48.662  11.164  11.744  0.00  0.00    +0.000 OA
BRANCH   9  10
ATOM     10  C   UNL     1      49.183  12.075  12.715  0.00  0.00    +0.000 C 
BRANCH  10  11
ATOM     11  C   UNL     1      49.652  11.322  13.939  0.00  0.00    +0.000 A 
ATOM     12  C   UNL     1      50.656  10.360  13.837  0.00  0.00    +0.000 A 
ATOM     13  C   UNL     1      51.047   9.663  14.975  0.00  0.00    +0.000 A 
ATOM     14  C   UNL     1      50.441   9.956  16.189  0.00  0.00    +0.000 A 
ATOM     15  C   UNL     1      49.475  10.947  16.215  0.00  0.00    +0.000 A 
ATOM     16  N   UNL     1      49.071  11.638  15.126  0.00  0.00    +0.000 NA
ENDBRANCH  10  11
ENDBRANCH   9  10
ENDBRANCH   8   9
ENDBRANCH   5   8
ENDBRANCH   1   2
BRANCH   1  19
ATOM     17  C   UNL     1      47.271   3.969  15.061  0.00  0.00    +0.000 C 
ATOM     18  O   UNL     1      47.463   3.014  14.315  0.00  0.00    +0.000 OA
ATOM     19  N   UNL     1      46.712   5.152  14.637  0.00  0.00    +0.000 N 
ATOM     20  H   UNL     1      46.280   5.728  15.347  0.00  0.00    +0.000 HD
BRANCH  17  26
ATOM     21  C   UNL     1      49.047   5.163  19.581  0.00  0.00    +0.000 A 
ATOM     22  N   UNL     1      49.634   6.345  19.287  0.00  0.00    +0.000 NA
ATOM     23  C   UNL     1      49.563   6.804  18.018  0.00  0.00    +0.000 A 
ATOM     24  C   UNL     1      48.933   6.149  16.965  0.00  0.00    +0.000 A 
ATOM     25  C   UNL     1      48.321   4.920  17.257  0.00  0.00    +0.000 A 
ATOM     26  C   UNL     1      47.591   3.937  16.495  0.00  0.00    +0.000 A 
ATOM     27  C   UNL     1      47.223   2.950  17.400  0.00  0.00    +0.000 A 
ATOM     28  N   UNL     1      47.716   3.273  18.634  0.00  0.00    +0.000 N 
ATOM     29  C   UNL     1      48.391   4.466  18.574  0.00  0.00    +0.000 A 
ATOM     30  H   UNL     1      47.601   2.733  19.482  0.00  0.00    +0.000 HD
BRANCH  21  32
ATOM     31  C   UNL     1      48.111   5.209  21.717  0.00  0.00    +0.000 C 
ATOM     32  O   UNL     1      49.089   4.638  20.856  0.00  0.00    +0.000 OA
ENDBRANCH  21  32
ENDBRANCH  17  26
ENDBRANCH   1  19
BRANCH   1  33
ATOM     33  C   UNL     1      44.715   5.009  13.218  0.00  0.00    +0.000 C 
BRANCH  33  34
ATOM     34  C   UNL     1      44.400   3.857  12.260  0.00  0.00    +0.000 C 
BRANCH  34  35
ATOM     35  O   UNL     1      45.146   2.689  12.590  0.00  0.00    +0.000 OA
ATOM     36  H   UNL     1      44.880   2.428  13.491  0.00  0.00    +0.000 HD
ENDBRANCH  34  35
ENDBRANCH  33  34
ENDBRANCH   1  33
TORSDOF 11
ENDMDL
MODEL 9
REMARK VINA RESULT:    -6.334      4.025      5.995
REMARK INTER + INTRA:         -11.482
REMARK INTER:                 -10.261
REMARK INTRA:                  -1.221
REMARK UNBOUND:                -1.260
REMARK  Name = 
REMARK  12 active torsions:
REMARK  status: ('A' for Active; 'I' for Inactive)
REMARK    1  A    between atoms: C_1  and  O_2
REMARK    2  A    between atoms: O_2  and  C_3
REMARK    3  A    between atoms: C_8  and  C_9
REMARK    4  A    between atoms: N_11  and  C_12
REMARK    5  A    between atoms: C_12  and  C_13
REMARK    6  A    between atoms: C_12  and  C_16
REMARK    7  A    between atoms: C_13  and  C_14
REMARK    8  A    between atoms: C_14  and  O_15
REMARK    9  A    between atoms: C_19  and  C_20
REMARK   10  A    between atoms: C_20  and  O_21
REMARK   11  A    between atoms: O_21  and  C_22
REMARK   12  A    between atoms: C_22  and  C_23
REMARK                            x       y       z     vdW  Elec       q    Type
REMARK                         _______ _______ _______ _____ _____    ______ ____
ROOT
ATOM      1  C   UNL     1      46.325   8.506  13.006  0.00  0.00    +0.000 C 
ENDROOT
BRANCH   1   2
ATOM      2  C   UNL     1      45.619   7.191  12.659  0.00  0.00    +0.000 A 
ATOM      3  C   UNL     1      45.942   5.977  13.289  0.00  0.00    +0.000 A 
ATOM      4  C   UNL     1      45.346   4.775  12.896  0.00  0.00    +0.000 A 
ATOM      5  C   UNL     1      44.394   4.751  11.872  0.00  0.00    +0.000 A 
ATOM      6  C   UNL     1      44.010   5.962  11.288  0.00  0.00    +0.000 A 
ATOM      7  C   UNL     1      44.608   7.166  11.683  0.00  0.00    +0.000 A 
BRANCH   5   8
ATOM      8  C   UNL     1      43.830   3.438  11.391  0.00  0.00    +0.000 C 
BRANCH   8   9
ATOM      9  O   UNL     1      44.775   2.822  10.527  0.00  0.00    +0.000 OA
BRANCH   9  10
ATOM     10  C   UNL     1      44.465   3.048   9.149  0.00  0.00    +0.000 C 
BRANCH  10  11
ATOM     11  C   UNL     1      45.589   2.543   8.273  0.00  0.00    +0.000 A 
ATOM     12  C   UNL     1      46.212   3.393   7.360  0.00  0.00    +0.000 A 
ATOM     13  C   UNL     1      47.223   2.892   6.547  0.00  0.00    +0.000 A 
ATOM     14  C   UNL     1      47.600   1.563   6.677  0.00  0.00    +0.000 A 
ATOM     15  C   UNL     1      46.956   0.791   7.629  0.00  0.00    +0.000 A 
ATOM     16  N   UNL     1      45.968   1.248   8.431  0.00  0.00    +0.000 NA
ENDBRANCH  10  11
ENDBRANCH   9  10
ENDBRANCH   8   9
ENDBRANCH   5   8
ENDBRANCH   1   2
BRANCH   1  19
ATOM     17  C   UNL     1      48.539   8.380  14.168  0.00  0.00    +0.000 C 
ATOM     18  O   UNL     1      48.061   8.469  15.294  0.00  0.00    +0.000 OA
ATOM     19  N   UNL     1      47.772   8.355  13.026  0.00  0.00    +0.000 N 
ATOM     20  H   UNL     1      48.230   8.628  12.167  0.00  0.00    +0.000 HD
BRANCH  17  26
ATOM     21  C   UNL     1      53.040   8.885  12.048  0.00  0.00    +0.000 A 
ATOM     22  N   UNL     1      52.686   9.549  10.925  0.00  0.00    +0.000 NA
ATOM     23  C   UNL     1      51.384   9.855  10.737  0.00  0.00    +0.000 A 
ATOM     24  C   UNL     1      50.353   9.532  11.613  0.00  0.00    +0.000 A 
ATOM     25  C   UNL     1      50.707   8.840  12.783  0.00  0.00    +0.000 A 
ATOM     26  C   UNL     1      49.987   8.320  13.919  0.00  0.00    +0.000 A 
ATOM     27  C   UNL     1      50.945   7.764  14.756  0.00  0.00    +0.000 A 
ATOM     28  N   UNL     1      52.174   7.896  14.172  0.00  0.00    +0.000 N 
ATOM     29  C   UNL     1      52.057   8.544  12.969  0.00  0.00    +0.000 A 
ATOM     30  H   UNL     1      53.055   7.579  14.558  0.00  0.00    +0.000 HD
BRANCH  21  32
ATOM     31  C   UNL     1      54.780   7.420  11.525  0.00  0.00    +0.000 C 
ATOM     32  O   UNL     1      54.353   8.539  12.294  0.00  0.00    +0.000 OA
ENDBRANCH  21  32
ENDBRANCH  17  26
ENDBRANCH   1  19
BRANCH   1  33
ATOM     33  C   UNL     1      45.941   9.660  12.045  0.00  0.00    +0.000 C 
BRANCH  33  34
ATOM     34  C   UNL     1      47.069  10.659  11.771  0.00  0.00    +0.000 C 
BRANCH  34  35
ATOM     35  O   UNL     1      47.362  11.439  12.926  0.00  0.00    +0.000 OA
ATOM     36  H   UNL     1      46.513  11.784  13.258  0.00  0.00    +0.000 HD
ENDBRANCH  34  35
ENDBRANCH  33  34
ENDBRANCH   1  33
TORSDOF 11
ENDMDL
