MODEL 1
REMARK VINA RESULT:    -7.902      0.000      0.000
REMARK INTER + INTRA:         -12.255
REMARK INTER:                 -11.597
REMARK INTRA:                  -0.658
REMARK UNBOUND:                -0.658
REMARK  Name = 
REMARK  8 active torsions:
REMARK  status: ('A' for Active; 'I' for Inactive)
REMARK    1  A    between atoms: C_2  and  C_12
REMARK    2  A    between atoms: N_3  and  C_4
REMARK    3  A    between atoms: C_4  and  C_5
REMARK    4  A    between atoms: C_5  and  C_6
REMARK    5  A    between atoms: C_15  and  C_16
REMARK    6  A    between atoms: C_16  and  N_17
REMARK    7  A    between atoms: N_17  and  C_18
REMARK    8  A    between atoms: C_18  and  C_19
REMARK                            x       y       z     vdW  Elec       q    Type
REMARK                         _______ _______ _______ _____ _____    ______ ____
ROOT
ATOM      1  C   UNL     1      46.928   5.849  12.995  0.00  0.00    +0.000 A 
ATOM      2  C   UNL     1      46.107   4.770  13.326  0.00  0.00    +0.000 A 
ATOM      3  C   UNL     1      45.060   4.402  12.478  0.00  0.00    +0.000 A 
ATOM      4  C   UNL     1      44.825   5.104  11.288  0.00  0.00    +0.000 A 
ATOM      5  C   UNL     1      45.667   6.176  10.953  0.00  0.00    +0.000 A 
ATOM      6  C   UNL     1      46.715   6.547  11.800  0.00  0.00    +0.000 A 
ENDROOT
BRANCH   1   8
ATOM      7  O   UNL     1      49.122   6.542  13.490  0.00  0.00    +0.000 OA
ATOM      8  C   UNL     1      48.026   6.212  13.928  0.00  0.00    +0.000 C 
ATOM      9  N   UNL     1      47.733   6.104  15.268  0.00  0.00    +0.000 N 
ATOM     10  H   UNL     1      46.869   5.667  15.556  0.00  0.00    +0.000 HD
BRANCH   9  11
ATOM     11  C   UNL     1      48.740   6.348  16.274  0.00  0.00    +0.000 C 
BRANCH  11  12
ATOM     12  C   UNL     1      48.385   5.690  17.608  0.00  0.00    +0.000 C 
BRANCH  12  13
ATOM     13  C   UNL     1      48.886   4.237  17.687  0.00  0.00    +0.000 C 
ATOM     14  C   UNL     1      50.408   4.144  17.499  0.00  0.00    +0.000 C 
ATOM     15  C   UNL     1      50.868   2.696  17.435  0.00  0.00    +0.000 C 
ATOM     16  O   UNL     1      50.182   1.995  16.402  0.00  0.00    +0.000 OA
ATOM     17  C   UNL     1      48.775   1.950  16.632  0.00  0.00    +0.000 C 
ATOM     18  C   UNL     1      48.184   3.355  16.643  0.00  0.00    +0.000 C 
ENDBRANCH  12  13
ENDBRANCH  11  12
ENDBRANCH   9  11
ENDBRANCH   1   8
BRANCH   4  19
ATOM     19  C   UNL     1      43.695   4.698  10.365  0.00  0.00    +0.000 C 
BRANCH  19  20
ATOM     20  N   UNL     1      44.215   4.221   9.086  0.00  0.00    +0.000 NA
ATOM     21  H   UNL     1      45.109   4.682   8.907  0.00  0.00    +0.000 HD
BRANCH  20  22
ATOM     22  C   UNL     1      44.446   2.772   9.108  0.00  0.00    +0.000 C 
BRANCH  22  23
ATOM     23  C   UNL     1      45.665   2.384   8.292  0.00  0.00    +0.000 A 
ATOM     24  C   UNL     1      46.362   3.346   7.579  0.00  0.00    +0.000 A 
ATOM     25  C   UNL     1      47.457   2.908   6.871  0.00  0.00    +0.000 A 
ATOM     26  N   UNL     1      47.860   1.626   6.843  0.00  0.00    +0.000 NA
ATOM     27  C   UNL     1      47.121   0.773   7.570  0.00  0.00    +0.000 A 
ATOM     28  N   UNL     1      46.039   1.084   8.300  0.00  0.00    +0.000 NA
ENDBRANCH  22  23
ENDBRANCH  20  22
ENDBRANCH  19  20
ENDBRANCH   4  19
TORSDOF 8
ENDMDL
MODEL 2
REMARK VINA RESULT:    -7.683      1.388      1.999
REMARK INTER + INTRA:         -11.935
REMARK INTER:                 -11.249
REMARK INTRA:                  -0.685
REMARK UNBOUND:                -0.658
REMARK  Name = 
REMARK  8 active torsions:
REMARK  status: ('A' for Active; 'I' for Inactive)
REMARK    1  A    between atoms: C_2  and  C_12
REMARK    2  A    between atoms: N_3  and  C_4
REMARK    3  A    between atoms: C_4  and  C_5
REMARK    4  A    between atoms: C_5  and  C_6
REMARK    5  A    between atoms: C_15  and  C_16
REMARK    6  A    between atoms: C_16  and  N_17
REMARK    7  A    between atoms: N_17  and  C_18
REMARK    8  A    between atoms: C_18  and  C_19
REMARK                            x       y       z     vdW  Elec       q    Type
REMARK                         _______ _______ _______ _____ _____    ______ ____
ROOT
ATOM      1  C   UNL     1      46.287   4.718  13.164  0.00  0.00    +0.000 A 
ATOM      2  C   UNL     1      46.135   5.825  12.328  0.00  0.00    +0.000 A 
ATOM      3  C   UNL     1      45.395   5.712  11.148  0.00  0.00    +0.000 A 
ATOM      4  C   UNL     1      44.796   4.496  10.794  0.00  0.00    +0.000 A 
ATOM      5  C   UNL     1      44.938   3.394  11.651  0.00  0.00    +0.000 A 
ATOM      6  C   UNL     1      45.678   3.502  12.832  0.00  0.00    +0.000 A 
ENDROOT
BRANCH   1   8
ATOM      7  O   UNL     1      48.134   5.515  14.386  0.00  0.00    +0.000 OA
ATOM      8  C   UNL     1      47.087   4.879  14.406  0.00  0.00    +0.000 C 
ATOM      9  N   UNL     1      46.596   4.240  15.521  0.00  0.00    +0.000 N 
ATOM     10  H   UNL     1      45.821   3.597  15.429  0.00  0.00    +0.000 HD
BRANCH   9  11
ATOM     11  C   UNL     1      47.324   4.251  16.769  0.00  0.00    +0.000 C 
BRANCH  11  12
ATOM     12  C   UNL     1      47.916   2.880  17.096  0.00  0.00    +0.000 C 
BRANCH  12  13
ATOM     13  C   UNL     1      49.295   2.992  17.771  0.00  0.00    +0.000 C 
ATOM     14  C   UNL     1      49.813   4.438  17.780  0.00  0.00    +0.000 C 
ATOM     15  C   UNL     1      51.233   4.512  18.317  0.00  0.00    +0.000 C 
ATOM     16  O   UNL     1      52.099   3.663  17.569  0.00  0.00    +0.000 OA
ATOM     17  C   UNL     1      51.715   2.293  17.663  0.00  0.00    +0.000 C 
ATOM     18  C   UNL     1      50.322   2.081  17.080  0.00  0.00    +0.000 C 
ENDBRANCH  12  13
ENDBRANCH  11  12
ENDBRANCH   9  11
ENDBRANCH   1   8
BRANCH   4  19
ATOM     19  C   UNL     1      43.988   4.379   9.519  0.00  0.00    +0.000 C 
BRANCH  19  20
ATOM     20  N   UNL     1      44.599   3.419   8.603  0.00  0.00    +0.000 NA
ATOM     21  H   UNL     1      43.945   3.234   7.841  0.00  0.00    +0.000 HD
BRANCH  20  22
ATOM     22  C   UNL     1      45.839   3.948   8.021  0.00  0.00    +0.000 C 
BRANCH  22  23
ATOM     23  C   UNL     1      46.533   2.921   7.145  0.00  0.00    +0.000 A 
ATOM     24  C   UNL     1      46.803   3.206   5.817  0.00  0.00    +0.000 A 
ATOM     25  C   UNL     1      47.439   2.221   5.097  0.00  0.00    +0.000 A 
ATOM     26  N   UNL     1      47.791   1.032   5.616  0.00  0.00    +0.000 NA
ATOM     27  C   UNL     1      47.489   0.855   6.911  0.00  0.00    +0.000 A 
ATOM     28  N   UNL     1      46.876   1.741   7.711  0.00  0.00    +0.000 NA
ENDBRANCH  22  23
ENDBRANCH  20  22
ENDBRANCH  19  20
ENDBRANCH   4  19
TORSDOF 8
ENDMDL
MODEL 3
REMARK VINA RESULT:    -7.434      1.638      2.419
REMARK INTER + INTRA:         -11.568
REMARK INTER:                 -10.798
REMARK INTRA:                  -0.770
REMARK UNBOUND:                -0.658
REMARK  Name = 
REMARK  8 active torsions:
REMARK  status: ('A' for Active; 'I' for Inactive)
REMARK    1  A    between atoms: C_2  and  C_12
REMARK    2  A    between atoms: N_3  and  C_4
REMARK    3  A    between atoms: C_4  and  C_5
REMARK    4  A    between atoms: C_5  and  C_6
REMARK    5  A    between atoms: C_15  and  C_16
REMARK    6  A    between atoms: C_16  and  N_17
REMARK    7  A    between atoms: N_17  and  C_18
REMARK    8  A    between atoms: C_18  and  C_19
REMARK                            x       y       z     vdW  Elec       q    Type
REMARK                         _______ _______ _______ _____ _____    ______ ____
ROOT
ATOM      1  C   UNL     1      46.952   5.811  12.944  0.00  0.00    +0.000 A 
ATOM      2  C   UNL     1      46.630   6.619  11.852  0.00  0.00    +0.000 A 
ATOM      3  C   UNL     1      45.587   6.253  10.997  0.00  0.00    +0.000 A 
ATOM      4  C   UNL     1      44.853   5.082  11.225  0.00  0.00    +0.000 A 
ATOM      5  C   UNL     1      45.171   4.286  12.336  0.00  0.00    +0.000 A 
ATOM      6  C   UNL     1      46.214   4.648  13.194  0.00  0.00    +0.000 A 
ENDROOT
BRANCH   1   8
ATOM      7  O   UNL     1      49.150   6.550  13.339  0.00  0.00    +0.000 OA
ATOM      8  C   UNL     1      48.072   6.232  13.825  0.00  0.00    +0.000 C 
ATOM      9  N   UNL     1      47.818   6.191  15.176  0.00  0.00    +0.000 N 
ATOM     10  H   UNL     1      46.967   5.762  15.512  0.00  0.00    +0.000 HD
BRANCH   9  11
ATOM     11  C   UNL     1      48.851   6.497  16.139  0.00  0.00    +0.000 C 
BRANCH  11  12
ATOM     12  C   UNL     1      49.159   5.303  17.043  0.00  0.00    +0.000 C 
BRANCH  12  13
ATOM     13  C   UNL     1      49.040   5.663  18.535  0.00  0.00    +0.000 C 
ATOM     14  C   UNL     1      48.789   4.422  19.406  0.00  0.00    +0.000 C 
ATOM     15  C   UNL     1      48.529   4.807  20.853  0.00  0.00    +0.000 C 
ATOM     16  O   UNL     1      47.443   5.724  20.943  0.00  0.00    +0.000 OA
ATOM     17  C   UNL     1      47.715   6.944  20.255  0.00  0.00    +0.000 C 
ATOM     18  C   UNL     1      47.921   6.689  18.766  0.00  0.00    +0.000 C 
ENDBRANCH  12  13
ENDBRANCH  11  12
ENDBRANCH   9  11
ENDBRANCH   1   8
BRANCH   4  19
ATOM     19  C   UNL     1      43.718   4.693  10.301  0.00  0.00    +0.000 C 
BRANCH  19  20
ATOM     20  N   UNL     1      44.232   4.184   9.032  0.00  0.00    +0.000 NA
ATOM     21  H   UNL     1      45.119   4.650   8.831  0.00  0.00    +0.000 HD
BRANCH  20  22
ATOM     22  C   UNL     1      44.480   2.739   9.095  0.00  0.00    +0.000 C 
BRANCH  22  23
ATOM     23  C   UNL     1      45.706   2.343   8.291  0.00  0.00    +0.000 A 
ATOM     24  C   UNL     1      46.433   3.304   7.609  0.00  0.00    +0.000 A 
ATOM     25  C   UNL     1      47.531   2.860   6.910  0.00  0.00    +0.000 A 
ATOM     26  N   UNL     1      47.910   1.570   6.864  0.00  0.00    +0.000 NA
ATOM     27  C   UNL     1      47.143   0.719   7.562  0.00  0.00    +0.000 A 
ATOM     28  N   UNL     1      46.055   1.036   8.280  0.00  0.00    +0.000 NA
ENDBRANCH  22  23
ENDBRANCH  20  22
ENDBRANCH  19  20
ENDBRANCH   4  19
TORSDOF 8
ENDMDL
MODEL 4
REMARK VINA RESULT:    -7.120      2.268      3.077
REMARK INTER + INTRA:         -11.108
REMARK INTER:                 -10.448
REMARK INTRA:                  -0.660
REMARK UNBOUND:                -0.658
REMARK  Name = 
REMARK  8 active torsions:
REMARK  status: ('A' for Active; 'I' for Inactive)
REMARK    1  A    between atoms: C_2  and  C_12
REMARK    2  A    between atoms: N_3  and  C_4
REMARK    3  A    between atoms: C_4  and  C_5
REMARK    4  A    between atoms: C_5  and  C_6
REMARK    5  A    between atoms: C_15  and  C_16
REMARK    6  A    between atoms: C_16  and  N_17
REMARK    7  A    between atoms: N_17  and  C_18
REMARK    8  A    between atoms: C_18  and  C_19
REMARK                            x       y       z     vdW  Elec       q    Type
REMARK                         _______ _______ _______ _____ _____    ______ ____
ROOT
ATOM      1  C   UNL     1      46.526   4.530  13.844  0.00  0.00    +0.000 A 
ATOM      2  C   UNL     1      46.095   3.424  13.110  0.00  0.00    +0.000 A 
ATOM      3  C   UNL     1      45.380   3.608  11.924  0.00  0.00    +0.000 A 
ATOM      4  C   UNL     1      45.093   4.897  11.456  0.00  0.00    +0.000 A 
ATOM      5  C   UNL     1      45.547   6.003  12.190  0.00  0.00    +0.000 A 
ATOM      6  C   UNL     1      46.262   5.823  13.378  0.00  0.00    +0.000 A 
ENDROOT
BRANCH   1   8
ATOM      7  O   UNL     1      47.596   3.150  15.421  0.00  0.00    +0.000 OA
ATOM      8  C   UNL     1      47.277   4.290  15.103  0.00  0.00    +0.000 C 
ATOM      9  N   UNL     1      47.531   5.402  15.870  0.00  0.00    +0.000 N 
ATOM     10  H   UNL     1      47.096   6.283  15.632  0.00  0.00    +0.000 HD
BRANCH   9  11
ATOM     11  C   UNL     1      48.180   5.291  17.156  0.00  0.00    +0.000 C 
BRANCH  11  12
ATOM     12  C   UNL     1      47.182   4.999  18.276  0.00  0.00    +0.000 C 
BRANCH  12  13
ATOM     13  C   UNL     1      47.266   6.036  19.410  0.00  0.00    +0.000 C 
ATOM     14  C   UNL     1      47.669   7.424  18.889  0.00  0.00    +0.000 C 
ATOM     15  C   UNL     1      47.889   8.400  20.033  0.00  0.00    +0.000 C 
ATOM     16  O   UNL     1      48.858   7.895  20.946  0.00  0.00    +0.000 OA
ATOM     17  C   UNL     1      48.438   6.673  21.549  0.00  0.00    +0.000 C 
ATOM     18  C   UNL     1      48.255   5.586  20.495  0.00  0.00    +0.000 C 
ENDBRANCH  12  13
ENDBRANCH  11  12
ENDBRANCH   9  11
ENDBRANCH   1   8
BRANCH   4  19
ATOM     19  C   UNL     1      44.325   5.095  10.165  0.00  0.00    +0.000 C 
BRANCH  19  20
ATOM     20  N   UNL     1      45.197   4.900   9.009  0.00  0.00    +0.000 NA
ATOM     21  H   UNL     1      46.138   4.689   9.343  0.00  0.00    +0.000 HD
BRANCH  20  22
ATOM     22  C   UNL     1      44.744   3.776   8.180  0.00  0.00    +0.000 C 
BRANCH  22  23
ATOM     23  C   UNL     1      45.903   2.903   7.735  0.00  0.00    +0.000 A 
ATOM     24  C   UNL     1      46.911   3.432   6.945  0.00  0.00    +0.000 A 
ATOM     25  C   UNL     1      47.925   2.572   6.590  0.00  0.00    +0.000 A 
ATOM     26  N   UNL     1      47.971   1.282   6.966  0.00  0.00    +0.000 NA
ATOM     27  C   UNL     1      46.951   0.868   7.733  0.00  0.00    +0.000 A 
ATOM     28  N   UNL     1      45.912   1.613   8.143  0.00  0.00    +0.000 NA
ENDBRANCH  22  23
ENDBRANCH  20  22
ENDBRANCH  19  20
ENDBRANCH   4  19
TORSDOF 8
ENDMDL
MODEL 5
REMARK VINA RESULT:    -6.902      2.705      8.376
REMARK INTER + INTRA:         -10.787
REMARK INTER:                  -9.989
REMARK INTRA:                  -0.798
REMARK UNBOUND:                -0.658
REMARK  Name = 
REMARK  8 active torsions:
REMARK  status: ('A' for Active; 'I' for Inactive)
REMARK    1  A    between atoms: C_2  and  C_12
REMARK    2  A    between atoms: N_3  and  C_4
REMARK    3  A    between atoms: C_4  and  C_5
REMARK    4  A    between atoms: C_5  and  C_6
REMARK    5  A    between atoms: C_15  and  C_16
REMARK    6  A    between atoms: C_16  and  N_17
REMARK    7  A    between atoms: N_17  and  C_18
REMARK    8  A    between atoms: C_18  and  C_19
REMARK                            x       y       z     vdW  Elec       q    Type
REMARK                         _______ _______ _______ _____ _____    ______ ____
ROOT
ATOM      1  C   UNL     1      45.905   5.991  11.979  0.00  0.00    +0.000 A 
ATOM      2  C   UNL     1      46.615   5.211  12.893  0.00  0.00    +0.000 A 
ATOM      3  C   UNL     1      47.571   5.803  13.722  0.00  0.00    +0.000 A 
ATOM      4  C   UNL     1      47.826   7.179  13.650  0.00  0.00    +0.000 A 
ATOM      5  C   UNL     1      47.093   7.958  12.741  0.00  0.00    +0.000 A 
ATOM      6  C   UNL     1      46.135   7.369  11.910  0.00  0.00    +0.000 A 
ENDROOT
BRANCH   1   8
ATOM      7  O   UNL     1      43.766   5.774  11.021  0.00  0.00    +0.000 OA
ATOM      8  C   UNL     1      44.901   5.321  11.112  0.00  0.00    +0.000 C 
ATOM      9  N   UNL     1      45.323   4.172  10.485  0.00  0.00    +0.000 N 
ATOM     10  H   UNL     1      46.214   3.765  10.735  0.00  0.00    +0.000 HD
BRANCH   9  11
ATOM     11  C   UNL     1      44.417   3.384   9.682  0.00  0.00    +0.000 C 
BRANCH  11  12
ATOM     12  C   UNL     1      44.522   3.731   8.197  0.00  0.00    +0.000 C 
BRANCH  12  13
ATOM     13  C   UNL     1      45.445   2.760   7.440  0.00  0.00    +0.000 C 
ATOM     14  C   UNL     1      45.842   1.554   8.305  0.00  0.00    +0.000 C 
ATOM     15  C   UNL     1      46.867   0.682   7.598  0.00  0.00    +0.000 C 
ATOM     16  O   UNL     1      48.011   1.446   7.230  0.00  0.00    +0.000 OA
ATOM     17  C   UNL     1      47.684   2.488   6.313  0.00  0.00    +0.000 C 
ATOM     18  C   UNL     1      46.710   3.477   6.944  0.00  0.00    +0.000 C 
ENDBRANCH  12  13
ENDBRANCH  11  12
ENDBRANCH   9  11
ENDBRANCH   1   8
BRANCH   4  19
ATOM     19  C   UNL     1      48.857   7.820  14.555  0.00  0.00    +0.000 C 
BRANCH  19  20
ATOM     20  N   UNL     1      49.856   6.841  14.977  0.00  0.00    +0.000 NA
ATOM     21  H   UNL     1      50.774   7.158  14.661  0.00  0.00    +0.000 HD
BRANCH  20  22
ATOM     22  C   UNL     1      49.895   6.713  16.439  0.00  0.00    +0.000 C 
BRANCH  22  23
ATOM     23  C   UNL     1      49.569   5.300  16.889  0.00  0.00    +0.000 A 
ATOM     24  C   UNL     1      48.251   4.890  16.998  0.00  0.00    +0.000 A 
ATOM     25  C   UNL     1      48.045   3.593  17.408  0.00  0.00    +0.000 A 
ATOM     26  N   UNL     1      49.043   2.739  17.699  0.00  0.00    +0.000 NA
ATOM     27  C   UNL     1      50.282   3.231  17.557  0.00  0.00    +0.000 A 
ATOM     28  N   UNL     1      50.604   4.474  17.164  0.00  0.00    +0.000 NA
ENDBRANCH  22  23
ENDBRANCH  20  22
ENDBRANCH  19  20
ENDBRANCH   4  19
TORSDOF 8
ENDMDL
MODEL 6
REMARK VINA RESULT:    -6.771      2.462      3.621
REMARK INTER + INTRA:         -10.596
REMARK INTER:                  -9.668
REMARK INTRA:                  -0.928
REMARK UNBOUND:                -0.658
REMARK  Name = 
REMARK  8 active torsions:
REMARK  status: ('A' for Active; 'I' for Inactive)
REMARK    1  A    between atoms: C_2  and  C_12
REMARK    2  A    between atoms: N_3  and  C_4
REMARK    3  A    between atoms: C_4  and  C_5
REMARK    4  A    between atoms: C_5  and  C_6
REMARK    5  A    between atoms: C_15  and  C_16
REMARK    6  A    between atoms: C_16  and  N_17
REMARK    7  A    between atoms: N_17  and  C_18
REMARK    8  A    between atoms: C_18  and  C_19
REMARK                            x       y       z     vdW  Elec       q    Type
REMARK                         _______ _______ _______ _____ _____    ______ ____
ROOT
ATOM      1  C   UNL     1      46.770   5.971  13.143  0.00  0.00    +0.000 A 
ATOM      2  C   UNL     1      45.777   5.110  13.611  0.00  0.00    +0.000 A 
ATOM      3  C   UNL     1      44.673   4.814  12.808  0.00  0.00    +0.000 A 
ATOM      4  C   UNL     1      44.551   5.371  11.528  0.00  0.00    +0.000 A 
ATOM      5  C   UNL     1      45.564   6.221  11.058  0.00  0.00    +0.000 A 
ATOM      6  C   UNL     1      46.670   6.520  11.859  0.00  0.00    +0.000 A 
ENDROOT
BRANCH   1   8
ATOM      7  O   UNL     1      48.199   5.506  14.953  0.00  0.00    +0.000 OA
ATOM      8  C   UNL     1      47.924   6.265  14.031  0.00  0.00    +0.000 C 
ATOM      9  N   UNL     1      48.599   7.434  13.770  0.00  0.00    +0.000 N 
ATOM     10  H   UNL     1      48.218   8.093  13.104  0.00  0.00    +0.000 HD
BRANCH   9  11
ATOM     11  C   UNL     1      49.687   7.873  14.613  0.00  0.00    +0.000 C 
BRANCH  11  12
ATOM     12  C   UNL     1      49.445   9.274  15.174  0.00  0.00    +0.000 C 
BRANCH  12  13
ATOM     13  C   UNL     1      48.470   9.259  16.365  0.00  0.00    +0.000 C 
ATOM     14  C   UNL     1      48.488  10.587  17.138  0.00  0.00    +0.000 C 
ATOM     15  C   UNL     1      47.632  10.507  18.392  0.00  0.00    +0.000 C 
ATOM     16  O   UNL     1      48.052   9.427  19.220  0.00  0.00    +0.000 OA
ATOM     17  C   UNL     1      47.909   8.167  18.567  0.00  0.00    +0.000 C 
ATOM     18  C   UNL     1      48.788   8.101  17.323  0.00  0.00    +0.000 C 
ENDBRANCH  12  13
ENDBRANCH  11  12
ENDBRANCH   9  11
ENDBRANCH   1   8
BRANCH   4  19
ATOM     19  C   UNL     1      43.357   5.043  10.656  0.00  0.00    +0.000 C 
BRANCH  19  20
ATOM     20  N   UNL     1      43.789   4.529   9.358  0.00  0.00    +0.000 NA
ATOM     21  H   UNL     1      44.537   5.127   9.004  0.00  0.00    +0.000 HD
BRANCH  20  22
ATOM     22  C   UNL     1      44.313   3.162   9.471  0.00  0.00    +0.000 C 
BRANCH  22  23
ATOM     23  C   UNL     1      45.436   2.907   8.482  0.00  0.00    +0.000 A 
ATOM     24  C   UNL     1      45.989   1.642   8.365  0.00  0.00    +0.000 A 
ATOM     25  C   UNL     1      46.998   1.498   7.442  0.00  0.00    +0.000 A 
ATOM     26  N   UNL     1      47.454   2.506   6.676  0.00  0.00    +0.000 NA
ATOM     27  C   UNL     1      46.850   3.689   6.861  0.00  0.00    +0.000 A 
ATOM     28  N   UNL     1      45.858   3.947   7.727  0.00  0.00    +0.000 NA
ENDBRANCH  22  23
ENDBRANCH  20  22
ENDBRANCH  19  20
ENDBRANCH   4  19
TORSDOF 8
ENDMDL
MODEL 7
REMARK VINA RESULT:    -6.675      1.672      2.407
REMARK INTER + INTRA:         -10.455
REMARK INTER:                  -9.599
REMARK INTRA:                  -0.855
REMARK UNBOUND:                -0.658
REMARK  Name = 
REMARK  8 active torsions:
REMARK  status: ('A' for Active; 'I' for Inactive)
REMARK    1  A    between atoms: C_2  and  C_12
REMARK    2  A    between atoms: N_3  and  C_4
REMARK    3  A    between atoms: C_4  and  C_5
REMARK    4  A    between atoms: C_5  and  C_6
REMARK    5  A    between atoms: C_15  and  C_16
REMARK    6  A    between atoms: C_16  and  N_17
REMARK    7  A    between atoms: N_17  and  C_18
REMARK    8  A    between atoms: C_18  and  C_19
REMARK                            x       y       z     vdW  Elec       q    Type
REMARK                         _______ _______ _______ _____ _____    ______ ____
ROOT
ATOM      1  C   UNL     1      47.012   6.240  12.773  0.00  0.00    +0.000 A 
ATOM      2  C   UNL     1      46.417   6.529  11.544  0.00  0.00    +0.000 A 
ATOM      3  C   UNL     1      45.473   5.652  11.003  0.00  0.00    +0.000 A 
ATOM      4  C   UNL     1      45.111   4.483  11.684  0.00  0.00    +0.000 A 
ATOM      5  C   UNL     1      45.700   4.211  12.929  0.00  0.00    +0.000 A 
ATOM      6  C   UNL     1      46.645   5.085  13.473  0.00  0.00    +0.000 A 
ENDROOT
BRANCH   1   8
ATOM      7  O   UNL     1      49.079   7.364  12.725  0.00  0.00    +0.000 OA
ATOM      8  C   UNL     1      48.016   7.195  13.311  0.00  0.00    +0.000 C 
ATOM      9  N   UNL     1      47.683   7.812  14.494  0.00  0.00    +0.000 N 
ATOM     10  H   UNL     1      46.868   7.502  15.006  0.00  0.00    +0.000 HD
BRANCH   9  11
ATOM     11  C   UNL     1      48.608   8.698  15.161  0.00  0.00    +0.000 C 
BRANCH  11  12
ATOM     12  C   UNL     1      49.548   7.940  16.099  0.00  0.00    +0.000 C 
BRANCH  12  13
ATOM     13  C   UNL     1      48.780   7.068  17.107  0.00  0.00    +0.000 C 
ATOM     14  C   UNL     1      49.267   7.290  18.547  0.00  0.00    +0.000 C 
ATOM     15  C   UNL     1      48.603   6.320  19.510  0.00  0.00    +0.000 C 
ATOM     16  O   UNL     1      48.820   4.974  19.099  0.00  0.00    +0.000 OA
ATOM     17  C   UNL     1      48.249   4.708  17.819  0.00  0.00    +0.000 C 
ATOM     18  C   UNL     1      48.897   5.579  16.748  0.00  0.00    +0.000 C 
ENDBRANCH  12  13
ENDBRANCH  11  12
ENDBRANCH   9  11
ENDBRANCH   1   8
BRANCH   4  19
ATOM     19  C   UNL     1      44.081   3.539  11.099  0.00  0.00    +0.000 C 
BRANCH  19  20
ATOM     20  N   UNL     1      44.730   2.436  10.394  0.00  0.00    +0.000 NA
ATOM     21  H   UNL     1      44.330   1.557  10.727  0.00  0.00    +0.000 HD
BRANCH  20  22
ATOM     22  C   UNL     1      44.504   2.520   8.946  0.00  0.00    +0.000 C 
BRANCH  22  23
ATOM     23  C   UNL     1      45.780   2.272   8.162  0.00  0.00    +0.000 A 
ATOM     24  C   UNL     1      46.268   0.984   8.012  0.00  0.00    +0.000 A 
ATOM     25  C   UNL     1      47.427   0.850   7.284  0.00  0.00    +0.000 A 
ATOM     26  N   UNL     1      48.083   1.887   6.734  0.00  0.00    +0.000 NA
ATOM     27  C   UNL     1      47.528   3.092   6.933  0.00  0.00    +0.000 A 
ATOM     28  N   UNL     1      46.403   3.343   7.621  0.00  0.00    +0.000 NA
ENDBRANCH  22  23
ENDBRANCH  20  22
ENDBRANCH  19  20
ENDBRANCH   4  19
TORSDOF 8
ENDMDL
MODEL 8
REMARK VINA RESULT:    -6.587      1.745      2.537
REMARK INTER + INTRA:         -10.325
REMARK INTER:                  -9.662
REMARK INTRA:                  -0.663
REMARK UNBOUND:                -0.658
REMARK  Name = 
REMARK  8 active torsions:
REMARK  status: ('A' for Active; 'I' for Inactive)
REMARK    1  A    between atoms: C_2  and  C_12
REMARK    2  A    between atoms: N_3  and  C_4
REMARK    3  A    between atoms: C_4  and  C_5
REMARK    4  A    between atoms: C_5  and  C_6
REMARK    5  A    between atoms: C_15  and  C_16
REMARK    6  A    between atoms: C_16  and  N_17
REMARK    7  A    between atoms: N_17  and  C_18
REMARK    8  A    between atoms: C_18  and  C_19
REMARK                            x       y       z     vdW  Elec       q    Type
REMARK                         _______ _______ _______ _____ _____    ______ ____
ROOT
ATOM      1  C   UNL     1      46.691   5.536  13.379  0.00  0.00    +0.000 A 
ATOM      2  C   UNL     1      45.670   4.627  13.660  0.00  0.00    +0.000 A 
ATOM      3  C   UNL     1      44.634   4.435  12.743  0.00  0.00    +0.000 A 
ATOM      4  C   UNL     1      44.608   5.145  11.535  0.00  0.00    +0.000 A 
ATOM      5  C   UNL     1      45.650   6.043  11.252  0.00  0.00    +0.000 A 
ATOM      6  C   UNL     1      46.688   6.237  12.168  0.00  0.00    +0.000 A 
ENDROOT
BRANCH   1   8
ATOM      7  O   UNL     1      48.829   6.243  14.064  0.00  0.00    +0.000 OA
ATOM      8  C   UNL     1      47.771   5.714  14.384  0.00  0.00    +0.000 C 
ATOM      9  N   UNL     1      47.510   5.214  15.639  0.00  0.00    +0.000 N 
ATOM     10  H   UNL     1      46.689   4.644  15.788  0.00  0.00    +0.000 HD
BRANCH   9  11
ATOM     11  C   UNL     1      48.510   5.251  16.680  0.00  0.00    +0.000 C 
BRANCH  11  12
ATOM     12  C   UNL     1      48.814   6.680  17.130  0.00  0.00    +0.000 C 
BRANCH  12  13
ATOM     13  C   UNL     1      50.307   6.883  17.440  0.00  0.00    +0.000 C 
ATOM     14  C   UNL     1      50.880   8.115  16.721  0.00  0.00    +0.000 C 
ATOM     15  C   UNL     1      52.383   8.220  16.919  0.00  0.00    +0.000 C 
ATOM     16  O   UNL     1      53.033   7.028  16.487  0.00  0.00    +0.000 OA
ATOM     17  C   UNL     1      52.616   5.890  17.240  0.00  0.00    +0.000 C 
ATOM     18  C   UNL     1      51.123   5.639  17.057  0.00  0.00    +0.000 C 
ENDBRANCH  12  13
ENDBRANCH  11  12
ENDBRANCH   9  11
ENDBRANCH   1   8
BRANCH   4  19
ATOM     19  C   UNL     1      43.489   4.930  10.538  0.00  0.00    +0.000 C 
BRANCH  19  20
ATOM     20  N   UNL     1      44.021   4.525   9.240  0.00  0.00    +0.000 NA
ATOM     21  H   UNL     1      44.871   5.060   9.056  0.00  0.00    +0.000 HD
BRANCH  20  22
ATOM     22  C   UNL     1      44.366   3.098   9.224  0.00  0.00    +0.000 C 
BRANCH  22  23
ATOM     23  C   UNL     1      45.489   2.802   8.246  0.00  0.00    +0.000 A 
ATOM     24  C   UNL     1      46.130   1.575   8.272  0.00  0.00    +0.000 A 
ATOM     25  C   UNL     1      47.133   1.389   7.348  0.00  0.00    +0.000 A 
ATOM     26  N   UNL     1      47.501   2.323   6.454  0.00  0.00    +0.000 NA
ATOM     27  C   UNL     1      46.816   3.475   6.507  0.00  0.00    +0.000 A 
ATOM     28  N   UNL     1      45.821   3.768   7.359  0.00  0.00    +0.000 NA
ENDBRANCH  22  23
ENDBRANCH  20  22
ENDBRANCH  19  20
ENDBRANCH   4  19
TORSDOF 8
ENDMDL
MODEL 9
REMARK VINA RESULT:    -6.462      2.969      9.593
REMARK INTER + INTRA:         -10.143
REMARK INTER:                  -9.703
REMARK INTRA:                  -0.440
REMARK UNBOUND:                -0.658
REMARK  Name = 
REMARK  8 active torsions:
REMARK  status: ('A' for Active; 'I' for Inactive)
REMARK    1  A    between atoms: C_2  and  C_12
REMARK    2  A    between atoms: N_3  and  C_4
REMARK    3  A    between atoms: C_4  and  C_5
REMARK    4  A    between atoms: C_5  and  C_6
REMARK    5  A    between atoms: C_15  and  C_16
REMARK    6  A    between atoms: C_16  and  N_17
REMARK    7  A    between atoms: N_17  and  C_18
REMARK    8  A    between atoms: C_18  and  C_19
REMARK                            x       y       z     vdW  Elec       q    Type
REMARK                         _______ _______ _______ _____ _____    ______ ____
ROOT
ATOM      1  C   UNL     1      46.029   5.335  12.528  0.00  0.00    +0.000 A 
ATOM      2  C   UNL     1      46.129   4.378  13.539  0.00  0.00    +0.000 A 
ATOM      3  C   UNL     1      46.975   4.599  14.629  0.00  0.00    +0.000 A 
ATOM      4  C   UNL     1      47.726   5.778  14.723  0.00  0.00    +0.000 A 
ATOM      5  C   UNL     1      47.604   6.743  13.711  0.00  0.00    +0.000 A 
ATOM      6  C   UNL     1      46.760   6.525  12.619  0.00  0.00    +0.000 A 
ENDROOT
BRANCH   1   8
ATOM      7  O   UNL     1      44.299   5.894  11.035  0.00  0.00    +0.000 OA
ATOM      8  C   UNL     1      45.123   5.058  11.383  0.00  0.00    +0.000 C 
ATOM      9  N   UNL     1      45.253   3.817  10.804  0.00  0.00    +0.000 N 
ATOM     10  H   UNL     1      45.834   3.118  11.245  0.00  0.00    +0.000 HD
BRANCH   9  11
ATOM     11  C   UNL     1      44.375   3.396   9.737  0.00  0.00    +0.000 C 
BRANCH  11  12
ATOM     12  C   UNL     1      44.810   3.958   8.383  0.00  0.00    +0.000 C 
BRANCH  12  13
ATOM     13  C   UNL     1      45.612   2.933   7.563  0.00  0.00    +0.000 C 
ATOM     14  C   UNL     1      45.909   1.659   8.370  0.00  0.00    +0.000 C 
ATOM     15  C   UNL     1      46.823   0.719   7.600  0.00  0.00    +0.000 C 
ATOM     16  O   UNL     1      48.028   1.381   7.228  0.00  0.00    +0.000 OA
ATOM     17  C   UNL     1      47.783   2.487   6.361  0.00  0.00    +0.000 C 
ATOM     18  C   UNL     1      46.929   3.540   7.058  0.00  0.00    +0.000 C 
ENDBRANCH  12  13
ENDBRANCH  11  12
ENDBRANCH   9  11
ENDBRANCH   1   8
BRANCH   4  19
ATOM     19  C   UNL     1      48.636   6.019  15.909  0.00  0.00    +0.000 C 
BRANCH  19  20
ATOM     20  N   UNL     1      47.935   5.751  17.163  0.00  0.00    +0.000 NA
ATOM     21  H   UNL     1      47.472   4.844  17.089  0.00  0.00    +0.000 HD
BRANCH  20  22
ATOM     22  C   UNL     1      48.867   5.697  18.296  0.00  0.00    +0.000 C 
BRANCH  22  23
ATOM     23  C   UNL     1      48.363   6.505  19.478  0.00  0.00    +0.000 A 
ATOM     24  C   UNL     1      47.766   5.869  20.554  0.00  0.00    +0.000 A 
ATOM     25  C   UNL     1      47.342   6.676  21.584  0.00  0.00    +0.000 A 
ATOM     26  N   UNL     1      47.479   8.014  21.583  0.00  0.00    +0.000 NA
ATOM     27  C   UNL     1      48.074   8.533  20.499  0.00  0.00    +0.000 A 
ATOM     28  N   UNL     1      48.529   7.847  19.438  0.00  0.00    +0.000 NA
ENDBRANCH  22  23
ENDBRANCH  20  22
ENDBRANCH  19  20
ENDBRANCH   4  19
TORSDOF 8
ENDMDL
