MODEL 1
REMARK VINA RESULT:    -6.904      0.000      0.000
REMARK INTER + INTRA:         -11.037
REMARK INTER:                 -10.334
REMARK INTRA:                  -0.702
REMARK UNBOUND:                -0.702
REMARK  Name = 
REMARK  10 active torsions:
REMARK  status: ('A' for Active; 'I' for Inactive)
REMARK    1  A    between atoms: C_1  and  C_2
REMARK    2  A    between atoms: C_2  and  N_3
REMARK    3  A    between atoms: N_3  and  C_4
REMARK    4  A    between atoms: C_7  and  C_8
REMARK    5  A    between atoms: C_8  and  C_9
REMARK    6  A    between atoms: C_9  and  C_10
REMARK    7  A    between atoms: C_14  and  C_15
REMARK    8  A    between atoms: C_15  and  N_16
REMARK    9  A    between atoms: C_19  and  C_20
REMARK   10  A    between atoms: C_21  and  C_22
REMARK                            x       y       z     vdW  Elec       q    Type
REMARK                         _______ _______ _______ _____ _____    ______ ____
ROOT
ATOM      1  C   UNL     1      46.596   5.222  13.780  0.00  0.00    +0.000 A 
ATOM      2  C   UNL     1      46.212   3.887  13.616  0.00  0.00    +0.000 A 
ATOM      3  N   UNL     1      45.327   3.416  12.696  0.00  0.00    +0.000 NA
ATOM      4  C   UNL     1      44.725   4.318  11.896  0.00  0.00    +0.000 A 
ATOM      5  C   UNL     1      44.973   5.677  12.026  0.00  0.00    +0.000 A 
ATOM      6  C   UNL     1      45.913   6.135  12.960  0.00  0.00    +0.000 A 
ENDROOT
BRANCH   1   7
ATOM      7  N   UNL     1      47.488   5.655  14.777  0.00  0.00    +0.000 N 
ATOM      8  H   UNL     1      48.348   6.011  14.364  0.00  0.00    +0.000 HD
BRANCH   7  10
ATOM      9  C   UNL     1      48.458   5.509  17.012  0.00  0.00    +0.000 C 
ATOM     10  C   UNL     1      47.724   4.763  15.911  0.00  0.00    +0.000 C 
ENDBRANCH   7  10
ENDBRANCH   1   7
BRANCH   6  11
ATOM     11  C   UNL     1      46.131   7.589  12.964  0.00  0.00    +0.000 C 
ATOM     12  C   UNL     1      47.067   8.171  12.200  0.00  0.00    +0.000 C 
BRANCH  12  13
ATOM     13  C   UNL     1      47.492   9.598  12.341  0.00  0.00    +0.000 C 
ATOM     14  F   UNL     1      46.611  10.445  11.740  0.00  0.00    +0.000 F 
ENDBRANCH  12  13
ENDBRANCH   6  11
BRANCH   4  15
ATOM     15  C   UNL     1      43.728   3.776  10.902  0.00  0.00    +0.000 C 
BRANCH  15  16
ATOM     16  C   UNL     1      44.183   2.512  10.165  0.00  0.00    +0.000 C 
BRANCH  16  17
ATOM     17  C   UNL     1      45.133   2.842   9.043  0.00  0.00    +0.000 A 
ATOM     18  C   UNL     1      45.335   4.162   8.639  0.00  0.00    +0.000 A 
ATOM     19  C   UNL     1      46.245   4.453   7.625  0.00  0.00    +0.000 A 
ATOM     20  C   UNL     1      46.967   3.425   7.011  0.00  0.00    +0.000 A 
ATOM     21  C   UNL     1      46.784   2.095   7.404  0.00  0.00    +0.000 A 
ATOM     22  C   UNL     1      45.854   1.815   8.417  0.00  0.00    +0.000 A 
BRANCH  21  23
ATOM     23  C   UNL     1      47.555   0.974   6.755  0.00  0.00    +0.000 C 
BRANCH  23  24
ATOM     24  N   UNL     1      48.256   1.431   5.559  0.00  0.00    +0.000 NA
ATOM     25  H   UNL     1      48.503   0.618   4.997  0.00  0.00    +0.000 HD
ATOM     26  H   UNL     1      49.130   1.875   5.830  0.00  0.00    +0.000 HD
ENDBRANCH  23  24
ENDBRANCH  21  23
ENDBRANCH  16  17
ENDBRANCH  15  16
ENDBRANCH   4  15
TORSDOF 9
ENDMDL
MODEL 2
REMARK VINA RESULT:    -6.838      1.057      1.591
REMARK INTER + INTRA:         -10.938
REMARK INTER:                 -10.200
REMARK INTRA:                  -0.738
REMARK UNBOUND:                -0.702
REMARK  Name = 
REMARK  10 active torsions:
REMARK  status: ('A' for Active; 'I' for Inactive)
REMARK    1  A    between atoms: C_1  and  C_2
REMARK    2  A    between atoms: C_2  and  N_3
REMARK    3  A    between atoms: N_3  and  C_4
REMARK    4  A    between atoms: C_7  and  C_8
REMARK    5  A    between atoms: C_8  and  C_9
REMARK    6  A    between atoms: C_9  and  C_10
REMARK    7  A    between atoms: C_14  and  C_15
REMARK    8  A    between atoms: C_15  and  N_16
REMARK    9  A    between atoms: C_19  and  C_20
REMARK   10  A    between atoms: C_21  and  C_22
REMARK                            x       y       z     vdW  Elec       q    Type
REMARK                         _______ _______ _______ _____ _____    ______ ____
ROOT
ATOM      1  C   UNL     1      46.349   5.024  13.515  0.00  0.00    +0.000 A 
ATOM      2  C   UNL     1      45.778   3.771  13.273  0.00  0.00    +0.000 A 
ATOM      3  N   UNL     1      45.097   3.404  12.155  0.00  0.00    +0.000 NA
ATOM      4  C   UNL     1      44.910   4.343  11.207  0.00  0.00    +0.000 A 
ATOM      5  C   UNL     1      45.366   5.642  11.377  0.00  0.00    +0.000 A 
ATOM      6  C   UNL     1      46.094   5.988  12.525  0.00  0.00    +0.000 A 
ENDROOT
BRANCH   1   7
ATOM      7  N   UNL     1      47.010   5.358  14.711  0.00  0.00    +0.000 N 
ATOM      8  H   UNL     1      47.799   5.977  14.528  0.00  0.00    +0.000 HD
BRANCH   7  10
ATOM      9  C   UNL     1      47.892   4.840  16.926  0.00  0.00    +0.000 C 
ATOM     10  C   UNL     1      47.337   4.272  15.632  0.00  0.00    +0.000 C 
ENDBRANCH   7  10
ENDBRANCH   1   7
BRANCH   6  11
ATOM     11  C   UNL     1      46.573   7.377  12.565  0.00  0.00    +0.000 C 
ATOM     12  C   UNL     1      47.731   7.748  11.998  0.00  0.00    +0.000 C 
BRANCH  12  13
ATOM     13  C   UNL     1      48.379   9.078  12.214  0.00  0.00    +0.000 C 
ATOM     14  F   UNL     1      48.930   9.558  11.065  0.00  0.00    +0.000 F 
ENDBRANCH  12  13
ENDBRANCH   6  11
BRANCH   4  15
ATOM     15  C   UNL     1      44.128   3.921   9.987  0.00  0.00    +0.000 C 
BRANCH  15  16
ATOM     16  C   UNL     1      44.783   4.285   8.650  0.00  0.00    +0.000 C 
BRANCH  16  17
ATOM     17  C   UNL     1      45.577   3.132   8.094  0.00  0.00    +0.000 A 
ATOM     18  C   UNL     1      45.578   1.890   8.730  0.00  0.00    +0.000 A 
ATOM     19  C   UNL     1      46.289   0.824   8.182  0.00  0.00    +0.000 A 
ATOM     20  C   UNL     1      47.000   0.990   6.991  0.00  0.00    +0.000 A 
ATOM     21  C   UNL     1      47.008   2.225   6.335  0.00  0.00    +0.000 A 
ATOM     22  C   UNL     1      46.300   3.294   6.903  0.00  0.00    +0.000 A 
BRANCH  21  23
ATOM     23  C   UNL     1      47.767   2.422   5.046  0.00  0.00    +0.000 C 
BRANCH  23  24
ATOM     24  N   UNL     1      47.706   1.231   4.204  0.00  0.00    +0.000 NA
ATOM     25  H   UNL     1      48.385   0.554   4.548  0.00  0.00    +0.000 HD
ATOM     26  H   UNL     1      47.989   1.474   3.258  0.00  0.00    +0.000 HD
ENDBRANCH  23  24
ENDBRANCH  21  23
ENDBRANCH  16  17
ENDBRANCH  15  16
ENDBRANCH   4  15
TORSDOF 9
ENDMDL
MODEL 3
REMARK VINA RESULT:    -6.819      1.361      1.623
REMARK INTER + INTRA:         -10.910
REMARK INTER:                 -10.193
REMARK INTRA:                  -0.717
REMARK UNBOUND:                -0.702
REMARK  Name = 
REMARK  10 active torsions:
REMARK  status: ('A' for Active; 'I' for Inactive)
REMARK    1  A    between atoms: C_1  and  C_2
REMARK    2  A    between atoms: C_2  and  N_3
REMARK    3  A    between atoms: N_3  and  C_4
REMARK    4  A    between atoms: C_7  and  C_8
REMARK    5  A    between atoms: C_8  and  C_9
REMARK    6  A    between atoms: C_9  and  C_10
REMARK    7  A    between atoms: C_14  and  C_15
REMARK    8  A    between atoms: C_15  and  N_16
REMARK    9  A    between atoms: C_19  and  C_20
REMARK   10  A    between atoms: C_21  and  C_22
REMARK                            x       y       z     vdW  Elec       q    Type
REMARK                         _______ _______ _______ _____ _____    ______ ____
ROOT
ATOM      1  C   UNL     1      46.454   6.017  13.344  0.00  0.00    +0.000 A 
ATOM      2  C   UNL     1      46.336   4.626  13.245  0.00  0.00    +0.000 A 
ATOM      3  N   UNL     1      45.479   3.952  12.431  0.00  0.00    +0.000 NA
ATOM      4  C   UNL     1      44.630   4.683  11.683  0.00  0.00    +0.000 A 
ATOM      5  C   UNL     1      44.606   6.068  11.761  0.00  0.00    +0.000 A 
ATOM      6  C   UNL     1      45.521   6.742  12.583  0.00  0.00    +0.000 A 
ENDROOT
BRANCH   1   7
ATOM      7  N   UNL     1      47.334   6.659  14.234  0.00  0.00    +0.000 N 
ATOM      8  H   UNL     1      47.014   7.604  14.439  0.00  0.00    +0.000 HD
BRANCH   7  10
ATOM      9  C   UNL     1      49.047   7.212  12.587  0.00  0.00    +0.000 C 
ATOM     10  C   UNL     1      48.764   6.589  13.942  0.00  0.00    +0.000 C 
ENDBRANCH   7  10
ENDBRANCH   1   7
BRANCH   6  11
ATOM     11  C   UNL     1      45.438   8.209  12.538  0.00  0.00    +0.000 C 
ATOM     12  C   UNL     1      44.789   8.856  11.558  0.00  0.00    +0.000 C 
BRANCH  12  13
ATOM     13  C   UNL     1      44.877  10.331  11.330  0.00  0.00    +0.000 C 
ATOM     14  F   UNL     1      43.691  10.842  10.897  0.00  0.00    +0.000 F 
ENDBRANCH  12  13
ENDBRANCH   6  11
BRANCH   4  15
ATOM     15  C   UNL     1      43.670   3.913  10.809  0.00  0.00    +0.000 C 
BRANCH  15  16
ATOM     16  C   UNL     1      44.241   2.621  10.216  0.00  0.00    +0.000 C 
BRANCH  16  17
ATOM     17  C   UNL     1      45.173   2.908   9.067  0.00  0.00    +0.000 A 
ATOM     18  C   UNL     1      45.414   4.217   8.650  0.00  0.00    +0.000 A 
ATOM     19  C   UNL     1      46.308   4.468   7.611  0.00  0.00    +0.000 A 
ATOM     20  C   UNL     1      46.972   3.410   6.984  0.00  0.00    +0.000 A 
ATOM     21  C   UNL     1      46.749   2.090   7.390  0.00  0.00    +0.000 A 
ATOM     22  C   UNL     1      45.837   1.851   8.428  0.00  0.00    +0.000 A 
BRANCH  21  23
ATOM     23  C   UNL     1      47.459   0.937   6.727  0.00  0.00    +0.000 C 
BRANCH  23  24
ATOM     24  N   UNL     1      48.268   1.386   5.598  0.00  0.00    +0.000 NA
ATOM     25  H   UNL     1      48.622   0.567   5.105  0.00  0.00    +0.000 HD
ATOM     26  H   UNL     1      49.079   1.891   5.945  0.00  0.00    +0.000 HD
ENDBRANCH  23  24
ENDBRANCH  21  23
ENDBRANCH  16  17
ENDBRANCH  15  16
ENDBRANCH   4  15
TORSDOF 9
ENDMDL
MODEL 4
REMARK VINA RESULT:    -5.949      3.990      8.181
REMARK INTER + INTRA:          -9.607
REMARK INTER:                  -8.660
REMARK INTRA:                  -0.947
REMARK UNBOUND:                -0.702
REMARK  Name = 
REMARK  10 active torsions:
REMARK  status: ('A' for Active; 'I' for Inactive)
REMARK    1  A    between atoms: C_1  and  C_2
REMARK    2  A    between atoms: C_2  and  N_3
REMARK    3  A    between atoms: N_3  and  C_4
REMARK    4  A    between atoms: C_7  and  C_8
REMARK    5  A    between atoms: C_8  and  C_9
REMARK    6  A    between atoms: C_9  and  C_10
REMARK    7  A    between atoms: C_14  and  C_15
REMARK    8  A    between atoms: C_15  and  N_16
REMARK    9  A    between atoms: C_19  and  C_20
REMARK   10  A    between atoms: C_21  and  C_22
REMARK                            x       y       z     vdW  Elec       q    Type
REMARK                         _______ _______ _______ _____ _____    ______ ____
ROOT
ATOM      1  C   UNL     1      47.404   6.033  13.411  0.00  0.00    +0.000 A 
ATOM      2  C   UNL     1      48.232   6.487  14.444  0.00  0.00    +0.000 A 
ATOM      3  N   UNL     1      48.477   5.840  15.615  0.00  0.00    +0.000 NA
ATOM      4  C   UNL     1      47.830   4.677  15.828  0.00  0.00    +0.000 A 
ATOM      5  C   UNL     1      46.925   4.174  14.905  0.00  0.00    +0.000 A 
ATOM      6  C   UNL     1      46.713   4.843  13.690  0.00  0.00    +0.000 A 
ENDROOT
BRANCH   1   7
ATOM      7  N   UNL     1      47.158   6.766  12.236  0.00  0.00    +0.000 N 
ATOM      8  H   UNL     1      48.030   6.988  11.758  0.00  0.00    +0.000 HD
BRANCH   7  10
ATOM      9  C   UNL     1      44.984   7.622  11.531  0.00  0.00    +0.000 C 
ATOM     10  C   UNL     1      46.247   7.906  12.325  0.00  0.00    +0.000 C 
ENDBRANCH   7  10
ENDBRANCH   1   7
BRANCH   6  11
ATOM     11  C   UNL     1      45.776   4.182  12.770  0.00  0.00    +0.000 C 
ATOM     12  C   UNL     1      44.447   4.250  12.936  0.00  0.00    +0.000 C 
BRANCH  12  13
ATOM     13  C   UNL     1      43.467   3.409  12.183  0.00  0.00    +0.000 C 
ATOM     14  F   UNL     1      43.076   4.010  11.025  0.00  0.00    +0.000 F 
ENDBRANCH  12  13
ENDBRANCH   6  11
BRANCH   4  15
ATOM     15  C   UNL     1      48.097   3.991  17.146  0.00  0.00    +0.000 C 
BRANCH  15  16
ATOM     16  C   UNL     1      48.811   2.641  17.031  0.00  0.00    +0.000 C 
BRANCH  16  17
ATOM     17  C   UNL     1      50.265   2.754  17.409  0.00  0.00    +0.000 A 
ATOM     18  C   UNL     1      50.794   3.960  17.871  0.00  0.00    +0.000 A 
ATOM     19  C   UNL     1      52.132   4.038  18.252  0.00  0.00    +0.000 A 
ATOM     20  C   UNL     1      52.951   2.908  18.180  0.00  0.00    +0.000 A 
ATOM     21  C   UNL     1      52.440   1.688  17.725  0.00  0.00    +0.000 A 
ATOM     22  C   UNL     1      51.095   1.627  17.332  0.00  0.00    +0.000 A 
BRANCH  21  23
ATOM     23  C   UNL     1      53.308   0.457  17.643  0.00  0.00    +0.000 C 
BRANCH  23  24
ATOM     24  N   UNL     1      52.809  -0.607  18.510  0.00  0.00    +0.000 NA
ATOM     25  H   UNL     1      53.556  -1.282  18.659  0.00  0.00    +0.000 HD
ATOM     26  H   UNL     1      52.057  -1.101  18.037  0.00  0.00    +0.000 HD
ENDBRANCH  23  24
ENDBRANCH  21  23
ENDBRANCH  16  17
ENDBRANCH  15  16
ENDBRANCH   4  15
TORSDOF 9
ENDMDL
MODEL 5
REMARK VINA RESULT:    -5.725      3.136      4.576
REMARK INTER + INTRA:          -9.272
REMARK INTER:                  -8.310
REMARK INTRA:                  -0.962
REMARK UNBOUND:                -0.702
REMARK  Name = 
REMARK  10 active torsions:
REMARK  status: ('A' for Active; 'I' for Inactive)
REMARK    1  A    between atoms: C_1  and  C_2
REMARK    2  A    between atoms: C_2  and  N_3
REMARK    3  A    between atoms: N_3  and  C_4
REMARK    4  A    between atoms: C_7  and  C_8
REMARK    5  A    between atoms: C_8  and  C_9
REMARK    6  A    between atoms: C_9  and  C_10
REMARK    7  A    between atoms: C_14  and  C_15
REMARK    8  A    between atoms: C_15  and  N_16
REMARK    9  A    between atoms: C_19  and  C_20
REMARK   10  A    between atoms: C_21  and  C_22
REMARK                            x       y       z     vdW  Elec       q    Type
REMARK                         _______ _______ _______ _____ _____    ______ ____
ROOT
ATOM      1  C   UNL     1      45.311   9.918  11.978  0.00  0.00    +0.000 A 
ATOM      2  C   UNL     1      46.114   8.984  12.641  0.00  0.00    +0.000 A 
ATOM      3  N   UNL     1      46.048   7.633  12.504  0.00  0.00    +0.000 NA
ATOM      4  C   UNL     1      45.093   7.137  11.693  0.00  0.00    +0.000 A 
ATOM      5  C   UNL     1      44.191   7.970  11.047  0.00  0.00    +0.000 A 
ATOM      6  C   UNL     1      44.299   9.362  11.178  0.00  0.00    +0.000 A 
ENDROOT
BRANCH   1   7
ATOM      7  N   UNL     1      45.399  11.306  12.189  0.00  0.00    +0.000 N 
ATOM      8  H   UNL     1      44.579  11.782  11.817  0.00  0.00    +0.000 HD
BRANCH   7  10
ATOM      9  C   UNL     1      46.793  12.041  10.326  0.00  0.00    +0.000 C 
ATOM     10  C   UNL     1      46.654  11.968  11.837  0.00  0.00    +0.000 C 
ENDBRANCH   7  10
ENDBRANCH   1   7
BRANCH   6  11
ATOM     11  C   UNL     1      43.323  10.139  10.400  0.00  0.00    +0.000 C 
ATOM     12  C   UNL     1      43.601  10.609   9.175  0.00  0.00    +0.000 C 
BRANCH  12  13
ATOM     13  C   UNL     1      42.749  11.598   8.447  0.00  0.00    +0.000 C 
ATOM     14  F   UNL     1      42.015  12.357   9.309  0.00  0.00    +0.000 F 
ENDBRANCH  12  13
ENDBRANCH   6  11
BRANCH   4  15
ATOM     15  C   UNL     1      45.022   5.634  11.578  0.00  0.00    +0.000 C 
BRANCH  15  16
ATOM     16  C   UNL     1      44.057   5.120  10.505  0.00  0.00    +0.000 C 
BRANCH  16  17
ATOM     17  C   UNL     1      44.688   4.033   9.673  0.00  0.00    +0.000 A 
ATOM     18  C   UNL     1      44.396   2.690   9.910  0.00  0.00    +0.000 A 
ATOM     19  C   UNL     1      44.959   1.699   9.107  0.00  0.00    +0.000 A 
ATOM     20  C   UNL     1      45.814   2.046   8.057  0.00  0.00    +0.000 A 
ATOM     21  C   UNL     1      46.116   3.387   7.800  0.00  0.00    +0.000 A 
ATOM     22  C   UNL     1      45.553   4.373   8.623  0.00  0.00    +0.000 A 
BRANCH  21  23
ATOM     23  C   UNL     1      47.033   3.780   6.669  0.00  0.00    +0.000 C 
BRANCH  23  24
ATOM     24  N   UNL     1      48.166   2.865   6.558  0.00  0.00    +0.000 NA
ATOM     25  H   UNL     1      48.268   2.592   5.582  0.00  0.00    +0.000 HD
ATOM     26  H   UNL     1      47.964   2.016   7.080  0.00  0.00    +0.000 HD
ENDBRANCH  23  24
ENDBRANCH  21  23
ENDBRANCH  16  17
ENDBRANCH  15  16
ENDBRANCH   4  15
TORSDOF 9
ENDMDL
MODEL 6
REMARK VINA RESULT:    -5.539      3.620      8.183
REMARK INTER + INTRA:          -8.994
REMARK INTER:                  -8.238
REMARK INTRA:                  -0.756
REMARK UNBOUND:                -0.702
REMARK  Name = 
REMARK  10 active torsions:
REMARK  status: ('A' for Active; 'I' for Inactive)
REMARK    1  A    between atoms: C_1  and  C_2
REMARK    2  A    between atoms: C_2  and  N_3
REMARK    3  A    between atoms: N_3  and  C_4
REMARK    4  A    between atoms: C_7  and  C_8
REMARK    5  A    between atoms: C_8  and  C_9
REMARK    6  A    between atoms: C_9  and  C_10
REMARK    7  A    between atoms: C_14  and  C_15
REMARK    8  A    between atoms: C_15  and  N_16
REMARK    9  A    between atoms: C_19  and  C_20
REMARK   10  A    between atoms: C_21  and  C_22
REMARK                            x       y       z     vdW  Elec       q    Type
REMARK                         _______ _______ _______ _____ _____    ______ ____
ROOT
ATOM      1  C   UNL     1      45.056   7.981  11.795  0.00  0.00    +0.000 A 
ATOM      2  C   UNL     1      45.854   8.703  12.688  0.00  0.00    +0.000 A 
ATOM      3  N   UNL     1      46.975   8.247  13.308  0.00  0.00    +0.000 NA
ATOM      4  C   UNL     1      47.330   6.967  13.083  0.00  0.00    +0.000 A 
ATOM      5  C   UNL     1      46.566   6.136  12.276  0.00  0.00    +0.000 A 
ATOM      6  C   UNL     1      45.432   6.639  11.623  0.00  0.00    +0.000 A 
ENDROOT
BRANCH   1   7
ATOM      7  N   UNL     1      43.882   8.495  11.213  0.00  0.00    +0.000 N 
ATOM      8  H   UNL     1      43.611   7.945  10.399  0.00  0.00    +0.000 HD
BRANCH   7  10
ATOM      9  C   UNL     1      42.757  10.242   9.934  0.00  0.00    +0.000 C 
ATOM     10  C   UNL     1      43.816   9.936  10.979  0.00  0.00    +0.000 C 
ENDBRANCH   7  10
ENDBRANCH   1   7
BRANCH   6  11
ATOM     11  C   UNL     1      44.739   5.680  10.750  0.00  0.00    +0.000 C 
ATOM     12  C   UNL     1      45.004   4.365  10.784  0.00  0.00    +0.000 C 
BRANCH  12  13
ATOM     13  C   UNL     1      44.513   3.388   9.764  0.00  0.00    +0.000 C 
ATOM     14  F   UNL     1      45.343   2.313   9.661  0.00  0.00    +0.000 F 
ENDBRANCH  12  13
ENDBRANCH   6  11
BRANCH   4  15
ATOM     15  C   UNL     1      48.562   6.475  13.803  0.00  0.00    +0.000 C 
BRANCH  15  16
ATOM     16  C   UNL     1      48.659   6.903  15.271  0.00  0.00    +0.000 C 
BRANCH  16  17
ATOM     17  C   UNL     1      48.330   5.764  16.200  0.00  0.00    +0.000 A 
ATOM     18  C   UNL     1      47.649   4.637  15.738  0.00  0.00    +0.000 A 
ATOM     19  C   UNL     1      47.385   3.575  16.601  0.00  0.00    +0.000 A 
ATOM     20  C   UNL     1      47.806   3.630  17.933  0.00  0.00    +0.000 A 
ATOM     21  C   UNL     1      48.495   4.748  18.415  0.00  0.00    +0.000 A 
ATOM     22  C   UNL     1      48.742   5.815  17.539  0.00  0.00    +0.000 A 
BRANCH  21  23
ATOM     23  C   UNL     1      48.960   4.823  19.847  0.00  0.00    +0.000 C 
BRANCH  23  24
ATOM     24  N   UNL     1      48.430   3.716  20.640  0.00  0.00    +0.000 NA
ATOM     25  H   UNL     1      49.157   3.009  20.736  0.00  0.00    +0.000 HD
ATOM     26  H   UNL     1      47.662   3.281  20.136  0.00  0.00    +0.000 HD
ENDBRANCH  23  24
ENDBRANCH  21  23
ENDBRANCH  16  17
ENDBRANCH  15  16
ENDBRANCH   4  15
TORSDOF 9
ENDMDL
MODEL 7
REMARK VINA RESULT:    -5.506      2.309      7.716
REMARK INTER + INTRA:          -8.944
REMARK INTER:                  -8.050
REMARK INTRA:                  -0.894
REMARK UNBOUND:                -0.702
REMARK  Name = 
REMARK  10 active torsions:
REMARK  status: ('A' for Active; 'I' for Inactive)
REMARK    1  A    between atoms: C_1  and  C_2
REMARK    2  A    between atoms: C_2  and  N_3
REMARK    3  A    between atoms: N_3  and  C_4
REMARK    4  A    between atoms: C_7  and  C_8
REMARK    5  A    between atoms: C_8  and  C_9
REMARK    6  A    between atoms: C_9  and  C_10
REMARK    7  A    between atoms: C_14  and  C_15
REMARK    8  A    between atoms: C_15  and  N_16
REMARK    9  A    between atoms: C_19  and  C_20
REMARK   10  A    between atoms: C_21  and  C_22
REMARK                            x       y       z     vdW  Elec       q    Type
REMARK                         _______ _______ _______ _____ _____    ______ ____
ROOT
ATOM      1  C   UNL     1      45.111   4.842  11.460  0.00  0.00    +0.000 A 
ATOM      2  C   UNL     1      45.210   3.537  11.954  0.00  0.00    +0.000 A 
ATOM      3  N   UNL     1      45.922   3.146  13.044  0.00  0.00    +0.000 NA
ATOM      4  C   UNL     1      46.642   4.087  13.685  0.00  0.00    +0.000 A 
ATOM      5  C   UNL     1      46.680   5.399  13.235  0.00  0.00    +0.000 A 
ATOM      6  C   UNL     1      45.911   5.785  12.127  0.00  0.00    +0.000 A 
ENDROOT
BRANCH   1   7
ATOM      7  N   UNL     1      44.388   5.181  10.302  0.00  0.00    +0.000 N 
ATOM      8  H   UNL     1      43.479   5.572  10.545  0.00  0.00    +0.000 HD
BRANCH   7  10
ATOM      9  C   UNL     1      45.542   4.300   8.342  0.00  0.00    +0.000 C 
ATOM     10  C   UNL     1      44.317   4.189   9.232  0.00  0.00    +0.000 C 
ENDBRANCH   7  10
ENDBRANCH   1   7
BRANCH   6  11
ATOM     11  C   UNL     1      45.989   7.212  11.781  0.00  0.00    +0.000 C 
ATOM     12  C   UNL     1      45.455   8.164  12.559  0.00  0.00    +0.000 C 
BRANCH  12  13
ATOM     13  C   UNL     1      45.293   9.591  12.142  0.00  0.00    +0.000 C 
ATOM     14  F   UNL     1      46.418  10.067  11.538  0.00  0.00    +0.000 F 
ENDBRANCH  12  13
ENDBRANCH   6  11
BRANCH   4  15
ATOM     15  C   UNL     1      47.446   3.625  14.876  0.00  0.00    +0.000 C 
BRANCH  15  16
ATOM     16  C   UNL     1      47.042   4.263  16.208  0.00  0.00    +0.000 C 
BRANCH  16  17
ATOM     17  C   UNL     1      48.195   5.001  16.837  0.00  0.00    +0.000 A 
ATOM     18  C   UNL     1      48.862   6.011  16.143  0.00  0.00    +0.000 A 
ATOM     19  C   UNL     1      49.903   6.710  16.753  0.00  0.00    +0.000 A 
ATOM     20  C   UNL     1      50.280   6.408  18.064  0.00  0.00    +0.000 A 
ATOM     21  C   UNL     1      49.621   5.402  18.779  0.00  0.00    +0.000 A 
ATOM     22  C   UNL     1      48.584   4.698  18.149  0.00  0.00    +0.000 A 
BRANCH  21  23
ATOM     23  C   UNL     1      50.012   5.065  20.196  0.00  0.00    +0.000 C 
BRANCH  23  24
ATOM     24  N   UNL     1      51.301   4.381  20.245  0.00  0.00    +0.000 NA
ATOM     25  H   UNL     1      52.023   5.028  19.932  0.00  0.00    +0.000 HD
ATOM     26  H   UNL     1      51.296   3.606  19.588  0.00  0.00    +0.000 HD
ENDBRANCH  23  24
ENDBRANCH  21  23
ENDBRANCH  16  17
ENDBRANCH  15  16
ENDBRANCH   4  15
TORSDOF 9
ENDMDL
MODEL 8
REMARK VINA RESULT:    -5.470      3.882      7.118
REMARK INTER + INTRA:          -8.891
REMARK INTER:                  -8.094
REMARK INTRA:                  -0.797
REMARK UNBOUND:                -0.702
REMARK  Name = 
REMARK  10 active torsions:
REMARK  status: ('A' for Active; 'I' for Inactive)
REMARK    1  A    between atoms: C_1  and  C_2
REMARK    2  A    between atoms: C_2  and  N_3
REMARK    3  A    between atoms: N_3  and  C_4
REMARK    4  A    between atoms: C_7  and  C_8
REMARK    5  A    between atoms: C_8  and  C_9
REMARK    6  A    between atoms: C_9  and  C_10
REMARK    7  A    between atoms: C_14  and  C_15
REMARK    8  A    between atoms: C_15  and  N_16
REMARK    9  A    between atoms: C_19  and  C_20
REMARK   10  A    between atoms: C_21  and  C_22
REMARK                            x       y       z     vdW  Elec       q    Type
REMARK                         _______ _______ _______ _____ _____    ______ ____
ROOT
ATOM      1  C   UNL     1      45.808   4.582  12.661  0.00  0.00    +0.000 A 
ATOM      2  C   UNL     1      45.776   5.396  11.524  0.00  0.00    +0.000 A 
ATOM      3  N   UNL     1      46.581   6.464  11.281  0.00  0.00    +0.000 NA
ATOM      4  C   UNL     1      47.464   6.806  12.241  0.00  0.00    +0.000 A 
ATOM      5  C   UNL     1      47.528   6.116  13.443  0.00  0.00    +0.000 A 
ATOM      6  C   UNL     1      46.708   4.998  13.656  0.00  0.00    +0.000 A 
ENDROOT
BRANCH   1   7
ATOM      7  N   UNL     1      44.921   3.511  12.874  0.00  0.00    +0.000 N 
ATOM      8  H   UNL     1      45.349   2.627  12.603  0.00  0.00    +0.000 HD
BRANCH   7  10
ATOM      9  C   UNL     1      42.865   4.804  13.109  0.00  0.00    +0.000 C 
ATOM     10  C   UNL     1      43.551   3.658  12.387  0.00  0.00    +0.000 C 
ENDBRANCH   7  10
ENDBRANCH   1   7
BRANCH   6  11
ATOM     11  C   UNL     1      46.908   4.315  14.943  0.00  0.00    +0.000 C 
ATOM     12  C   UNL     1      47.681   4.830  15.910  0.00  0.00    +0.000 C 
BRANCH  12  13
ATOM     13  C   UNL     1      48.110   4.075  17.128  0.00  0.00    +0.000 C 
ATOM     14  F   UNL     1      48.696   2.890  16.801  0.00  0.00    +0.000 F 
ENDBRANCH  12  13
ENDBRANCH   6  11
BRANCH   4  15
ATOM     15  C   UNL     1      48.328   8.011  11.961  0.00  0.00    +0.000 C 
BRANCH  15  16
ATOM     16  C   UNL     1      47.940   9.271  12.741  0.00  0.00    +0.000 C 
BRANCH  16  17
ATOM     17  C   UNL     1      47.035  10.162  11.932  0.00  0.00    +0.000 A 
ATOM     18  C   UNL     1      47.553  11.223  11.188  0.00  0.00    +0.000 A 
ATOM     19  C   UNL     1      46.706  12.015  10.414  0.00  0.00    +0.000 A 
ATOM     20  C   UNL     1      45.334  11.748  10.375  0.00  0.00    +0.000 A 
ATOM     21  C   UNL     1      44.795  10.687  11.109  0.00  0.00    +0.000 A 
ATOM     22  C   UNL     1      45.657   9.906  11.893  0.00  0.00    +0.000 A 
BRANCH  21  23
ATOM     23  C   UNL     1      43.319  10.382  11.076  0.00  0.00    +0.000 C 
BRANCH  23  24
ATOM     24  N   UNL     1      42.610  11.059  12.158  0.00  0.00    +0.000 NA
ATOM     25  H   UNL     1      42.521  10.414  12.942  0.00  0.00    +0.000 HD
ATOM     26  H   UNL     1      41.666  11.282  11.854  0.00  0.00    +0.000 HD
ENDBRANCH  23  24
ENDBRANCH  21  23
ENDBRANCH  16  17
ENDBRANCH  15  16
ENDBRANCH   4  15
TORSDOF 9
ENDMDL
MODEL 9
REMARK VINA RESULT:    -5.458      3.088      5.158
REMARK INTER + INTRA:          -8.872
REMARK INTER:                  -7.834
REMARK INTRA:                  -1.038
REMARK UNBOUND:                -0.702
REMARK  Name = 
REMARK  10 active torsions:
REMARK  status: ('A' for Active; 'I' for Inactive)
REMARK    1  A    between atoms: C_1  and  C_2
REMARK    2  A    between atoms: C_2  and  N_3
REMARK    3  A    between atoms: N_3  and  C_4
REMARK    4  A    between atoms: C_7  and  C_8
REMARK    5  A    between atoms: C_8  and  C_9
REMARK    6  A    between atoms: C_9  and  C_10
REMARK    7  A    between atoms: C_14  and  C_15
REMARK    8  A    between atoms: C_15  and  N_16
REMARK    9  A    between atoms: C_19  and  C_20
REMARK   10  A    between atoms: C_21  and  C_22
REMARK                            x       y       z     vdW  Elec       q    Type
REMARK                         _______ _______ _______ _____ _____    ______ ____
ROOT
ATOM      1  C   UNL     1      49.994   7.482  14.978  0.00  0.00    +0.000 A 
ATOM      2  C   UNL     1      50.133   7.974  13.676  0.00  0.00    +0.000 A 
ATOM      3  N   UNL     1      49.264   7.774  12.649  0.00  0.00    +0.000 NA
ATOM      4  C   UNL     1      48.192   6.992  12.886  0.00  0.00    +0.000 A 
ATOM      5  C   UNL     1      47.997   6.389  14.120  0.00  0.00    +0.000 A 
ATOM      6  C   UNL     1      48.890   6.636  15.173  0.00  0.00    +0.000 A 
ENDROOT
BRANCH   1   7
ATOM      7  N   UNL     1      50.947   7.690  15.992  0.00  0.00    +0.000 N 
ATOM      8  H   UNL     1      51.107   8.685  16.140  0.00  0.00    +0.000 HD
BRANCH   7  10
ATOM      9  C   UNL     1      52.248   5.945  17.095  0.00  0.00    +0.000 C 
ATOM     10  C   UNL     1      52.185   6.915  15.928  0.00  0.00    +0.000 C 
ENDBRANCH   7  10
ENDBRANCH   1   7
BRANCH   6  11
ATOM     11  C   UNL     1      48.547   5.987  16.447  0.00  0.00    +0.000 C 
ATOM     12  C   UNL     1      47.913   4.806  16.497  0.00  0.00    +0.000 C 
BRANCH  12  13
ATOM     13  C   UNL     1      47.329   4.223  17.744  0.00  0.00    +0.000 C 
ATOM     14  F   UNL     1      46.493   5.102  18.363  0.00  0.00    +0.000 F 
ENDBRANCH  12  13
ENDBRANCH   6  11
BRANCH   4  15
ATOM     15  C   UNL     1      47.257   6.763  11.724  0.00  0.00    +0.000 C 
BRANCH  15  16
ATOM     16  C   UNL     1      45.774   6.970  12.047  0.00  0.00    +0.000 C 
BRANCH  16  17
ATOM     17  C   UNL     1      45.011   5.672  11.989  0.00  0.00    +0.000 A 
ATOM     18  C   UNL     1      44.159   5.295  13.027  0.00  0.00    +0.000 A 
ATOM     19  C   UNL     1      43.432   4.109  12.941  0.00  0.00    +0.000 A 
ATOM     20  C   UNL     1      43.548   3.293  11.812  0.00  0.00    +0.000 A 
ATOM     21  C   UNL     1      44.394   3.655  10.758  0.00  0.00    +0.000 A 
ATOM     22  C   UNL     1      45.129   4.844  10.863  0.00  0.00    +0.000 A 
BRANCH  21  23
ATOM     23  C   UNL     1      44.529   2.788   9.531  0.00  0.00    +0.000 C 
BRANCH  23  24
ATOM     24  N   UNL     1      44.273   3.547   8.310  0.00  0.00    +0.000 NA
ATOM     25  H   UNL     1      44.114   4.522   8.561  0.00  0.00    +0.000 HD
ATOM     26  H   UNL     1      43.414   3.213   7.881  0.00  0.00    +0.000 HD
ENDBRANCH  23  24
ENDBRANCH  21  23
ENDBRANCH  16  17
ENDBRANCH  15  16
ENDBRANCH   4  15
TORSDOF 9
ENDMDL
