MODEL 1
REMARK VINA RESULT:    -8.669      0.000      0.000
REMARK INTER + INTRA:         -12.933
REMARK INTER:                 -12.217
REMARK INTRA:                  -0.717
REMARK UNBOUND:                -0.717
REMARK  Name = 
REMARK  7 active torsions:
REMARK  status: ('A' for Active; 'I' for Inactive)
REMARK    1  A    between atoms: C_2  and  C_20
REMARK    2  A    between atoms: N_3  and  C_4
REMARK    3  A    between atoms: C_4  and  C_5
REMARK    4  A    between atoms: C_8  and  C_9
REMARK    5  A    between atoms: C_9  and  N_10
REMARK    6  A    between atoms: N_10  and  C_11
REMARK    7  A    between atoms: C_11  and  C_12
REMARK                            x       y       z     vdW  Elec       q    Type
REMARK                         _______ _______ _______ _____ _____    ______ ____
ROOT
ATOM      1  C   UNL     1      44.743   5.330  11.785  0.00  0.00    +0.000 A 
ATOM      2  C   UNL     1      45.514   6.408  12.229  0.00  0.00    +0.000 A 
ATOM      3  C   UNL     1      46.377   6.243  13.316  0.00  0.00    +0.000 A 
ATOM      4  C   UNL     1      46.467   4.990  13.919  0.00  0.00    +0.000 A 
ATOM      5  N   UNL     1      45.756   3.925  13.483  0.00  0.00    +0.000 NA
ATOM      6  C   UNL     1      44.919   4.115  12.434  0.00  0.00    +0.000 A 
ENDROOT
BRANCH   1   7
ATOM      7  C   UNL     1      43.782   5.449  10.637  0.00  0.00    +0.000 C 
BRANCH   7  10
ATOM      8  O   UNL     1      45.925   5.409   8.741  0.00  0.00    +0.000 OA
ATOM      9  C   UNL     1      45.185   4.442   8.874  0.00  0.00    +0.000 C 
ATOM     10  N   UNL     1      44.035   4.445   9.639  0.00  0.00    +0.000 N 
ATOM     11  H   UNL     1      43.604   3.527   9.731  0.00  0.00    +0.000 HD
BRANCH   9  12
ATOM     12  C   UNL     1      45.482   3.098   8.348  0.00  0.00    +0.000 A 
ATOM     13  N   UNL     1      45.128   2.004   9.063  0.00  0.00    +0.000 NA
ATOM     14  N   UNL     1      45.782   1.000   8.462  0.00  0.00    +0.000 N 
ATOM     15  C   UNL     1      46.527   1.384   7.390  0.00  0.00    +0.000 A 
ATOM     16  C   UNL     1      47.421   0.686   6.592  0.00  0.00    +0.000 A 
ATOM     17  N   UNL     1      47.984   1.321   5.541  0.00  0.00    +0.000 NA
ATOM     18  C   UNL     1      47.660   2.614   5.301  0.00  0.00    +0.000 A 
ATOM     19  C   UNL     1      46.816   3.383   6.092  0.00  0.00    +0.000 A 
ATOM     20  C   UNL     1      46.253   2.735   7.203  0.00  0.00    +0.000 A 
ATOM     21  H   UNL     1      45.698   0.072   8.855  0.00  0.00    +0.000 HD
ENDBRANCH   9  12
ENDBRANCH   7  10
ENDBRANCH   1   7
BRANCH   4  22
ATOM     22  C   UNL     1      47.373   4.776  15.122  0.00  0.00    +0.000 C 
BRANCH  22  23
ATOM     23  N   UNL     1      46.946   3.678  15.999  0.00  0.00    +0.000 NA
ATOM     24  H   UNL     1      47.359   2.820  15.625  0.00  0.00    +0.000 HD
BRANCH  23  25
ATOM     25  C   UNL     1      47.426   3.857  17.366  0.00  0.00    +0.000 C 
BRANCH  25  26
ATOM     26  C   UNL     1      48.884   3.487  17.484  0.00  0.00    +0.000 A 
ATOM     27  C   UNL     1      49.346   2.253  17.003  0.00  0.00    +0.000 A 
ATOM     28  C   UNL     1      50.698   1.918  17.101  0.00  0.00    +0.000 A 
ATOM     29  C   UNL     1      51.599   2.806  17.688  0.00  0.00    +0.000 A 
ATOM     30  C   UNL     1      51.146   4.025  18.190  0.00  0.00    +0.000 A 
ATOM     31  C   UNL     1      49.795   4.362  18.093  0.00  0.00    +0.000 A 
ENDBRANCH  25  26
ENDBRANCH  23  25
ENDBRANCH  22  23
ENDBRANCH   4  22
TORSDOF 7
ENDMDL
MODEL 2
REMARK VINA RESULT:    -8.436      2.497      9.638
REMARK INTER + INTRA:         -12.605
REMARK INTER:                 -11.796
REMARK INTRA:                  -0.809
REMARK UNBOUND:                -0.717
REMARK  Name = 
REMARK  7 active torsions:
REMARK  status: ('A' for Active; 'I' for Inactive)
REMARK    1  A    between atoms: C_2  and  C_20
REMARK    2  A    between atoms: N_3  and  C_4
REMARK    3  A    between atoms: C_4  and  C_5
REMARK    4  A    between atoms: C_8  and  C_9
REMARK    5  A    between atoms: C_9  and  N_10
REMARK    6  A    between atoms: N_10  and  C_11
REMARK    7  A    between atoms: C_11  and  C_12
REMARK                            x       y       z     vdW  Elec       q    Type
REMARK                         _______ _______ _______ _____ _____    ______ ____
ROOT
ATOM      1  C   UNL     1      46.780   5.641  13.223  0.00  0.00    +0.000 A 
ATOM      2  C   UNL     1      46.724   6.333  12.010  0.00  0.00    +0.000 A 
ATOM      3  C   UNL     1      45.624   6.165  11.165  0.00  0.00    +0.000 A 
ATOM      4  C   UNL     1      44.589   5.322  11.567  0.00  0.00    +0.000 A 
ATOM      5  N   UNL     1      44.607   4.669  12.752  0.00  0.00    +0.000 NA
ATOM      6  C   UNL     1      45.691   4.842  13.547  0.00  0.00    +0.000 A 
ENDROOT
BRANCH   1   7
ATOM      7  C   UNL     1      47.944   5.762  14.164  0.00  0.00    +0.000 C 
BRANCH   7  10
ATOM      8  O   UNL     1      48.042   3.377  15.744  0.00  0.00    +0.000 OA
ATOM      9  C   UNL     1      47.756   4.456  16.250  0.00  0.00    +0.000 C 
ATOM     10  N   UNL     1      47.525   5.613  15.532  0.00  0.00    +0.000 N 
ATOM     11  H   UNL     1      47.413   6.439  16.115  0.00  0.00    +0.000 HD
BRANCH   9  12
ATOM     12  C   UNL     1      47.749   4.709  17.702  0.00  0.00    +0.000 A 
ATOM     13  N   UNL     1      46.597   5.069  18.314  0.00  0.00    +0.000 NA
ATOM     14  N   UNL     1      46.992   5.490  19.524  0.00  0.00    +0.000 N 
ATOM     15  C   UNL     1      48.334   5.407  19.730  0.00  0.00    +0.000 A 
ATOM     16  C   UNL     1      49.133   5.841  20.777  0.00  0.00    +0.000 A 
ATOM     17  N   UNL     1      50.456   5.567  20.739  0.00  0.00    +0.000 NA
ATOM     18  C   UNL     1      50.957   4.880  19.686  0.00  0.00    +0.000 A 
ATOM     19  C   UNL     1      50.221   4.466  18.583  0.00  0.00    +0.000 A 
ATOM     20  C   UNL     1      48.852   4.777  18.604  0.00  0.00    +0.000 A 
ATOM     21  H   UNL     1      46.290   5.852  20.157  0.00  0.00    +0.000 HD
ENDBRANCH   9  12
ENDBRANCH   7  10
ENDBRANCH   1   7
BRANCH   4  22
ATOM     22  C   UNL     1      43.388   5.090  10.663  0.00  0.00    +0.000 C 
BRANCH  22  23
ATOM     23  N   UNL     1      43.721   4.444   9.387  0.00  0.00    +0.000 NA
ATOM     24  H   UNL     1      44.422   5.032   8.929  0.00  0.00    +0.000 HD
BRANCH  23  25
ATOM     25  C   UNL     1      44.298   3.117   9.585  0.00  0.00    +0.000 C 
BRANCH  25  26
ATOM     26  C   UNL     1      45.397   2.847   8.586  0.00  0.00    +0.000 A 
ATOM     27  C   UNL     1      45.935   1.559   8.450  0.00  0.00    +0.000 A 
ATOM     28  C   UNL     1      46.943   1.309   7.516  0.00  0.00    +0.000 A 
ATOM     29  C   UNL     1      47.428   2.343   6.717  0.00  0.00    +0.000 A 
ATOM     30  C   UNL     1      46.917   3.631   6.859  0.00  0.00    +0.000 A 
ATOM     31  C   UNL     1      45.909   3.883   7.792  0.00  0.00    +0.000 A 
ENDBRANCH  25  26
ENDBRANCH  23  25
ENDBRANCH  22  23
ENDBRANCH   4  22
TORSDOF 7
ENDMDL
MODEL 3
REMARK VINA RESULT:    -8.350      2.899      9.885
REMARK INTER + INTRA:         -12.484
REMARK INTER:                 -11.619
REMARK INTRA:                  -0.864
REMARK UNBOUND:                -0.717
REMARK  Name = 
REMARK  7 active torsions:
REMARK  status: ('A' for Active; 'I' for Inactive)
REMARK    1  A    between atoms: C_2  and  C_20
REMARK    2  A    between atoms: N_3  and  C_4
REMARK    3  A    between atoms: C_4  and  C_5
REMARK    4  A    between atoms: C_8  and  C_9
REMARK    5  A    between atoms: C_9  and  N_10
REMARK    6  A    between atoms: N_10  and  C_11
REMARK    7  A    between atoms: C_11  and  C_12
REMARK                            x       y       z     vdW  Elec       q    Type
REMARK                         _______ _______ _______ _____ _____    ______ ____
ROOT
ATOM      1  C   UNL     1      46.780   5.962  13.123  0.00  0.00    +0.000 A 
ATOM      2  C   UNL     1      46.693   6.497  11.835  0.00  0.00    +0.000 A 
ATOM      3  C   UNL     1      45.597   6.186  11.026  0.00  0.00    +0.000 A 
ATOM      4  C   UNL     1      44.597   5.361  11.538  0.00  0.00    +0.000 A 
ATOM      5  N   UNL     1      44.644   4.860  12.794  0.00  0.00    +0.000 NA
ATOM      6  C   UNL     1      45.723   5.170  13.553  0.00  0.00    +0.000 A 
ENDROOT
BRANCH   1   7
ATOM      7  C   UNL     1      47.943   6.241  14.033  0.00  0.00    +0.000 C 
BRANCH   7  10
ATOM      8  O   UNL     1      49.900   5.805  16.074  0.00  0.00    +0.000 OA
ATOM      9  C   UNL     1      48.705   5.674  16.311  0.00  0.00    +0.000 C 
ATOM     10  N   UNL     1      47.717   5.701  15.346  0.00  0.00    +0.000 N 
ATOM     11  H   UNL     1      46.774   5.691  15.729  0.00  0.00    +0.000 HD
BRANCH   9  12
ATOM     12  C   UNL     1      48.136   5.602  17.668  0.00  0.00    +0.000 A 
ATOM     13  N   UNL     1      46.977   4.934  17.874  0.00  0.00    +0.000 NA
ATOM     14  N   UNL     1      46.609   5.302  19.110  0.00  0.00    +0.000 N 
ATOM     15  C   UNL     1      47.474   6.159  19.716  0.00  0.00    +0.000 A 
ATOM     16  C   UNL     1      47.397   6.849  20.917  0.00  0.00    +0.000 A 
ATOM     17  N   UNL     1      48.452   7.601  21.301  0.00  0.00    +0.000 NA
ATOM     18  C   UNL     1      49.546   7.658  20.504  0.00  0.00    +0.000 A 
ATOM     19  C   UNL     1      49.663   7.036  19.268  0.00  0.00    +0.000 A 
ATOM     20  C   UNL     1      48.557   6.279  18.851  0.00  0.00    +0.000 A 
ATOM     21  H   UNL     1      45.732   4.949  19.472  0.00  0.00    +0.000 HD
ENDBRANCH   9  12
ENDBRANCH   7  10
ENDBRANCH   1   7
BRANCH   4  22
ATOM     22  C   UNL     1      43.402   4.975  10.680  0.00  0.00    +0.000 C 
BRANCH  22  23
ATOM     23  N   UNL     1      43.766   4.392   9.382  0.00  0.00    +0.000 NA
ATOM     24  H   UNL     1      44.498   4.986   8.983  0.00  0.00    +0.000 HD
BRANCH  23  25
ATOM     25  C   UNL     1      44.303   3.041   9.525  0.00  0.00    +0.000 C 
BRANCH  25  26
ATOM     26  C   UNL     1      45.419   2.792   8.540  0.00  0.00    +0.000 A 
ATOM     27  C   UNL     1      45.958   1.507   8.384  0.00  0.00    +0.000 A 
ATOM     28  C   UNL     1      46.981   1.276   7.462  0.00  0.00    +0.000 A 
ATOM     29  C   UNL     1      47.483   2.328   6.695  0.00  0.00    +0.000 A 
ATOM     30  C   UNL     1      46.970   3.613   6.859  0.00  0.00    +0.000 A 
ATOM     31  C   UNL     1      45.947   3.846   7.779  0.00  0.00    +0.000 A 
ENDBRANCH  25  26
ENDBRANCH  23  25
ENDBRANCH  22  23
ENDBRANCH   4  22
TORSDOF 7
ENDMDL
MODEL 4
REMARK VINA RESULT:    -8.093      2.487      8.827
REMARK INTER + INTRA:         -12.122
REMARK INTER:                 -11.018
REMARK INTRA:                  -1.104
REMARK UNBOUND:                -0.717
REMARK  Name = 
REMARK  7 active torsions:
REMARK  status: ('A' for Active; 'I' for Inactive)
REMARK    1  A    between atoms: C_2  and  C_20
REMARK    2  A    between atoms: N_3  and  C_4
REMARK    3  A    between atoms: C_4  and  C_5
REMARK    4  A    between atoms: C_8  and  C_9
REMARK    5  A    between atoms: C_9  and  N_10
REMARK    6  A    between atoms: N_10  and  C_11
REMARK    7  A    between atoms: C_11  and  C_12
REMARK                            x       y       z     vdW  Elec       q    Type
REMARK                         _______ _______ _______ _____ _____    ______ ____
ROOT
ATOM      1  C   UNL     1      46.936   6.522  12.692  0.00  0.00    +0.000 A 
ATOM      2  C   UNL     1      46.387   6.652  11.414  0.00  0.00    +0.000 A 
ATOM      3  C   UNL     1      45.477   5.699  10.949  0.00  0.00    +0.000 A 
ATOM      4  C   UNL     1      45.118   4.646  11.789  0.00  0.00    +0.000 A 
ATOM      5  N   UNL     1      45.611   4.520  13.042  0.00  0.00    +0.000 NA
ATOM      6  C   UNL     1      46.499   5.453  13.464  0.00  0.00    +0.000 A 
ENDROOT
BRANCH   1   7
ATOM      7  C   UNL     1      47.935   7.500  13.241  0.00  0.00    +0.000 C 
BRANCH   7  10
ATOM      8  O   UNL     1      48.544   8.416  15.883  0.00  0.00    +0.000 OA
ATOM      9  C   UNL     1      48.917   7.314  15.498  0.00  0.00    +0.000 C 
ATOM     10  N   UNL     1      48.810   6.872  14.194  0.00  0.00    +0.000 N 
ATOM     11  H   UNL     1      49.062   5.893  14.073  0.00  0.00    +0.000 HD
BRANCH   9  12
ATOM     12  C   UNL     1      49.408   6.250  16.392  0.00  0.00    +0.000 A 
ATOM     13  N   UNL     1      50.720   6.204  16.721  0.00  0.00    +0.000 NA
ATOM     14  N   UNL     1      50.870   4.996  17.282  0.00  0.00    +0.000 N 
ATOM     15  C   UNL     1      49.724   4.266  17.346  0.00  0.00    +0.000 A 
ATOM     16  C   UNL     1      49.486   2.957  17.735  0.00  0.00    +0.000 A 
ATOM     17  N   UNL     1      48.212   2.507  17.751  0.00  0.00    +0.000 NA
ATOM     18  C   UNL     1      47.212   3.344  17.387  0.00  0.00    +0.000 A 
ATOM     19  C   UNL     1      47.389   4.646  16.936  0.00  0.00    +0.000 A 
ATOM     20  C   UNL     1      48.714   5.107  16.889  0.00  0.00    +0.000 A 
ATOM     21  H   UNL     1      51.797   4.718  17.578  0.00  0.00    +0.000 HD
ENDBRANCH   9  12
ENDBRANCH   7  10
ENDBRANCH   1   7
BRANCH   4  22
ATOM     22  C   UNL     1      44.152   3.573  11.310  0.00  0.00    +0.000 C 
BRANCH  22  23
ATOM     23  N   UNL     1      44.812   2.409  10.703  0.00  0.00    +0.000 NA
ATOM     24  H   UNL     1      44.524   1.589  11.242  0.00  0.00    +0.000 HD
BRANCH  23  25
ATOM     25  C   UNL     1      44.397   2.212   9.316  0.00  0.00    +0.000 C 
BRANCH  25  26
ATOM     26  C   UNL     1      45.572   2.329   8.376  0.00  0.00    +0.000 A 
ATOM     27  C   UNL     1      45.915   3.568   7.816  0.00  0.00    +0.000 A 
ATOM     28  C   UNL     1      47.010   3.676   6.956  0.00  0.00    +0.000 A 
ATOM     29  C   UNL     1      47.766   2.547   6.641  0.00  0.00    +0.000 A 
ATOM     30  C   UNL     1      47.420   1.307   7.174  0.00  0.00    +0.000 A 
ATOM     31  C   UNL     1      46.326   1.197   8.033  0.00  0.00    +0.000 A 
ENDBRANCH  25  26
ENDBRANCH  23  25
ENDBRANCH  22  23
ENDBRANCH   4  22
TORSDOF 7
ENDMDL
MODEL 5
REMARK VINA RESULT:    -8.015      2.253      3.189
REMARK INTER + INTRA:         -12.011
REMARK INTER:                 -10.955
REMARK INTRA:                  -1.056
REMARK UNBOUND:                -0.717
REMARK  Name = 
REMARK  7 active torsions:
REMARK  status: ('A' for Active; 'I' for Inactive)
REMARK    1  A    between atoms: C_2  and  C_20
REMARK    2  A    between atoms: N_3  and  C_4
REMARK    3  A    between atoms: C_4  and  C_5
REMARK    4  A    between atoms: C_8  and  C_9
REMARK    5  A    between atoms: C_9  and  N_10
REMARK    6  A    between atoms: N_10  and  C_11
REMARK    7  A    between atoms: C_11  and  C_12
REMARK                            x       y       z     vdW  Elec       q    Type
REMARK                         _______ _______ _______ _____ _____    ______ ____
ROOT
ATOM      1  C   UNL     1      46.565   7.436  12.717  0.00  0.00    +0.000 A 
ATOM      2  C   UNL     1      46.932   8.647  13.310  0.00  0.00    +0.000 A 
ATOM      3  C   UNL     1      48.168   8.759  13.952  0.00  0.00    +0.000 A 
ATOM      4  C   UNL     1      49.022   7.658  13.964  0.00  0.00    +0.000 A 
ATOM      5  N   UNL     1      48.701   6.487  13.367  0.00  0.00    +0.000 NA
ATOM      6  C   UNL     1      47.492   6.403  12.760  0.00  0.00    +0.000 A 
ENDROOT
BRANCH   1   7
ATOM      7  C   UNL     1      45.242   7.245  12.031  0.00  0.00    +0.000 C 
BRANCH   7  10
ATOM      8  O   UNL     1      42.757   6.065  11.243  0.00  0.00    +0.000 OA
ATOM      9  C   UNL     1      43.793   5.411  11.238  0.00  0.00    +0.000 C 
ATOM     10  N   UNL     1      44.993   5.855  11.760  0.00  0.00    +0.000 N 
ATOM     11  H   UNL     1      45.775   5.233  11.570  0.00  0.00    +0.000 HD
BRANCH   9  12
ATOM     12  C   UNL     1      43.946   4.113  10.557  0.00  0.00    +0.000 A 
ATOM     13  N   UNL     1      43.397   3.002  11.101  0.00  0.00    +0.000 NA
ATOM     14  N   UNL     1      43.954   1.996  10.411  0.00  0.00    +0.000 N 
ATOM     15  C   UNL     1      44.820   2.399   9.443  0.00  0.00    +0.000 A 
ATOM     16  C   UNL     1      45.669   1.684   8.611  0.00  0.00    +0.000 A 
ATOM     17  N   UNL     1      46.388   2.358   7.686  0.00  0.00    +0.000 NA
ATOM     18  C   UNL     1      46.258   3.703   7.600  0.00  0.00    +0.000 A 
ATOM     19  C   UNL     1      45.468   4.481   8.437  0.00  0.00    +0.000 A 
ATOM     20  C   UNL     1      44.744   3.788   9.420  0.00  0.00    +0.000 A 
ATOM     21  H   UNL     1      43.718   1.048  10.673  0.00  0.00    +0.000 HD
ENDBRANCH   9  12
ENDBRANCH   7  10
ENDBRANCH   1   7
BRANCH   4  22
ATOM     22  C   UNL     1      50.364   7.730  14.677  0.00  0.00    +0.000 C 
BRANCH  22  23
ATOM     23  N   UNL     1      50.668   6.545  15.490  0.00  0.00    +0.000 NA
ATOM     24  H   UNL     1      51.672   6.569  15.687  0.00  0.00    +0.000 HD
BRANCH  23  25
ATOM     25  C   UNL     1      49.954   6.562  16.764  0.00  0.00    +0.000 C 
BRANCH  25  26
ATOM     26  C   UNL     1      49.229   5.259  16.998  0.00  0.00    +0.000 A 
ATOM     27  C   UNL     1      47.914   5.084  16.542  0.00  0.00    +0.000 A 
ATOM     28  C   UNL     1      47.250   3.873  16.747  0.00  0.00    +0.000 A 
ATOM     29  C   UNL     1      47.888   2.830  17.418  0.00  0.00    +0.000 A 
ATOM     30  C   UNL     1      49.186   3.001  17.896  0.00  0.00    +0.000 A 
ATOM     31  C   UNL     1      49.852   4.211  17.691  0.00  0.00    +0.000 A 
ENDBRANCH  25  26
ENDBRANCH  23  25
ENDBRANCH  22  23
ENDBRANCH   4  22
TORSDOF 7
ENDMDL
MODEL 6
REMARK VINA RESULT:    -7.858      3.382      8.246
REMARK INTER + INTRA:         -11.790
REMARK INTER:                 -10.854
REMARK INTRA:                  -0.936
REMARK UNBOUND:                -0.717
REMARK  Name = 
REMARK  7 active torsions:
REMARK  status: ('A' for Active; 'I' for Inactive)
REMARK    1  A    between atoms: C_2  and  C_20
REMARK    2  A    between atoms: N_3  and  C_4
REMARK    3  A    between atoms: C_4  and  C_5
REMARK    4  A    between atoms: C_8  and  C_9
REMARK    5  A    between atoms: C_9  and  N_10
REMARK    6  A    between atoms: N_10  and  C_11
REMARK    7  A    between atoms: C_11  and  C_12
REMARK                            x       y       z     vdW  Elec       q    Type
REMARK                         _______ _______ _______ _____ _____    ______ ____
ROOT
ATOM      1  C   UNL     1      46.737   5.303  13.715  0.00  0.00    +0.000 A 
ATOM      2  C   UNL     1      45.585   5.961  13.276  0.00  0.00    +0.000 A 
ATOM      3  C   UNL     1      44.565   5.236  12.653  0.00  0.00    +0.000 A 
ATOM      4  C   UNL     1      44.714   3.859  12.504  0.00  0.00    +0.000 A 
ATOM      5  N   UNL     1      45.806   3.196  12.952  0.00  0.00    +0.000 NA
ATOM      6  C   UNL     1      46.783   3.925  13.544  0.00  0.00    +0.000 A 
ENDROOT
BRANCH   1   7
ATOM      7  C   UNL     1      47.876   6.028  14.372  0.00  0.00    +0.000 C 
BRANCH   7  10
ATOM      8  O   UNL     1      49.343   6.977  12.105  0.00  0.00    +0.000 OA
ATOM      9  C   UNL     1      48.577   7.716  12.714  0.00  0.00    +0.000 C 
ATOM     10  N   UNL     1      47.966   7.386  13.908  0.00  0.00    +0.000 N 
ATOM     11  H   UNL     1      47.276   8.068  14.214  0.00  0.00    +0.000 HD
BRANCH   9  12
ATOM     12  C   UNL     1      48.091   9.007  12.195  0.00  0.00    +0.000 A 
ATOM     13  N   UNL     1      48.966  10.019  11.990  0.00  0.00    +0.000 NA
ATOM     14  N   UNL     1      48.181  11.091  11.806  0.00  0.00    +0.000 N 
ATOM     15  C   UNL     1      46.849  10.822  11.866  0.00  0.00    +0.000 A 
ATOM     16  C   UNL     1      45.740  11.654  11.846  0.00  0.00    +0.000 A 
ATOM     17  N   UNL     1      44.510  11.095  11.864  0.00  0.00    +0.000 NA
ATOM     18  C   UNL     1      44.399   9.745  11.901  0.00  0.00    +0.000 A 
ATOM     19  C   UNL     1      45.468   8.861  11.978  0.00  0.00    +0.000 A 
ATOM     20  C   UNL     1      46.747   9.440  11.991  0.00  0.00    +0.000 A 
ATOM     21  H   UNL     1      48.625  11.990  11.670  0.00  0.00    +0.000 HD
ENDBRANCH   9  12
ENDBRANCH   7  10
ENDBRANCH   1   7
BRANCH   4  22
ATOM     22  C   UNL     1      43.641   3.038  11.806  0.00  0.00    +0.000 C 
BRANCH  22  23
ATOM     23  N   UNL     1      44.108   2.364  10.587  0.00  0.00    +0.000 NA
ATOM     24  H   UNL     1      43.403   1.665  10.344  0.00  0.00    +0.000 HD
BRANCH  23  25
ATOM     25  C   UNL     1      44.234   3.293   9.467  0.00  0.00    +0.000 C 
BRANCH  25  26
ATOM     26  C   UNL     1      45.339   2.869   8.530  0.00  0.00    +0.000 A 
ATOM     27  C   UNL     1      45.795   1.543   8.521  0.00  0.00    +0.000 A 
ATOM     28  C   UNL     1      46.808   1.150   7.645  0.00  0.00    +0.000 A 
ATOM     29  C   UNL     1      47.381   2.078   6.776  0.00  0.00    +0.000 A 
ATOM     30  C   UNL     1      46.952   3.404   6.793  0.00  0.00    +0.000 A 
ATOM     31  C   UNL     1      45.939   3.799   7.668  0.00  0.00    +0.000 A 
ENDBRANCH  25  26
ENDBRANCH  23  25
ENDBRANCH  22  23
ENDBRANCH   4  22
TORSDOF 7
ENDMDL
MODEL 7
REMARK VINA RESULT:    -7.419      2.721      9.458
REMARK INTER + INTRA:         -11.171
REMARK INTER:                 -10.482
REMARK INTRA:                  -0.689
REMARK UNBOUND:                -0.717
REMARK  Name = 
REMARK  7 active torsions:
REMARK  status: ('A' for Active; 'I' for Inactive)
REMARK    1  A    between atoms: C_2  and  C_20
REMARK    2  A    between atoms: N_3  and  C_4
REMARK    3  A    between atoms: C_4  and  C_5
REMARK    4  A    between atoms: C_8  and  C_9
REMARK    5  A    between atoms: C_9  and  N_10
REMARK    6  A    between atoms: N_10  and  C_11
REMARK    7  A    between atoms: C_11  and  C_12
REMARK                            x       y       z     vdW  Elec       q    Type
REMARK                         _______ _______ _______ _____ _____    ______ ____
ROOT
ATOM      1  C   UNL     1      46.321   5.963  12.835  0.00  0.00    +0.000 A 
ATOM      2  C   UNL     1      46.513   4.617  13.156  0.00  0.00    +0.000 A 
ATOM      3  C   UNL     1      45.626   3.653  12.669  0.00  0.00    +0.000 A 
ATOM      4  C   UNL     1      44.576   4.059  11.848  0.00  0.00    +0.000 A 
ATOM      5  N   UNL     1      44.392   5.353  11.496  0.00  0.00    +0.000 NA
ATOM      6  C   UNL     1      45.261   6.268  11.990  0.00  0.00    +0.000 A 
ENDROOT
BRANCH   1   7
ATOM      7  C   UNL     1      47.226   7.048  13.344  0.00  0.00    +0.000 C 
BRANCH   7  10
ATOM      8  O   UNL     1      49.912   7.014  14.331  0.00  0.00    +0.000 OA
ATOM      9  C   UNL     1      48.960   6.941  15.098  0.00  0.00    +0.000 C 
ATOM     10  N   UNL     1      47.648   6.783  14.693  0.00  0.00    +0.000 N 
ATOM     11  H   UNL     1      46.975   6.857  15.453  0.00  0.00    +0.000 HD
BRANCH   9  12
ATOM     12  C   UNL     1      49.055   7.147  16.554  0.00  0.00    +0.000 A 
ATOM     13  N   UNL     1      49.563   8.305  17.036  0.00  0.00    +0.000 NA
ATOM     14  N   UNL     1      49.771   8.051  18.336  0.00  0.00    +0.000 N 
ATOM     15  C   UNL     1      49.412   6.797  18.721  0.00  0.00    +0.000 A 
ATOM     16  C   UNL     1      49.572   6.121  19.921  0.00  0.00    +0.000 A 
ATOM     17  N   UNL     1      49.055   4.878  20.039  0.00  0.00    +0.000 NA
ATOM     18  C   UNL     1      48.399   4.334  18.986  0.00  0.00    +0.000 A 
ATOM     19  C   UNL     1      48.252   4.936  17.743  0.00  0.00    +0.000 A 
ATOM     20  C   UNL     1      48.815   6.215  17.607  0.00  0.00    +0.000 A 
ATOM     21  H   UNL     1      50.192   8.776  18.903  0.00  0.00    +0.000 HD
ENDBRANCH   9  12
ENDBRANCH   7  10
ENDBRANCH   1   7
BRANCH   4  22
ATOM     22  C   UNL     1      43.572   3.046  11.320  0.00  0.00    +0.000 C 
BRANCH  22  23
ATOM     23  N   UNL     1      44.055   2.279  10.164  0.00  0.00    +0.000 NA
ATOM     24  H   UNL     1      43.304   1.638   9.898  0.00  0.00    +0.000 HD
BRANCH  23  25
ATOM     25  C   UNL     1      44.345   3.142   9.023  0.00  0.00    +0.000 C 
BRANCH  25  26
ATOM     26  C   UNL     1      45.549   2.646   8.259  0.00  0.00    +0.000 A 
ATOM     27  C   UNL     1      45.910   1.292   8.300  0.00  0.00    +0.000 A 
ATOM     28  C   UNL     1      47.016   0.833   7.581  0.00  0.00    +0.000 A 
ATOM     29  C   UNL     1      47.776   1.723   6.824  0.00  0.00    +0.000 A 
ATOM     30  C   UNL     1      47.440   3.075   6.794  0.00  0.00    +0.000 A 
ATOM     31  C   UNL     1      46.334   3.535   7.511  0.00  0.00    +0.000 A 
ENDBRANCH  25  26
ENDBRANCH  23  25
ENDBRANCH  22  23
ENDBRANCH   4  22
TORSDOF 7
ENDMDL
MODEL 8
REMARK VINA RESULT:    -7.238      1.828      2.556
REMARK INTER + INTRA:         -10.916
REMARK INTER:                 -10.186
REMARK INTRA:                  -0.730
REMARK UNBOUND:                -0.717
REMARK  Name = 
REMARK  7 active torsions:
REMARK  status: ('A' for Active; 'I' for Inactive)
REMARK    1  A    between atoms: C_2  and  C_20
REMARK    2  A    between atoms: N_3  and  C_4
REMARK    3  A    between atoms: C_4  and  C_5
REMARK    4  A    between atoms: C_8  and  C_9
REMARK    5  A    between atoms: C_9  and  N_10
REMARK    6  A    between atoms: N_10  and  C_11
REMARK    7  A    between atoms: C_11  and  C_12
REMARK                            x       y       z     vdW  Elec       q    Type
REMARK                         _______ _______ _______ _____ _____    ______ ____
ROOT
ATOM      1  C   UNL     1      45.526   5.910  12.472  0.00  0.00    +0.000 A 
ATOM      2  C   UNL     1      45.399   4.689  13.139  0.00  0.00    +0.000 A 
ATOM      3  C   UNL     1      46.264   4.380  14.192  0.00  0.00    +0.000 A 
ATOM      4  C   UNL     1      47.226   5.315  14.569  0.00  0.00    +0.000 A 
ATOM      5  N   UNL     1      47.344   6.517  13.960  0.00  0.00    +0.000 NA
ATOM      6  C   UNL     1      46.498   6.787  12.935  0.00  0.00    +0.000 A 
ENDROOT
BRANCH   1   7
ATOM      7  C   UNL     1      44.642   6.292  11.319  0.00  0.00    +0.000 C 
BRANCH   7  10
ATOM      8  O   UNL     1      46.204   5.805   8.971  0.00  0.00    +0.000 OA
ATOM      9  C   UNL     1      45.398   4.975   9.374  0.00  0.00    +0.000 C 
ATOM     10  N   UNL     1      44.494   5.203  10.393  0.00  0.00    +0.000 N 
ATOM     11  H   UNL     1      43.980   4.371  10.675  0.00  0.00    +0.000 HD
BRANCH   9  12
ATOM     12  C   UNL     1      45.366   3.571   8.925  0.00  0.00    +0.000 A 
ATOM     13  N   UNL     1      44.560   2.685   9.554  0.00  0.00    +0.000 NA
ATOM     14  N   UNL     1      44.979   1.493   9.105  0.00  0.00    +0.000 N 
ATOM     15  C   UNL     1      46.002   1.564   8.211  0.00  0.00    +0.000 A 
ATOM     16  C   UNL     1      46.777   0.578   7.618  0.00  0.00    +0.000 A 
ATOM     17  N   UNL     1      47.704   0.944   6.706  0.00  0.00    +0.000 NA
ATOM     18  C   UNL     1      47.846   2.256   6.400  0.00  0.00    +0.000 A 
ATOM     19  C   UNL     1      47.140   3.293   6.996  0.00  0.00    +0.000 A 
ATOM     20  C   UNL     1      46.198   2.919   7.967  0.00  0.00    +0.000 A 
ATOM     21  H   UNL     1      44.537   0.661   9.475  0.00  0.00    +0.000 HD
ENDBRANCH   9  12
ENDBRANCH   7  10
ENDBRANCH   1   7
BRANCH   4  22
ATOM     22  C   UNL     1      48.205   5.006  15.691  0.00  0.00    +0.000 C 
BRANCH  22  23
ATOM     23  N   UNL     1      49.201   6.061  15.918  0.00  0.00    +0.000 NA
ATOM     24  H   UNL     1      48.684   6.931  16.067  0.00  0.00    +0.000 HD
BRANCH  23  25
ATOM     25  C   UNL     1      50.007   5.801  17.108  0.00  0.00    +0.000 C 
BRANCH  25  26
ATOM     26  C   UNL     1      49.183   5.937  18.364  0.00  0.00    +0.000 A 
ATOM     27  C   UNL     1      49.194   4.927  19.337  0.00  0.00    +0.000 A 
ATOM     28  C   UNL     1      48.442   5.061  20.505  0.00  0.00    +0.000 A 
ATOM     29  C   UNL     1      47.663   6.200  20.709  0.00  0.00    +0.000 A 
ATOM     30  C   UNL     1      47.626   7.199  19.739  0.00  0.00    +0.000 A 
ATOM     31  C   UNL     1      48.378   7.067  18.570  0.00  0.00    +0.000 A 
ENDBRANCH  25  26
ENDBRANCH  23  25
ENDBRANCH  22  23
ENDBRANCH   4  22
TORSDOF 7
ENDMDL
MODEL 9
REMARK VINA RESULT:    -7.139      4.238      8.241
REMARK INTER + INTRA:         -10.777
REMARK INTER:                  -9.830
REMARK INTRA:                  -0.947
REMARK UNBOUND:                -0.717
REMARK  Name = 
REMARK  7 active torsions:
REMARK  status: ('A' for Active; 'I' for Inactive)
REMARK    1  A    between atoms: C_2  and  C_20
REMARK    2  A    between atoms: N_3  and  C_4
REMARK    3  A    between atoms: C_4  and  C_5
REMARK    4  A    between atoms: C_8  and  C_9
REMARK    5  A    between atoms: C_9  and  N_10
REMARK    6  A    between atoms: N_10  and  C_11
REMARK    7  A    between atoms: C_11  and  C_12
REMARK                            x       y       z     vdW  Elec       q    Type
REMARK                         _______ _______ _______ _____ _____    ______ ____
ROOT
ATOM      1  C   UNL     1      45.190   6.813  12.334  0.00  0.00    +0.000 A 
ATOM      2  C   UNL     1      45.279   6.521  10.971  0.00  0.00    +0.000 A 
ATOM      3  C   UNL     1      44.837   5.283  10.496  0.00  0.00    +0.000 A 
ATOM      4  C   UNL     1      44.294   4.371  11.399  0.00  0.00    +0.000 A 
ATOM      5  N   UNL     1      44.167   4.647  12.717  0.00  0.00    +0.000 NA
ATOM      6  C   UNL     1      44.612   5.851  13.152  0.00  0.00    +0.000 A 
ENDROOT
BRANCH   1   7
ATOM      7  C   UNL     1      45.666   8.117  12.910  0.00  0.00    +0.000 C 
BRANCH   7  10
ATOM      8  O   UNL     1      48.136   8.539  14.291  0.00  0.00    +0.000 OA
ATOM      9  C   UNL     1      48.092   8.541  13.067  0.00  0.00    +0.000 C 
ATOM     10  N   UNL     1      46.922   8.513  12.333  0.00  0.00    +0.000 N 
ATOM     11  H   UNL     1      47.071   8.403  11.332  0.00  0.00    +0.000 HD
BRANCH   9  12
ATOM     12  C   UNL     1      49.279   8.437  12.199  0.00  0.00    +0.000 A 
ATOM     13  N   UNL     1      49.981   7.281  12.159  0.00  0.00    +0.000 NA
ATOM     14  N   UNL     1      51.115   7.614  11.525  0.00  0.00    +0.000 N 
ATOM     15  C   UNL     1      51.175   8.918  11.143  0.00  0.00    +0.000 A 
ATOM     16  C   UNL     1      52.200   9.666  10.582  0.00  0.00    +0.000 A 
ATOM     17  N   UNL     1      51.953  10.952  10.246  0.00  0.00    +0.000 NA
ATOM     18  C   UNL     1      50.720  11.467  10.466  0.00  0.00    +0.000 A 
ATOM     19  C   UNL     1      49.671  10.787  11.073  0.00  0.00    +0.000 A 
ATOM     20  C   UNL     1      49.933   9.461  11.451  0.00  0.00    +0.000 A 
ATOM     21  H   UNL     1      51.825   6.902  11.411  0.00  0.00    +0.000 HD
ENDBRANCH   9  12
ENDBRANCH   7  10
ENDBRANCH   1   7
BRANCH   4  22
ATOM     22  C   UNL     1      43.829   3.002  10.927  0.00  0.00    +0.000 C 
BRANCH  22  23
ATOM     23  N   UNL     1      43.980   2.790   9.481  0.00  0.00    +0.000 NA
ATOM     24  H   UNL     1      44.429   3.627   9.102  0.00  0.00    +0.000 HD
BRANCH  23  25
ATOM     25  C   UNL     1      44.834   1.642   9.187  0.00  0.00    +0.000 C 
BRANCH  25  26
ATOM     26  C   UNL     1      45.840   1.974   8.112  0.00  0.00    +0.000 A 
ATOM     27  C   UNL     1      46.791   1.025   7.711  0.00  0.00    +0.000 A 
ATOM     28  C   UNL     1      47.713   1.329   6.707  0.00  0.00    +0.000 A 
ATOM     29  C   UNL     1      47.699   2.586   6.102  0.00  0.00    +0.000 A 
ATOM     30  C   UNL     1      46.773   3.544   6.509  0.00  0.00    +0.000 A 
ATOM     31  C   UNL     1      45.851   3.241   7.512  0.00  0.00    +0.000 A 
ENDBRANCH  25  26
ENDBRANCH  23  25
ENDBRANCH  22  23
ENDBRANCH   4  22
TORSDOF 7
ENDMDL
