MODEL 1
REMARK VINA RESULT:    -7.527      0.000      0.000
REMARK INTER + INTRA:         -12.294
REMARK INTER:                 -11.487
REMARK INTRA:                  -0.807
REMARK UNBOUND:                -0.807
REMARK  Name = 
REMARK  10 active torsions:
REMARK  status: ('A' for Active; 'I' for Inactive)
REMARK    1  A    between atoms: C_1  and  C_2
REMARK    2  A    between atoms: C_2  and  N_3
REMARK    3  A    between atoms: C_2  and  C_12
REMARK    4  A    between atoms: N_3  and  C_4
REMARK    5  A    between atoms: C_4  and  C_5
REMARK    6  A    between atoms: C_5  and  C_6
REMARK    7  A    between atoms: C_15  and  C_16
REMARK    8  A    between atoms: C_17  and  C_18
REMARK    9  A    between atoms: C_18  and  O_19
REMARK   10  A    between atoms: O_19  and  C_20
REMARK                            x       y       z     vdW  Elec       q    Type
REMARK                         _______ _______ _______ _____ _____    ______ ____
ROOT
ATOM      1  C   UNL     1      45.099   5.045  12.067  0.00  0.00    +0.000 A 
ATOM      2  C   UNL     1      45.899   6.127  11.687  0.00  0.00    +0.000 A 
ATOM      3  C   UNL     1      46.894   6.600  12.529  0.00  0.00    +0.000 A 
ATOM      4  C   UNL     1      47.148   5.914  13.705  0.00  0.00    +0.000 A 
ATOM      5  C   UNL     1      46.382   4.799  13.987  0.00  0.00    +0.000 A 
ATOM      6  N   UNL     1      45.356   4.367  13.214  0.00  0.00    +0.000 NA
ENDROOT
BRANCH   1   8
ATOM      7  C   UNL     1      42.587   5.167  11.678  0.00  0.00    +0.000 C 
ATOM      8  C   UNL     1      43.926   4.579  11.193  0.00  0.00    +0.000 C 
BRANCH   8   9
ATOM      9  N   UNL     1      44.030   4.917   9.753  0.00  0.00    +0.000 NA
ATOM     10  H   UNL     1      44.632   5.737   9.660  0.00  0.00    +0.000 HD
BRANCH   9  11
ATOM     11  C   UNL     1      44.504   3.862   8.855  0.00  0.00    +0.000 C 
BRANCH  11  12
ATOM     12  C   UNL     1      45.797   4.206   8.084  0.00  0.00    +0.000 C 
BRANCH  12  13
ATOM     13  C   UNL     1      46.341   3.049   7.287  0.00  0.00    +0.000 A 
ATOM     14  C   UNL     1      46.716   3.191   5.945  0.00  0.00    +0.000 A 
ATOM     15  C   UNL     1      47.226   2.097   5.252  0.00  0.00    +0.000 A 
ATOM     16  C   UNL     1      47.346   0.895   5.925  0.00  0.00    +0.000 A 
ATOM     17  N   UNL     1      46.999   0.720   7.218  0.00  0.00    +0.000 NA
ATOM     18  C   UNL     1      46.512   1.799   7.869  0.00  0.00    +0.000 A 
ENDBRANCH  12  13
ENDBRANCH  11  12
ENDBRANCH   9  11
ENDBRANCH   8   9
ENDBRANCH   1   8
BRANCH   4  19
ATOM     19  C   UNL     1      48.186   6.349  14.558  0.00  0.00    +0.000 C 
ATOM     20  C   UNL     1      49.094   6.688  15.265  0.00  0.00    +0.000 C 
BRANCH  20  21
ATOM     21  C   UNL     1      50.202   7.032  16.154  0.00  0.00    +0.000 C 
BRANCH  21  22
ATOM     22  O   UNL     1      50.021   6.417  17.427  0.00  0.00    +0.000 OA
BRANCH  22  23
ATOM     23  C   UNL     1      50.076   5.047  17.432  0.00  0.00    +0.000 A 
ATOM     24  C   UNL     1      48.971   4.192  17.398  0.00  0.00    +0.000 A 
ATOM     25  C   UNL     1      49.147   2.808  17.414  0.00  0.00    +0.000 A 
ATOM     26  C   UNL     1      50.430   2.268  17.457  0.00  0.00    +0.000 A 
ATOM     27  C   UNL     1      51.538   3.113  17.490  0.00  0.00    +0.000 A 
ATOM     28  C   UNL     1      51.360   4.499  17.477  0.00  0.00    +0.000 A 
ENDBRANCH  22  23
ENDBRANCH  21  22
ENDBRANCH  20  21
ENDBRANCH   4  19
TORSDOF 9
ENDMDL
MODEL 2
REMARK VINA RESULT:    -7.341      3.109      9.194
REMARK INTER + INTRA:         -12.011
REMARK INTER:                 -11.187
REMARK INTRA:                  -0.824
REMARK UNBOUND:                -0.807
REMARK  Name = 
REMARK  10 active torsions:
REMARK  status: ('A' for Active; 'I' for Inactive)
REMARK    1  A    between atoms: C_1  and  C_2
REMARK    2  A    between atoms: C_2  and  N_3
REMARK    3  A    between atoms: C_2  and  C_12
REMARK    4  A    between atoms: N_3  and  C_4
REMARK    5  A    between atoms: C_4  and  C_5
REMARK    6  A    between atoms: C_5  and  C_6
REMARK    7  A    between atoms: C_15  and  C_16
REMARK    8  A    between atoms: C_17  and  C_18
REMARK    9  A    between atoms: C_18  and  O_19
REMARK   10  A    between atoms: O_19  and  C_20
REMARK                            x       y       z     vdW  Elec       q    Type
REMARK                         _______ _______ _______ _____ _____    ______ ____
ROOT
ATOM      1  C   UNL     1      48.472   6.837  14.346  0.00  0.00    +0.000 A 
ATOM      2  C   UNL     1      48.204   7.551  13.174  0.00  0.00    +0.000 A 
ATOM      3  C   UNL     1      47.341   7.039  12.217  0.00  0.00    +0.000 A 
ATOM      4  C   UNL     1      46.670   5.860  12.492  0.00  0.00    +0.000 A 
ATOM      5  C   UNL     1      46.909   5.242  13.705  0.00  0.00    +0.000 A 
ATOM      6  N   UNL     1      47.804   5.687  14.620  0.00  0.00    +0.000 NA
ENDROOT
BRANCH   1   8
ATOM      7  C   UNL     1      48.829   8.002  16.580  0.00  0.00    +0.000 C 
ATOM      8  C   UNL     1      49.505   7.339  15.364  0.00  0.00    +0.000 C 
BRANCH   8   9
ATOM      9  N   UNL     1      50.417   6.306  15.911  0.00  0.00    +0.000 NA
ATOM     10  H   UNL     1      51.379   6.620  15.766  0.00  0.00    +0.000 HD
BRANCH   9  11
ATOM     11  C   UNL     1      50.234   5.933  17.315  0.00  0.00    +0.000 C 
BRANCH  11  12
ATOM     12  C   UNL     1      49.597   4.543  17.534  0.00  0.00    +0.000 C 
BRANCH  12  13
ATOM     13  C   UNL     1      50.607   3.425  17.575  0.00  0.00    +0.000 A 
ATOM     14  C   UNL     1      51.899   3.617  18.080  0.00  0.00    +0.000 A 
ATOM     15  C   UNL     1      52.793   2.552  18.110  0.00  0.00    +0.000 A 
ATOM     16  C   UNL     1      52.366   1.326  17.633  0.00  0.00    +0.000 A 
ATOM     17  N   UNL     1      51.129   1.101  17.141  0.00  0.00    +0.000 NA
ATOM     18  C   UNL     1      50.279   2.150  17.128  0.00  0.00    +0.000 A 
ENDBRANCH  12  13
ENDBRANCH  11  12
ENDBRANCH   9  11
ENDBRANCH   8   9
ENDBRANCH   1   8
BRANCH   4  19
ATOM     19  C   UNL     1      45.751   5.343  11.553  0.00  0.00    +0.000 C 
ATOM     20  C   UNL     1      44.938   4.916  10.781  0.00  0.00    +0.000 C 
BRANCH  20  21
ATOM     21  C   UNL     1      43.921   4.354   9.893  0.00  0.00    +0.000 C 
BRANCH  21  22
ATOM     22  O   UNL     1      44.242   3.001   9.573  0.00  0.00    +0.000 OA
BRANCH  22  23
ATOM     23  C   UNL     1      45.213   2.837   8.619  0.00  0.00    +0.000 A 
ATOM     24  C   UNL     1      45.636   3.818   7.716  0.00  0.00    +0.000 A 
ATOM     25  C   UNL     1      46.632   3.535   6.781  0.00  0.00    +0.000 A 
ATOM     26  C   UNL     1      47.217   2.271   6.745  0.00  0.00    +0.000 A 
ATOM     27  C   UNL     1      46.803   1.288   7.642  0.00  0.00    +0.000 A 
ATOM     28  C   UNL     1      45.803   1.572   8.576  0.00  0.00    +0.000 A 
ENDBRANCH  22  23
ENDBRANCH  21  22
ENDBRANCH  20  21
ENDBRANCH   4  19
TORSDOF 9
ENDMDL
MODEL 3
REMARK VINA RESULT:    -7.331      3.219      9.070
REMARK INTER + INTRA:         -11.996
REMARK INTER:                 -10.695
REMARK INTRA:                  -1.301
REMARK UNBOUND:                -0.807
REMARK  Name = 
REMARK  10 active torsions:
REMARK  status: ('A' for Active; 'I' for Inactive)
REMARK    1  A    between atoms: C_1  and  C_2
REMARK    2  A    between atoms: C_2  and  N_3
REMARK    3  A    between atoms: C_2  and  C_12
REMARK    4  A    between atoms: N_3  and  C_4
REMARK    5  A    between atoms: C_4  and  C_5
REMARK    6  A    between atoms: C_5  and  C_6
REMARK    7  A    between atoms: C_15  and  C_16
REMARK    8  A    between atoms: C_17  and  C_18
REMARK    9  A    between atoms: C_18  and  O_19
REMARK   10  A    between atoms: O_19  and  C_20
REMARK                            x       y       z     vdW  Elec       q    Type
REMARK                         _______ _______ _______ _____ _____    ______ ____
ROOT
ATOM      1  C   UNL     1      48.516   6.896  14.252  0.00  0.00    +0.000 A 
ATOM      2  C   UNL     1      48.213   7.514  13.035  0.00  0.00    +0.000 A 
ATOM      3  C   UNL     1      47.346   6.914  12.135  0.00  0.00    +0.000 A 
ATOM      4  C   UNL     1      46.707   5.744  12.510  0.00  0.00    +0.000 A 
ATOM      5  C   UNL     1      46.980   5.225  13.761  0.00  0.00    +0.000 A 
ATOM      6  N   UNL     1      47.880   5.756  14.623  0.00  0.00    +0.000 NA
ENDROOT
BRANCH   1   8
ATOM      7  C   UNL     1      48.891   8.368  16.294  0.00  0.00    +0.000 C 
ATOM      8  C   UNL     1      49.554   7.496  15.211  0.00  0.00    +0.000 C 
BRANCH   8   9
ATOM      9  N   UNL     1      50.400   6.514  15.931  0.00  0.00    +0.000 NA
ATOM     10  H   UNL     1      51.262   6.382  15.398  0.00  0.00    +0.000 HD
BRANCH   9  11
ATOM     11  C   UNL     1      50.732   6.819  17.325  0.00  0.00    +0.000 C 
BRANCH  11  12
ATOM     12  C   UNL     1      50.507   5.650  18.310  0.00  0.00    +0.000 C 
BRANCH  12  13
ATOM     13  C   UNL     1      49.342   4.772  17.936  0.00  0.00    +0.000 A 
ATOM     14  C   UNL     1      49.527   3.497  17.385  0.00  0.00    +0.000 A 
ATOM     15  C   UNL     1      48.421   2.716  17.067  0.00  0.00    +0.000 A 
ATOM     16  C   UNL     1      47.162   3.235  17.311  0.00  0.00    +0.000 A 
ATOM     17  N   UNL     1      46.943   4.457  17.842  0.00  0.00    +0.000 NA
ATOM     18  C   UNL     1      48.033   5.192  18.146  0.00  0.00    +0.000 A 
ENDBRANCH  12  13
ENDBRANCH  11  12
ENDBRANCH   9  11
ENDBRANCH   8   9
ENDBRANCH   1   8
BRANCH   4  19
ATOM     19  C   UNL     1      45.784   5.137  11.628  0.00  0.00    +0.000 C 
ATOM     20  C   UNL     1      44.993   4.662  10.863  0.00  0.00    +0.000 C 
BRANCH  20  21
ATOM     21  C   UNL     1      43.977   4.126   9.958  0.00  0.00    +0.000 C 
BRANCH  21  22
ATOM     22  O   UNL     1      44.409   4.250   8.605  0.00  0.00    +0.000 OA
BRANCH  22  23
ATOM     23  C   UNL     1      45.327   3.319   8.192  0.00  0.00    +0.000 A 
ATOM     24  C   UNL     1      45.323   1.966   8.545  0.00  0.00    +0.000 A 
ATOM     25  C   UNL     1      46.315   1.109   8.069  0.00  0.00    +0.000 A 
ATOM     26  C   UNL     1      47.316   1.596   7.231  0.00  0.00    +0.000 A 
ATOM     27  C   UNL     1      47.327   2.943   6.874  0.00  0.00    +0.000 A 
ATOM     28  C   UNL     1      46.334   3.801   7.353  0.00  0.00    +0.000 A 
ENDBRANCH  22  23
ENDBRANCH  21  22
ENDBRANCH  20  21
ENDBRANCH   4  19
TORSDOF 9
ENDMDL
MODEL 4
REMARK VINA RESULT:    -7.278      1.822      2.492
REMARK INTER + INTRA:         -11.914
REMARK INTER:                 -10.909
REMARK INTRA:                  -1.005
REMARK UNBOUND:                -0.807
REMARK  Name = 
REMARK  10 active torsions:
REMARK  status: ('A' for Active; 'I' for Inactive)
REMARK    1  A    between atoms: C_1  and  C_2
REMARK    2  A    between atoms: C_2  and  N_3
REMARK    3  A    between atoms: C_2  and  C_12
REMARK    4  A    between atoms: N_3  and  C_4
REMARK    5  A    between atoms: C_4  and  C_5
REMARK    6  A    between atoms: C_5  and  C_6
REMARK    7  A    between atoms: C_15  and  C_16
REMARK    8  A    between atoms: C_17  and  C_18
REMARK    9  A    between atoms: C_18  and  O_19
REMARK   10  A    between atoms: O_19  and  C_20
REMARK                            x       y       z     vdW  Elec       q    Type
REMARK                         _______ _______ _______ _____ _____    ______ ____
ROOT
ATOM      1  C   UNL     1      44.939   5.211  11.907  0.00  0.00    +0.000 A 
ATOM      2  C   UNL     1      45.702   6.257  11.380  0.00  0.00    +0.000 A 
ATOM      3  C   UNL     1      46.783   6.766  12.084  0.00  0.00    +0.000 A 
ATOM      4  C   UNL     1      47.154   6.149  13.266  0.00  0.00    +0.000 A 
ATOM      5  C   UNL     1      46.414   5.063  13.695  0.00  0.00    +0.000 A 
ATOM      6  N   UNL     1      45.310   4.600  13.060  0.00  0.00    +0.000 NA
ENDROOT
BRANCH   1   8
ATOM      7  C   UNL     1      42.417   5.452  11.671  0.00  0.00    +0.000 C 
ATOM      8  C   UNL     1      43.677   4.709  11.190  0.00  0.00    +0.000 C 
BRANCH   8   9
ATOM      9  N   UNL     1      43.692   4.832   9.712  0.00  0.00    +0.000 NA
ATOM     10  H   UNL     1      44.121   5.728   9.470  0.00  0.00    +0.000 HD
BRANCH   9  11
ATOM     11  C   UNL     1      44.349   3.760   8.963  0.00  0.00    +0.000 C 
BRANCH  11  12
ATOM     12  C   UNL     1      45.650   4.181   8.243  0.00  0.00    +0.000 C 
BRANCH  12  13
ATOM     13  C   UNL     1      46.271   3.070   7.437  0.00  0.00    +0.000 A 
ATOM     14  C   UNL     1      46.761   3.285   6.143  0.00  0.00    +0.000 A 
ATOM     15  C   UNL     1      47.339   2.231   5.441  0.00  0.00    +0.000 A 
ATOM     16  C   UNL     1      47.409   0.995   6.058  0.00  0.00    +0.000 A 
ATOM     17  N   UNL     1      46.950   0.750   7.304  0.00  0.00    +0.000 NA
ATOM     18  C   UNL     1      46.399   1.791   7.965  0.00  0.00    +0.000 A 
ENDBRANCH  12  13
ENDBRANCH  11  12
ENDBRANCH   9  11
ENDBRANCH   8   9
ENDBRANCH   1   8
BRANCH   4  19
ATOM     19  C   UNL     1      48.280   6.620  13.978  0.00  0.00    +0.000 C 
ATOM     20  C   UNL     1      49.210   7.027  14.618  0.00  0.00    +0.000 C 
BRANCH  20  21
ATOM     21  C   UNL     1      50.307   7.584  15.407  0.00  0.00    +0.000 C 
BRANCH  21  22
ATOM     22  O   UNL     1      50.308   7.019  16.716  0.00  0.00    +0.000 OA
BRANCH  22  23
ATOM     23  C   UNL     1      49.276   7.414  17.528  0.00  0.00    +0.000 A 
ATOM     24  C   UNL     1      48.456   6.558  18.270  0.00  0.00    +0.000 A 
ATOM     25  C   UNL     1      47.428   7.074  19.060  0.00  0.00    +0.000 A 
ATOM     26  C   UNL     1      47.217   8.449  19.120  0.00  0.00    +0.000 A 
ATOM     27  C   UNL     1      48.030   9.310  18.385  0.00  0.00    +0.000 A 
ATOM     28  C   UNL     1      49.057   8.792  17.592  0.00  0.00    +0.000 A 
ENDBRANCH  22  23
ENDBRANCH  21  22
ENDBRANCH  20  21
ENDBRANCH   4  19
TORSDOF 9
ENDMDL
MODEL 5
REMARK VINA RESULT:    -7.039      3.207      9.138
REMARK INTER + INTRA:         -11.550
REMARK INTER:                 -10.380
REMARK INTRA:                  -1.170
REMARK UNBOUND:                -0.807
REMARK  Name = 
REMARK  10 active torsions:
REMARK  status: ('A' for Active; 'I' for Inactive)
REMARK    1  A    between atoms: C_1  and  C_2
REMARK    2  A    between atoms: C_2  and  N_3
REMARK    3  A    between atoms: C_2  and  C_12
REMARK    4  A    between atoms: N_3  and  C_4
REMARK    5  A    between atoms: C_4  and  C_5
REMARK    6  A    between atoms: C_5  and  C_6
REMARK    7  A    between atoms: C_15  and  C_16
REMARK    8  A    between atoms: C_17  and  C_18
REMARK    9  A    between atoms: C_18  and  O_19
REMARK   10  A    between atoms: O_19  and  C_20
REMARK                            x       y       z     vdW  Elec       q    Type
REMARK                         _______ _______ _______ _____ _____    ______ ____
ROOT
ATOM      1  C   UNL     1      48.189   6.708  14.501  0.00  0.00    +0.000 A 
ATOM      2  C   UNL     1      47.550   5.478  14.684  0.00  0.00    +0.000 A 
ATOM      3  C   UNL     1      46.678   4.986  13.726  0.00  0.00    +0.000 A 
ATOM      4  C   UNL     1      46.534   5.685  12.539  0.00  0.00    +0.000 A 
ATOM      5  C   UNL     1      47.258   6.851  12.378  0.00  0.00    +0.000 A 
ATOM      6  N   UNL     1      48.056   7.387  13.333  0.00  0.00    +0.000 NA
ENDROOT
BRANCH   1   8
ATOM      7  C   UNL     1      49.475   8.766  15.269  0.00  0.00    +0.000 C 
ATOM      8  C   UNL     1      49.074   7.315  15.599  0.00  0.00    +0.000 C 
BRANCH   8   9
ATOM      9  N   UNL     1      48.474   7.350  16.955  0.00  0.00    +0.000 NA
ATOM     10  H   UNL     1      47.821   6.568  17.036  0.00  0.00    +0.000 HD
BRANCH   9  11
ATOM     11  C   UNL     1      49.398   7.331  18.091  0.00  0.00    +0.000 C 
BRANCH  11  12
ATOM     12  C   UNL     1      49.285   6.080  18.991  0.00  0.00    +0.000 C 
BRANCH  12  13
ATOM     13  C   UNL     1      48.988   4.819  18.223  0.00  0.00    +0.000 A 
ATOM     14  C   UNL     1      47.692   4.293  18.142  0.00  0.00    +0.000 A 
ATOM     15  C   UNL     1      47.463   3.132  17.409  0.00  0.00    +0.000 A 
ATOM     16  C   UNL     1      48.540   2.534  16.779  0.00  0.00    +0.000 A 
ATOM     17  N   UNL     1      49.801   3.012  16.831  0.00  0.00    +0.000 NA
ATOM     18  C   UNL     1      49.995   4.142  17.544  0.00  0.00    +0.000 A 
ENDBRANCH  12  13
ENDBRANCH  11  12
ENDBRANCH   9  11
ENDBRANCH   8   9
ENDBRANCH   1   8
BRANCH   4  19
ATOM     19  C   UNL     1      45.686   5.180  11.528  0.00  0.00    +0.000 C 
ATOM     20  C   UNL     1      44.936   4.782  10.681  0.00  0.00    +0.000 C 
BRANCH  20  21
ATOM     21  C   UNL     1      43.973   4.284   9.701  0.00  0.00    +0.000 C 
BRANCH  21  22
ATOM     22  O   UNL     1      44.265   2.927   9.370  0.00  0.00    +0.000 OA
BRANCH  22  23
ATOM     23  C   UNL     1      45.269   2.748   8.453  0.00  0.00    +0.000 A 
ATOM     24  C   UNL     1      45.704   3.705   7.531  0.00  0.00    +0.000 A 
ATOM     25  C   UNL     1      46.734   3.409   6.638  0.00  0.00    +0.000 A 
ATOM     26  C   UNL     1      47.342   2.156   6.665  0.00  0.00    +0.000 A 
ATOM     27  C   UNL     1      46.916   1.197   7.582  0.00  0.00    +0.000 A 
ATOM     28  C   UNL     1      45.882   1.494   8.474  0.00  0.00    +0.000 A 
ENDBRANCH  22  23
ENDBRANCH  21  22
ENDBRANCH  20  21
ENDBRANCH   4  19
TORSDOF 9
ENDMDL
MODEL 6
REMARK VINA RESULT:    -6.964      3.012      4.192
REMARK INTER + INTRA:         -11.435
REMARK INTER:                 -10.569
REMARK INTRA:                  -0.866
REMARK UNBOUND:                -0.807
REMARK  Name = 
REMARK  10 active torsions:
REMARK  status: ('A' for Active; 'I' for Inactive)
REMARK    1  A    between atoms: C_1  and  C_2
REMARK    2  A    between atoms: C_2  and  N_3
REMARK    3  A    between atoms: C_2  and  C_12
REMARK    4  A    between atoms: N_3  and  C_4
REMARK    5  A    between atoms: C_4  and  C_5
REMARK    6  A    between atoms: C_5  and  C_6
REMARK    7  A    between atoms: C_15  and  C_16
REMARK    8  A    between atoms: C_17  and  C_18
REMARK    9  A    between atoms: C_18  and  O_19
REMARK   10  A    between atoms: O_19  and  C_20
REMARK                            x       y       z     vdW  Elec       q    Type
REMARK                         _______ _______ _______ _____ _____    ______ ____
ROOT
ATOM      1  C   UNL     1      45.147   4.631  12.581  0.00  0.00    +0.000 A 
ATOM      2  C   UNL     1      45.553   5.718  11.802  0.00  0.00    +0.000 A 
ATOM      3  C   UNL     1      46.648   6.483  12.174  0.00  0.00    +0.000 A 
ATOM      4  C   UNL     1      47.392   6.085  13.272  0.00  0.00    +0.000 A 
ATOM      5  C   UNL     1      46.993   4.951  13.954  0.00  0.00    +0.000 A 
ATOM      6  N   UNL     1      45.883   4.235  13.650  0.00  0.00    +0.000 NA
ENDROOT
BRANCH   1   8
ATOM      7  C   UNL     1      42.820   4.730  11.556  0.00  0.00    +0.000 C 
ATOM      8  C   UNL     1      43.875   3.841  12.240  0.00  0.00    +0.000 C 
BRANCH   8   9
ATOM      9  N   UNL     1      44.070   2.671  11.350  0.00  0.00    +0.000 NA
ATOM     10  H   UNL     1      43.241   2.077  11.416  0.00  0.00    +0.000 HD
BRANCH   9  11
ATOM     11  C   UNL     1      44.359   2.949   9.941  0.00  0.00    +0.000 C 
BRANCH  11  12
ATOM     12  C   UNL     1      44.806   1.718   9.121  0.00  0.00    +0.000 C 
BRANCH  12  13
ATOM     13  C   UNL     1      45.900   2.027   8.134  0.00  0.00    +0.000 A 
ATOM     14  C   UNL     1      46.036   3.297   7.557  0.00  0.00    +0.000 A 
ATOM     15  C   UNL     1      47.070   3.540   6.659  0.00  0.00    +0.000 A 
ATOM     16  C   UNL     1      47.939   2.504   6.367  0.00  0.00    +0.000 A 
ATOM     17  N   UNL     1      47.843   1.269   6.903  0.00  0.00    +0.000 NA
ATOM     18  C   UNL     1      46.834   1.061   7.776  0.00  0.00    +0.000 A 
ENDBRANCH  12  13
ENDBRANCH  11  12
ENDBRANCH   9  11
ENDBRANCH   8   9
ENDBRANCH   1   8
BRANCH   4  19
ATOM     19  C   UNL     1      48.539   6.822  13.644  0.00  0.00    +0.000 C 
ATOM     20  C   UNL     1      49.531   7.436  13.923  0.00  0.00    +0.000 C 
BRANCH  20  21
ATOM     21  C   UNL     1      50.778   8.122  14.255  0.00  0.00    +0.000 C 
BRANCH  21  22
ATOM     22  O   UNL     1      51.162   8.989  13.189  0.00  0.00    +0.000 OA
BRANCH  22  23
ATOM     23  C   UNL     1      51.953   8.422  12.224  0.00  0.00    +0.000 A 
ATOM     24  C   UNL     1      53.331   8.206  12.330  0.00  0.00    +0.000 A 
ATOM     25  C   UNL     1      54.037   7.624  11.277  0.00  0.00    +0.000 A 
ATOM     26  C   UNL     1      53.372   7.247  10.114  0.00  0.00    +0.000 A 
ATOM     27  C   UNL     1      51.999   7.456  10.000  0.00  0.00    +0.000 A 
ATOM     28  C   UNL     1      51.292   8.041  11.054  0.00  0.00    +0.000 A 
ENDBRANCH  22  23
ENDBRANCH  21  22
ENDBRANCH  20  21
ENDBRANCH   4  19
TORSDOF 9
ENDMDL
MODEL 7
REMARK VINA RESULT:    -6.957      3.703      5.020
REMARK INTER + INTRA:         -11.424
REMARK INTER:                 -10.377
REMARK INTRA:                  -1.048
REMARK UNBOUND:                -0.807
REMARK  Name = 
REMARK  10 active torsions:
REMARK  status: ('A' for Active; 'I' for Inactive)
REMARK    1  A    between atoms: C_1  and  C_2
REMARK    2  A    between atoms: C_2  and  N_3
REMARK    3  A    between atoms: C_2  and  C_12
REMARK    4  A    between atoms: N_3  and  C_4
REMARK    5  A    between atoms: C_4  and  C_5
REMARK    6  A    between atoms: C_5  and  C_6
REMARK    7  A    between atoms: C_15  and  C_16
REMARK    8  A    between atoms: C_17  and  C_18
REMARK    9  A    between atoms: C_18  and  O_19
REMARK   10  A    between atoms: O_19  and  C_20
REMARK                            x       y       z     vdW  Elec       q    Type
REMARK                         _______ _______ _______ _____ _____    ______ ____
ROOT
ATOM      1  C   UNL     1      45.269   5.192  12.243  0.00  0.00    +0.000 A 
ATOM      2  C   UNL     1      45.405   6.261  11.352  0.00  0.00    +0.000 A 
ATOM      3  C   UNL     1      46.527   7.075  11.392  0.00  0.00    +0.000 A 
ATOM      4  C   UNL     1      47.555   6.744  12.258  0.00  0.00    +0.000 A 
ATOM      5  C   UNL     1      47.402   5.625  13.054  0.00  0.00    +0.000 A 
ATOM      6  N   UNL     1      46.282   4.862  13.083  0.00  0.00    +0.000 NA
ENDROOT
BRANCH   1   8
ATOM      7  C   UNL     1      42.872   5.046  13.085  0.00  0.00    +0.000 C 
ATOM      8  C   UNL     1      43.986   4.349  12.282  0.00  0.00    +0.000 C 
BRANCH   8   9
ATOM      9  N   UNL     1      43.400   4.018  10.961  0.00  0.00    +0.000 NA
ATOM     10  H   UNL     1      43.214   4.893  10.466  0.00  0.00    +0.000 HD
BRANCH   9  11
ATOM     11  C   UNL     1      44.173   3.124  10.096  0.00  0.00    +0.000 C 
BRANCH  11  12
ATOM     12  C   UNL     1      44.682   3.774   8.790  0.00  0.00    +0.000 C 
BRANCH  12  13
ATOM     13  C   UNL     1      45.702   2.935   8.066  0.00  0.00    +0.000 A 
ATOM     14  C   UNL     1      46.459   3.448   7.005  0.00  0.00    +0.000 A 
ATOM     15  C   UNL     1      47.400   2.639   6.375  0.00  0.00    +0.000 A 
ATOM     16  C   UNL     1      47.554   1.341   6.827  0.00  0.00    +0.000 A 
ATOM     17  N   UNL     1      46.846   0.812   7.847  0.00  0.00    +0.000 NA
ATOM     18  C   UNL     1      45.944   1.620   8.445  0.00  0.00    +0.000 A 
ENDBRANCH  12  13
ENDBRANCH  11  12
ENDBRANCH   9  11
ENDBRANCH   8   9
ENDBRANCH   1   8
BRANCH   4  19
ATOM     19  C   UNL     1      48.728   7.531  12.284  0.00  0.00    +0.000 C 
ATOM     20  C   UNL     1      49.739   8.174  12.339  0.00  0.00    +0.000 C 
BRANCH  20  21
ATOM     21  C   UNL     1      50.956   8.972  12.475  0.00  0.00    +0.000 C 
BRANCH  21  22
ATOM     22  O   UNL     1      52.088   8.221  12.040  0.00  0.00    +0.000 OA
BRANCH  22  23
ATOM     23  C   UNL     1      52.367   8.301  10.700  0.00  0.00    +0.000 A 
ATOM     24  C   UNL     1      52.659   9.477  10.002  0.00  0.00    +0.000 A 
ATOM     25  C   UNL     1      52.922   9.438   8.633  0.00  0.00    +0.000 A 
ATOM     26  C   UNL     1      52.901   8.224   7.951  0.00  0.00    +0.000 A 
ATOM     27  C   UNL     1      52.612   7.047   8.639  0.00  0.00    +0.000 A 
ATOM     28  C   UNL     1      52.347   7.087  10.010  0.00  0.00    +0.000 A 
ENDBRANCH  22  23
ENDBRANCH  21  22
ENDBRANCH  20  21
ENDBRANCH   4  19
TORSDOF 9
ENDMDL
MODEL 8
REMARK VINA RESULT:    -6.685      3.421      9.678
REMARK INTER + INTRA:         -11.009
REMARK INTER:                 -10.220
REMARK INTRA:                  -0.789
REMARK UNBOUND:                -0.807
REMARK  Name = 
REMARK  10 active torsions:
REMARK  status: ('A' for Active; 'I' for Inactive)
REMARK    1  A    between atoms: C_1  and  C_2
REMARK    2  A    between atoms: C_2  and  N_3
REMARK    3  A    between atoms: C_2  and  C_12
REMARK    4  A    between atoms: N_3  and  C_4
REMARK    5  A    between atoms: C_4  and  C_5
REMARK    6  A    between atoms: C_5  and  C_6
REMARK    7  A    between atoms: C_15  and  C_16
REMARK    8  A    between atoms: C_17  and  C_18
REMARK    9  A    between atoms: C_18  and  O_19
REMARK   10  A    between atoms: O_19  and  C_20
REMARK                            x       y       z     vdW  Elec       q    Type
REMARK                         _______ _______ _______ _____ _____    ______ ____
ROOT
ATOM      1  C   UNL     1      47.716   5.398  15.355  0.00  0.00    +0.000 A 
ATOM      2  C   UNL     1      47.791   6.319  14.305  0.00  0.00    +0.000 A 
ATOM      3  C   UNL     1      47.128   6.084  13.111  0.00  0.00    +0.000 A 
ATOM      4  C   UNL     1      46.305   4.974  13.017  0.00  0.00    +0.000 A 
ATOM      5  C   UNL     1      46.202   4.144  14.117  0.00  0.00    +0.000 A 
ATOM      6  N   UNL     1      46.901   4.316  15.266  0.00  0.00    +0.000 NA
ENDROOT
BRANCH   1   8
ATOM      7  C   UNL     1      47.782   5.050  17.875  0.00  0.00    +0.000 C 
ATOM      8  C   UNL     1      48.530   5.592  16.642  0.00  0.00    +0.000 C 
BRANCH   8   9
ATOM      9  N   UNL     1      49.867   4.951  16.654  0.00  0.00    +0.000 NA
ATOM     10  H   UNL     1      50.559   5.648  16.373  0.00  0.00    +0.000 HD
BRANCH   9  11
ATOM     11  C   UNL     1      50.291   4.323  17.908  0.00  0.00    +0.000 C 
BRANCH  11  12
ATOM     12  C   UNL     1      51.818   4.325  18.143  0.00  0.00    +0.000 C 
BRANCH  12  13
ATOM     13  C   UNL     1      52.414   2.942  18.193  0.00  0.00    +0.000 A 
ATOM     14  C   UNL     1      51.838   1.866  17.507  0.00  0.00    +0.000 A 
ATOM     15  C   UNL     1      52.431   0.609  17.571  0.00  0.00    +0.000 A 
ATOM     16  C   UNL     1      53.585   0.469  18.321  0.00  0.00    +0.000 A 
ATOM     17  N   UNL     1      54.172   1.482  18.994  0.00  0.00    +0.000 NA
ATOM     18  C   UNL     1      53.578   2.692  18.910  0.00  0.00    +0.000 A 
ENDBRANCH  12  13
ENDBRANCH  11  12
ENDBRANCH   9  11
ENDBRANCH   8   9
ENDBRANCH   1   8
BRANCH   4  19
ATOM     19  C   UNL     1      45.583   4.737  11.826  0.00  0.00    +0.000 C 
ATOM     20  C   UNL     1      44.988   4.497  10.813  0.00  0.00    +0.000 C 
BRANCH  20  21
ATOM     21  C   UNL     1      44.326   4.192   9.545  0.00  0.00    +0.000 C 
BRANCH  21  22
ATOM     22  O   UNL     1      44.482   2.811   9.228  0.00  0.00    +0.000 OA
BRANCH  22  23
ATOM     23  C   UNL     1      45.471   2.523   8.323  0.00  0.00    +0.000 A 
ATOM     24  C   UNL     1      46.148   1.304   8.222  0.00  0.00    +0.000 A 
ATOM     25  C   UNL     1      47.145   1.126   7.263  0.00  0.00    +0.000 A 
ATOM     26  C   UNL     1      47.467   2.164   6.391  0.00  0.00    +0.000 A 
ATOM     27  C   UNL     1      46.796   3.381   6.482  0.00  0.00    +0.000 A 
ATOM     28  C   UNL     1      45.800   3.559   7.446  0.00  0.00    +0.000 A 
ENDBRANCH  22  23
ENDBRANCH  21  22
ENDBRANCH  20  21
ENDBRANCH   4  19
TORSDOF 9
ENDMDL
