MODEL 1
REMARK VINA RESULT:    -5.991      0.000      0.000
REMARK INTER + INTRA:          -9.130
REMARK INTER:                  -8.093
REMARK INTRA:                  -1.037
REMARK UNBOUND:                -1.037
REMARK  Name = 
REMARK  8 active torsions:
REMARK  status: ('A' for Active; 'I' for Inactive)
REMARK    1  A    between atoms: C_1  and  C_2
REMARK    2  A    between atoms: C_2  and  C_3
REMARK    3  A    between atoms: C_3  and  N_4
REMARK    4  A    between atoms: N_4  and  C_5
REMARK    5  A    between atoms: C_8  and  C_9
REMARK    6  A    between atoms: C_12  and  C_13
REMARK    7  A    between atoms: C_13  and  N_14
REMARK    8  A    between atoms: C_19  and  C_20
REMARK                            x       y       z     vdW  Elec       q    Type
REMARK                         _______ _______ _______ _____ _____    ______ ____
ROOT
ATOM      1  C   UNL     1      44.601   3.065   9.708  0.00  0.00    +0.000 A 
ATOM      2  C   UNL     1      44.739   1.737   9.261  0.00  0.00    +0.000 A 
ATOM      3  C   UNL     1      45.662   1.372   8.275  0.00  0.00    +0.000 A 
ATOM      4  C   UNL     1      46.458   2.342   7.678  0.00  0.00    +0.000 A 
ATOM      5  C   UNL     1      46.340   3.669   8.093  0.00  0.00    +0.000 A 
ATOM      6  C   UNL     1      45.432   4.044   9.112  0.00  0.00    +0.000 A 
ENDROOT
BRANCH   1   7
ATOM      7  N   UNL     1      43.576   3.419  10.602  0.00  0.00    +0.000 N 
ATOM      8  H   UNL     1      43.140   4.311  10.389  0.00  0.00    +0.000 HD
BRANCH   7   9
ATOM      9  C   UNL     1      43.809   3.259  12.039  0.00  0.00    +0.000 C 
BRANCH   9  11
ATOM     10  C   UNL     1      42.477   5.391  11.863  0.00  0.00    +0.000 C 
ATOM     11  C   UNL     1      43.260   4.473  12.790  0.00  0.00    +0.000 C 
ENDBRANCH   9  11
ENDBRANCH   7   9
ENDBRANCH   1   7
BRANCH   4  12
ATOM     12  C   UNL     1      47.384   1.982   6.644  0.00  0.00    +0.000 C 
ATOM     13  N   UNL     1      48.128   1.684   5.806  0.00  0.00    +0.000 NA
ENDBRANCH   4  12
BRANCH   6  14
ATOM     14  C   UNL     1      45.428   5.507   9.519  0.00  0.00    +0.000 C 
BRANCH  14  15
ATOM     15  N   UNL     1      46.172   5.682  10.758  0.00  0.00    +0.000 N 
ATOM     16  C   UNL     1      45.881   6.880  11.433  0.00  0.00    +0.000 A 
ATOM     17  C   UNL     1      46.543   7.138  12.629  0.00  0.00    +0.000 A 
ATOM     18  C   UNL     1      46.277   8.318  13.321  0.00  0.00    +0.000 A 
ATOM     19  C   UNL     1      45.349   9.212  12.804  0.00  0.00    +0.000 A 
ATOM     20  C   UNL     1      44.713   8.887  11.613  0.00  0.00    +0.000 A 
ATOM     21  C   UNL     1      43.703   9.812  11.003  0.00  0.00    +0.000 C 
ATOM     22  N   UNL     1      44.964   7.738  10.937  0.00  0.00    +0.000 NA
ATOM     23  H   UNL     1      47.174   5.619  10.599  0.00  0.00    +0.000 HD
ENDBRANCH  14  15
ENDBRANCH   6  14
TORSDOF 6
ENDMDL
MODEL 2
REMARK VINA RESULT:    -5.981      4.025      6.332
REMARK INTER + INTRA:          -9.116
REMARK INTER:                  -8.563
REMARK INTRA:                  -0.553
REMARK UNBOUND:                -1.037
REMARK  Name = 
REMARK  8 active torsions:
REMARK  status: ('A' for Active; 'I' for Inactive)
REMARK    1  A    between atoms: C_1  and  C_2
REMARK    2  A    between atoms: C_2  and  C_3
REMARK    3  A    between atoms: C_3  and  N_4
REMARK    4  A    between atoms: N_4  and  C_5
REMARK    5  A    between atoms: C_8  and  C_9
REMARK    6  A    between atoms: C_12  and  C_13
REMARK    7  A    between atoms: C_13  and  N_14
REMARK    8  A    between atoms: C_19  and  C_20
REMARK                            x       y       z     vdW  Elec       q    Type
REMARK                         _______ _______ _______ _____ _____    ______ ____
ROOT
ATOM      1  C   UNL     1      46.610   6.300  11.886  0.00  0.00    +0.000 A 
ATOM      2  C   UNL     1      45.767   6.132  10.771  0.00  0.00    +0.000 A 
ATOM      3  C   UNL     1      44.822   5.103  10.696  0.00  0.00    +0.000 A 
ATOM      4  C   UNL     1      44.715   4.184  11.732  0.00  0.00    +0.000 A 
ATOM      5  C   UNL     1      45.541   4.318  12.849  0.00  0.00    +0.000 A 
ATOM      6  C   UNL     1      46.478   5.373  12.948  0.00  0.00    +0.000 A 
ENDROOT
BRANCH   1   7
ATOM      7  N   UNL     1      47.635   7.260  11.873  0.00  0.00    +0.000 N 
ATOM      8  H   UNL     1      48.483   6.956  12.342  0.00  0.00    +0.000 HD
BRANCH   7   9
ATOM      9  C   UNL     1      47.305   8.649  12.196  0.00  0.00    +0.000 C 
BRANCH   9  11
ATOM     10  C   UNL     1      44.979   9.618  12.257  0.00  0.00    +0.000 C 
ATOM     11  C   UNL     1      45.976   8.702  12.951  0.00  0.00    +0.000 C 
ENDBRANCH   9  11
ENDBRANCH   7   9
ENDBRANCH   1   7
BRANCH   4  12
ATOM     12  C   UNL     1      43.770   3.108  11.651  0.00  0.00    +0.000 C 
ATOM     13  N   UNL     1      43.009   2.235  11.592  0.00  0.00    +0.000 NA
ENDBRANCH   4  12
BRANCH   6  14
ATOM     14  C   UNL     1      47.286   5.451  14.233  0.00  0.00    +0.000 C 
BRANCH  14  15
ATOM     15  N   UNL     1      46.779   4.488  15.199  0.00  0.00    +0.000 N 
ATOM     16  C   UNL     1      47.655   4.241  16.270  0.00  0.00    +0.000 A 
ATOM     17  C   UNL     1      47.259   3.334  17.248  0.00  0.00    +0.000 A 
ATOM     18  C   UNL     1      48.106   3.068  18.322  0.00  0.00    +0.000 A 
ATOM     19  C   UNL     1      49.329   3.720  18.398  0.00  0.00    +0.000 A 
ATOM     20  C   UNL     1      49.658   4.624  17.397  0.00  0.00    +0.000 A 
ATOM     21  C   UNL     1      50.965   5.358  17.421  0.00  0.00    +0.000 C 
ATOM     22  N   UNL     1      48.835   4.891  16.352  0.00  0.00    +0.000 NA
ATOM     23  H   UNL     1      46.537   3.608  14.752  0.00  0.00    +0.000 HD
ENDBRANCH  14  15
ENDBRANCH   6  14
TORSDOF 6
ENDMDL
MODEL 3
REMARK VINA RESULT:    -5.683      2.263      4.618
REMARK INTER + INTRA:          -8.713
REMARK INTER:                  -8.076
REMARK INTRA:                  -0.638
REMARK UNBOUND:                -1.037
REMARK  Name = 
REMARK  8 active torsions:
REMARK  status: ('A' for Active; 'I' for Inactive)
REMARK    1  A    between atoms: C_1  and  C_2
REMARK    2  A    between atoms: C_2  and  C_3
REMARK    3  A    between atoms: C_3  and  N_4
REMARK    4  A    between atoms: N_4  and  C_5
REMARK    5  A    between atoms: C_8  and  C_9
REMARK    6  A    between atoms: C_12  and  C_13
REMARK    7  A    between atoms: C_13  and  N_14
REMARK    8  A    between atoms: C_19  and  C_20
REMARK                            x       y       z     vdW  Elec       q    Type
REMARK                         _______ _______ _______ _____ _____    ______ ____
ROOT
ATOM      1  C   UNL     1      44.511   4.553  11.031  0.00  0.00    +0.000 A 
ATOM      2  C   UNL     1      45.053   3.355  11.535  0.00  0.00    +0.000 A 
ATOM      3  C   UNL     1      45.838   3.317  12.691  0.00  0.00    +0.000 A 
ATOM      4  C   UNL     1      46.135   4.495  13.365  0.00  0.00    +0.000 A 
ATOM      5  C   UNL     1      45.621   5.701  12.888  0.00  0.00    +0.000 A 
ATOM      6  C   UNL     1      44.799   5.746  11.737  0.00  0.00    +0.000 A 
ENDROOT
BRANCH   1   7
ATOM      7  N   UNL     1      43.839   4.575   9.798  0.00  0.00    +0.000 N 
ATOM      8  H   UNL     1      42.852   4.341   9.868  0.00  0.00    +0.000 HD
BRANCH   7   9
ATOM      9  C   UNL     1      44.466   3.933   8.641  0.00  0.00    +0.000 C 
BRANCH   9  11
ATOM     10  C   UNL     1      46.601   3.808   7.307  0.00  0.00    +0.000 C 
ATOM     11  C   UNL     1      45.828   4.574   8.370  0.00  0.00    +0.000 C 
ENDBRANCH   9  11
ENDBRANCH   7   9
ENDBRANCH   1   7
BRANCH   4  12
ATOM     12  C   UNL     1      46.966   4.470  14.535  0.00  0.00    +0.000 C 
ATOM     13  N   UNL     1      47.631   4.452  15.484  0.00  0.00    +0.000 NA
ENDBRANCH   4  12
BRANCH   6  14
ATOM     14  C   UNL     1      44.252   7.107  11.341  0.00  0.00    +0.000 C 
BRANCH  14  15
ATOM     15  N   UNL     1      45.157   8.156  11.785  0.00  0.00    +0.000 N 
ATOM     16  C   UNL     1      44.722   9.455  11.469  0.00  0.00    +0.000 A 
ATOM     17  C   UNL     1      45.521  10.528  11.853  0.00  0.00    +0.000 A 
ATOM     18  C   UNL     1      45.116  11.827  11.554  0.00  0.00    +0.000 A 
ATOM     19  C   UNL     1      43.917  12.026  10.883  0.00  0.00    +0.000 A 
ATOM     20  C   UNL     1      43.160  10.914  10.542  0.00  0.00    +0.000 A 
ATOM     21  C   UNL     1      41.858  11.062   9.814  0.00  0.00    +0.000 C 
ATOM     22  N   UNL     1      43.546   9.646  10.834  0.00  0.00    +0.000 NA
ATOM     23  H   UNL     1      46.095   8.016  11.416  0.00  0.00    +0.000 HD
ENDBRANCH  14  15
ENDBRANCH   6  14
TORSDOF 6
ENDMDL
MODEL 4
REMARK VINA RESULT:    -5.324      4.567      6.919
REMARK INTER + INTRA:          -8.228
REMARK INTER:                  -7.193
REMARK INTRA:                  -1.035
REMARK UNBOUND:                -1.037
REMARK  Name = 
REMARK  8 active torsions:
REMARK  status: ('A' for Active; 'I' for Inactive)
REMARK    1  A    between atoms: C_1  and  C_2
REMARK    2  A    between atoms: C_2  and  C_3
REMARK    3  A    between atoms: C_3  and  N_4
REMARK    4  A    between atoms: N_4  and  C_5
REMARK    5  A    between atoms: C_8  and  C_9
REMARK    6  A    between atoms: C_12  and  C_13
REMARK    7  A    between atoms: C_13  and  N_14
REMARK    8  A    between atoms: C_19  and  C_20
REMARK                            x       y       z     vdW  Elec       q    Type
REMARK                         _______ _______ _______ _____ _____    ______ ____
ROOT
ATOM      1  C   UNL     1      46.940   5.769  12.828  0.00  0.00    +0.000 A 
ATOM      2  C   UNL     1      46.063   6.060  11.765  0.00  0.00    +0.000 A 
ATOM      3  C   UNL     1      45.018   5.204  11.402  0.00  0.00    +0.000 A 
ATOM      4  C   UNL     1      44.840   4.003  12.078  0.00  0.00    +0.000 A 
ATOM      5  C   UNL     1      45.696   3.681  13.132  0.00  0.00    +0.000 A 
ATOM      6  C   UNL     1      46.737   4.555  13.527  0.00  0.00    +0.000 A 
ENDROOT
BRANCH   1   7
ATOM      7  N   UNL     1      48.056   6.584  13.082  0.00  0.00    +0.000 N 
ATOM      8  H   UNL     1      48.843   6.082  13.482  0.00  0.00    +0.000 HD
BRANCH   7   9
ATOM      9  C   UNL     1      47.850   7.878  13.734  0.00  0.00    +0.000 C 
BRANCH   9  11
ATOM     10  C   UNL     1      49.889   7.184  15.043  0.00  0.00    +0.000 C 
ATOM     11  C   UNL     1      48.539   7.884  15.099  0.00  0.00    +0.000 C 
ENDBRANCH   9  11
ENDBRANCH   7   9
ENDBRANCH   1   7
BRANCH   4  12
ATOM     12  C   UNL     1      43.790   3.104  11.692  0.00  0.00    +0.000 C 
ATOM     13  N   UNL     1      42.948   2.373  11.377  0.00  0.00    +0.000 NA
ENDBRANCH   4  12
BRANCH   6  14
ATOM     14  C   UNL     1      47.573   4.125  14.721  0.00  0.00    +0.000 C 
BRANCH  14  15
ATOM     15  N   UNL     1      47.034   4.705  15.941  0.00  0.00    +0.000 N 
ATOM     16  C   UNL     1      47.916   4.653  17.035  0.00  0.00    +0.000 A 
ATOM     17  C   UNL     1      47.491   5.184  18.248  0.00  0.00    +0.000 A 
ATOM     18  C   UNL     1      48.343   5.147  19.350  0.00  0.00    +0.000 A 
ATOM     19  C   UNL     1      49.604   4.585  19.213  0.00  0.00    +0.000 A 
ATOM     20  C   UNL     1      49.972   4.086  17.971  0.00  0.00    +0.000 A 
ATOM     21  C   UNL     1      51.320   3.464  17.759  0.00  0.00    +0.000 C 
ATOM     22  N   UNL     1      49.150   4.124  16.893  0.00  0.00    +0.000 NA
ATOM     23  H   UNL     1      46.151   4.271  16.199  0.00  0.00    +0.000 HD
ENDBRANCH  14  15
ENDBRANCH   6  14
TORSDOF 6
ENDMDL
MODEL 5
REMARK VINA RESULT:    -5.261      3.298      5.278
REMARK INTER + INTRA:          -8.143
REMARK INTER:                  -7.324
REMARK INTRA:                  -0.819
REMARK UNBOUND:                -1.037
REMARK  Name = 
REMARK  8 active torsions:
REMARK  status: ('A' for Active; 'I' for Inactive)
REMARK    1  A    between atoms: C_1  and  C_2
REMARK    2  A    between atoms: C_2  and  C_3
REMARK    3  A    between atoms: C_3  and  N_4
REMARK    4  A    between atoms: N_4  and  C_5
REMARK    5  A    between atoms: C_8  and  C_9
REMARK    6  A    between atoms: C_12  and  C_13
REMARK    7  A    between atoms: C_13  and  N_14
REMARK    8  A    between atoms: C_19  and  C_20
REMARK                            x       y       z     vdW  Elec       q    Type
REMARK                         _______ _______ _______ _____ _____    ______ ____
ROOT
ATOM      1  C   UNL     1      46.563   6.278  13.237  0.00  0.00    +0.000 A 
ATOM      2  C   UNL     1      46.651   4.936  13.654  0.00  0.00    +0.000 A 
ATOM      3  C   UNL     1      45.775   3.949  13.189  0.00  0.00    +0.000 A 
ATOM      4  C   UNL     1      44.755   4.287  12.309  0.00  0.00    +0.000 A 
ATOM      5  C   UNL     1      44.636   5.610  11.881  0.00  0.00    +0.000 A 
ATOM      6  C   UNL     1      45.535   6.610  12.321  0.00  0.00    +0.000 A 
ENDROOT
BRANCH   1   7
ATOM      7  N   UNL     1      47.371   7.267  13.822  0.00  0.00    +0.000 N 
ATOM      8  H   UNL     1      47.046   8.214  13.649  0.00  0.00    +0.000 HD
BRANCH   7   9
ATOM      9  C   UNL     1      48.825   7.160  13.686  0.00  0.00    +0.000 C 
BRANCH   9  11
ATOM     10  C   UNL     1      49.041   8.641  11.659  0.00  0.00    +0.000 C 
ATOM     11  C   UNL     1      49.213   7.233  12.209  0.00  0.00    +0.000 C 
ENDBRANCH   9  11
ENDBRANCH   7   9
ENDBRANCH   1   7
BRANCH   4  12
ATOM     12  C   UNL     1      43.834   3.288  11.851  0.00  0.00    +0.000 C 
ATOM     13  N   UNL     1      43.088   2.485  11.474  0.00  0.00    +0.000 NA
ENDBRANCH   4  12
BRANCH   6  14
ATOM     14  C   UNL     1      45.341   8.004  11.748  0.00  0.00    +0.000 C 
BRANCH  14  15
ATOM     15  N   UNL     1      43.963   8.175  11.311  0.00  0.00    +0.000 N 
ATOM     16  C   UNL     1      43.658   9.482  10.891  0.00  0.00    +0.000 A 
ATOM     17  C   UNL     1      42.364   9.745  10.454  0.00  0.00    +0.000 A 
ATOM     18  C   UNL     1      42.030  11.031  10.032  0.00  0.00    +0.000 A 
ATOM     19  C   UNL     1      43.000  12.024  10.051  0.00  0.00    +0.000 A 
ATOM     20  C   UNL     1      44.277  11.690  10.485  0.00  0.00    +0.000 A 
ATOM     21  C   UNL     1      45.367  12.718  10.530  0.00  0.00    +0.000 C 
ATOM     22  N   UNL     1      44.609  10.440  10.892  0.00  0.00    +0.000 NA
ATOM     23  H   UNL     1      43.308   7.891  12.035  0.00  0.00    +0.000 HD
ENDBRANCH  14  15
ENDBRANCH   6  14
TORSDOF 6
ENDMDL
MODEL 6
REMARK VINA RESULT:    -5.254      3.692      7.182
REMARK INTER + INTRA:          -8.133
REMARK INTER:                  -6.728
REMARK INTRA:                  -1.405
REMARK UNBOUND:                -1.037
REMARK  Name = 
REMARK  8 active torsions:
REMARK  status: ('A' for Active; 'I' for Inactive)
REMARK    1  A    between atoms: C_1  and  C_2
REMARK    2  A    between atoms: C_2  and  C_3
REMARK    3  A    between atoms: C_3  and  N_4
REMARK    4  A    between atoms: N_4  and  C_5
REMARK    5  A    between atoms: C_8  and  C_9
REMARK    6  A    between atoms: C_12  and  C_13
REMARK    7  A    between atoms: C_13  and  N_14
REMARK    8  A    between atoms: C_19  and  C_20
REMARK                            x       y       z     vdW  Elec       q    Type
REMARK                         _______ _______ _______ _____ _____    ______ ____
ROOT
ATOM      1  C   UNL     1      48.139   6.193  14.555  0.00  0.00    +0.000 A 
ATOM      2  C   UNL     1      48.855   6.930  15.517  0.00  0.00    +0.000 A 
ATOM      3  C   UNL     1      48.998   6.494  16.838  0.00  0.00    +0.000 A 
ATOM      4  C   UNL     1      48.394   5.311  17.247  0.00  0.00    +0.000 A 
ATOM      5  C   UNL     1      47.671   4.560  16.320  0.00  0.00    +0.000 A 
ATOM      6  C   UNL     1      47.546   4.977  14.973  0.00  0.00    +0.000 A 
ENDROOT
BRANCH   1   7
ATOM      7  N   UNL     1      47.902   6.721  13.274  0.00  0.00    +0.000 N 
ATOM      8  H   UNL     1      48.602   6.455  12.588  0.00  0.00    +0.000 HD
BRANCH   7   9
ATOM      9  C   UNL     1      47.534   8.133  13.152  0.00  0.00    +0.000 C 
BRANCH   9  11
ATOM     10  C   UNL     1      45.117   8.480  12.526  0.00  0.00    +0.000 C 
ATOM     11  C   UNL     1      46.537   8.309  12.006  0.00  0.00    +0.000 C 
ENDBRANCH   9  11
ENDBRANCH   7   9
ENDBRANCH   1   7
BRANCH   4  12
ATOM     12  C   UNL     1      48.510   4.872  18.608  0.00  0.00    +0.000 C 
ATOM     13  N   UNL     1      48.598   4.512  19.706  0.00  0.00    +0.000 NA
ENDBRANCH   4  12
BRANCH   6  14
ATOM     14  C   UNL     1      46.780   4.054  14.041  0.00  0.00    +0.000 C 
BRANCH  14  15
ATOM     15  N   UNL     1      45.349   4.285  14.175  0.00  0.00    +0.000 N 
ATOM     16  C   UNL     1      44.726   4.702  12.986  0.00  0.00    +0.000 A 
ATOM     17  C   UNL     1      43.357   4.948  13.014  0.00  0.00    +0.000 A 
ATOM     18  C   UNL     1      42.710   5.364  11.851  0.00  0.00    +0.000 A 
ATOM     19  C   UNL     1      43.446   5.518  10.685  0.00  0.00    +0.000 A 
ATOM     20  C   UNL     1      44.806   5.241  10.721  0.00  0.00    +0.000 A 
ATOM     21  C   UNL     1      45.656   5.390   9.496  0.00  0.00    +0.000 C 
ATOM     22  N   UNL     1      45.441   4.831  11.849  0.00  0.00    +0.000 NA
ATOM     23  H   UNL     1      45.151   4.955  14.914  0.00  0.00    +0.000 HD
ENDBRANCH  14  15
ENDBRANCH   6  14
TORSDOF 6
ENDMDL
MODEL 7
REMARK VINA RESULT:    -5.213      3.775      6.828
REMARK INTER + INTRA:          -8.078
REMARK INTER:                  -7.331
REMARK INTRA:                  -0.748
REMARK UNBOUND:                -1.037
REMARK  Name = 
REMARK  8 active torsions:
REMARK  status: ('A' for Active; 'I' for Inactive)
REMARK    1  A    between atoms: C_1  and  C_2
REMARK    2  A    between atoms: C_2  and  C_3
REMARK    3  A    between atoms: C_3  and  N_4
REMARK    4  A    between atoms: N_4  and  C_5
REMARK    5  A    between atoms: C_8  and  C_9
REMARK    6  A    between atoms: C_12  and  C_13
REMARK    7  A    between atoms: C_13  and  N_14
REMARK    8  A    between atoms: C_19  and  C_20
REMARK                            x       y       z     vdW  Elec       q    Type
REMARK                         _______ _______ _______ _____ _____    ______ ____
ROOT
ATOM      1  C   UNL     1      48.113   5.864  15.612  0.00  0.00    +0.000 A 
ATOM      2  C   UNL     1      48.890   7.022  15.808  0.00  0.00    +0.000 A 
ATOM      3  C   UNL     1      49.266   7.857  14.751  0.00  0.00    +0.000 A 
ATOM      4  C   UNL     1      48.899   7.537  13.450  0.00  0.00    +0.000 A 
ATOM      5  C   UNL     1      48.135   6.392  13.220  0.00  0.00    +0.000 A 
ATOM      6  C   UNL     1      47.723   5.557  14.286  0.00  0.00    +0.000 A 
ENDROOT
BRANCH   1   7
ATOM      7  N   UNL     1      47.865   4.977  16.674  0.00  0.00    +0.000 N 
ATOM      8  H   UNL     1      47.205   5.336  17.358  0.00  0.00    +0.000 HD
BRANCH   7   9
ATOM      9  C   UNL     1      48.999   4.308  17.313  0.00  0.00    +0.000 C 
BRANCH   9  11
ATOM     10  C   UNL     1      50.273   2.141  17.134  0.00  0.00    +0.000 C 
ATOM     11  C   UNL     1      48.902   2.799  17.090  0.00  0.00    +0.000 C 
ENDBRANCH   9  11
ENDBRANCH   7   9
ENDBRANCH   1   7
BRANCH   4  12
ATOM     12  C   UNL     1      49.306   8.371  12.356  0.00  0.00    +0.000 C 
ATOM     13  N   UNL     1      49.643   9.047  11.477  0.00  0.00    +0.000 NA
ENDBRANCH   4  12
BRANCH   6  14
ATOM     14  C   UNL     1      46.850   4.367  13.924  0.00  0.00    +0.000 C 
BRANCH  14  15
ATOM     15  N   UNL     1      45.448   4.697  14.134  0.00  0.00    +0.000 N 
ATOM     16  C   UNL     1      44.710   4.830  12.944  0.00  0.00    +0.000 A 
ATOM     17  C   UNL     1      43.358   5.144  13.041  0.00  0.00    +0.000 A 
ATOM     18  C   UNL     1      42.601   5.284  11.880  0.00  0.00    +0.000 A 
ATOM     19  C   UNL     1      43.210   5.101  10.646  0.00  0.00    +0.000 A 
ATOM     20  C   UNL     1      44.560   4.774  10.620  0.00  0.00    +0.000 A 
ATOM     21  C   UNL     1      45.276   4.566   9.320  0.00  0.00    +0.000 C 
ATOM     22  N   UNL     1      45.302   4.632  11.747  0.00  0.00    +0.000 NA
ATOM     23  H   UNL     1      45.346   5.541  14.691  0.00  0.00    +0.000 HD
ENDBRANCH  14  15
ENDBRANCH   6  14
TORSDOF 6
ENDMDL
MODEL 8
REMARK VINA RESULT:    -5.177      3.732      6.492
REMARK INTER + INTRA:          -8.030
REMARK INTER:                  -7.649
REMARK INTRA:                  -0.381
REMARK UNBOUND:                -1.037
REMARK  Name = 
REMARK  8 active torsions:
REMARK  status: ('A' for Active; 'I' for Inactive)
REMARK    1  A    between atoms: C_1  and  C_2
REMARK    2  A    between atoms: C_2  and  C_3
REMARK    3  A    between atoms: C_3  and  N_4
REMARK    4  A    between atoms: N_4  and  C_5
REMARK    5  A    between atoms: C_8  and  C_9
REMARK    6  A    between atoms: C_12  and  C_13
REMARK    7  A    between atoms: C_13  and  N_14
REMARK    8  A    between atoms: C_19  and  C_20
REMARK                            x       y       z     vdW  Elec       q    Type
REMARK                         _______ _______ _______ _____ _____    ______ ____
ROOT
ATOM      1  C   UNL     1      45.326   5.579  12.142  0.00  0.00    +0.000 A 
ATOM      2  C   UNL     1      44.400   6.320  11.383  0.00  0.00    +0.000 A 
ATOM      3  C   UNL     1      44.414   7.718  11.343  0.00  0.00    +0.000 A 
ATOM      4  C   UNL     1      45.344   8.423  12.096  0.00  0.00    +0.000 A 
ATOM      5  C   UNL     1      46.272   7.720  12.865  0.00  0.00    +0.000 A 
ATOM      6  C   UNL     1      46.286   6.305  12.888  0.00  0.00    +0.000 A 
ENDROOT
BRANCH   1   7
ATOM      7  N   UNL     1      45.203   4.185  12.264  0.00  0.00    +0.000 N 
ATOM      8  H   UNL     1      45.645   3.669  11.509  0.00  0.00    +0.000 HD
BRANCH   7   9
ATOM      9  C   UNL     1      43.898   3.621  12.615  0.00  0.00    +0.000 C 
BRANCH   9  11
ATOM     10  C   UNL     1      44.255   2.801  10.259  0.00  0.00    +0.000 C 
ATOM     11  C   UNL     1      43.466   2.616  11.547  0.00  0.00    +0.000 C 
ENDBRANCH   9  11
ENDBRANCH   7   9
ENDBRANCH   1   7
BRANCH   4  12
ATOM     12  C   UNL     1      45.346   9.858  12.086  0.00  0.00    +0.000 C 
ATOM     13  N   UNL     1      45.352  11.017  12.085  0.00  0.00    +0.000 NA
ENDBRANCH   4  12
BRANCH   6  14
ATOM     14  C   UNL     1      47.375   5.646  13.719  0.00  0.00    +0.000 C 
BRANCH  14  15
ATOM     15  N   UNL     1      46.778   4.886  14.807  0.00  0.00    +0.000 N 
ATOM     16  C   UNL     1      47.607   4.764  15.937  0.00  0.00    +0.000 A 
ATOM     17  C   UNL     1      47.124   4.054  17.032  0.00  0.00    +0.000 A 
ATOM     18  C   UNL     1      47.922   3.916  18.166  0.00  0.00    +0.000 A 
ATOM     19  C   UNL     1      49.183   4.497  18.183  0.00  0.00    +0.000 A 
ATOM     20  C   UNL     1      49.598   5.205  17.063  0.00  0.00    +0.000 A 
ATOM     21  C   UNL     1      50.948   5.853  17.019  0.00  0.00    +0.000 C 
ATOM     22  N   UNL     1      48.824   5.347  15.958  0.00  0.00    +0.000 NA
ATOM     23  H   UNL     1      46.492   3.960  14.498  0.00  0.00    +0.000 HD
ENDBRANCH  14  15
ENDBRANCH   6  14
TORSDOF 6
ENDMDL
MODEL 9
REMARK VINA RESULT:    -5.010      4.497      7.392
REMARK INTER + INTRA:          -7.804
REMARK INTER:                  -6.828
REMARK INTRA:                  -0.976
REMARK UNBOUND:                -1.037
REMARK  Name = 
REMARK  8 active torsions:
REMARK  status: ('A' for Active; 'I' for Inactive)
REMARK    1  A    between atoms: C_1  and  C_2
REMARK    2  A    between atoms: C_2  and  C_3
REMARK    3  A    between atoms: C_3  and  N_4
REMARK    4  A    between atoms: N_4  and  C_5
REMARK    5  A    between atoms: C_8  and  C_9
REMARK    6  A    between atoms: C_12  and  C_13
REMARK    7  A    between atoms: C_13  and  N_14
REMARK    8  A    between atoms: C_19  and  C_20
REMARK                            x       y       z     vdW  Elec       q    Type
REMARK                         _______ _______ _______ _____ _____    ______ ____
ROOT
ATOM      1  C   UNL     1      47.151   7.879  13.242  0.00  0.00    +0.000 A 
ATOM      2  C   UNL     1      45.993   7.742  12.453  0.00  0.00    +0.000 A 
ATOM      3  C   UNL     1      45.322   6.522  12.316  0.00  0.00    +0.000 A 
ATOM      4  C   UNL     1      45.815   5.385  12.944  0.00  0.00    +0.000 A 
ATOM      5  C   UNL     1      46.966   5.485  13.727  0.00  0.00    +0.000 A 
ATOM      6  C   UNL     1      47.634   6.721  13.898  0.00  0.00    +0.000 A 
ENDROOT
BRANCH   1   7
ATOM      7  N   UNL     1      47.874   9.083  13.252  0.00  0.00    +0.000 N 
ATOM      8  H   UNL     1      47.359   9.864  13.649  0.00  0.00    +0.000 HD
BRANCH   7   9
ATOM      9  C   UNL     1      48.609   9.475  12.048  0.00  0.00    +0.000 C 
BRANCH   9  11
ATOM     10  C   UNL     1      50.301   7.737  11.364  0.00  0.00    +0.000 C 
ATOM     11  C   UNL     1      50.063   9.013  12.157  0.00  0.00    +0.000 C 
ENDBRANCH   9  11
ENDBRANCH   7   9
ENDBRANCH   1   7
BRANCH   4  12
ATOM     12  C   UNL     1      45.151   4.124  12.783  0.00  0.00    +0.000 C 
ATOM     13  N   UNL     1      44.607   3.108  12.654  0.00  0.00    +0.000 NA
ENDBRANCH   4  12
BRANCH   6  14
ATOM     14  C   UNL     1      48.845   6.721  14.815  0.00  0.00    +0.000 C 
BRANCH  14  15
ATOM     15  N   UNL     1      48.440   7.047  16.175  0.00  0.00    +0.000 N 
ATOM     16  C   UNL     1      48.546   5.970  17.073  0.00  0.00    +0.000 A 
ATOM     17  C   UNL     1      48.181   6.183  18.399  0.00  0.00    +0.000 A 
ATOM     18  C   UNL     1      48.275   5.136  19.313  0.00  0.00    +0.000 A 
ATOM     19  C   UNL     1      48.737   3.900  18.883  0.00  0.00    +0.000 A 
ATOM     20  C   UNL     1      49.098   3.758  17.550  0.00  0.00    +0.000 A 
ATOM     21  C   UNL     1      49.602   2.448  17.023  0.00  0.00    +0.000 C 
ATOM     22  N   UNL     1      49.014   4.775  16.656  0.00  0.00    +0.000 NA
ATOM     23  H   UNL     1      47.493   7.415  16.200  0.00  0.00    +0.000 HD
ENDBRANCH  14  15
ENDBRANCH   6  14
TORSDOF 6
ENDMDL
