MODEL 1
REMARK VINA RESULT:    -7.486      0.000      0.000
REMARK INTER + INTRA:          -9.846
REMARK INTER:                  -9.237
REMARK INTRA:                  -0.609
REMARK UNBOUND:                -0.609
REMARK  Name = 
REMARK  4 active torsions:
REMARK  status: ('A' for Active; 'I' for Inactive)
REMARK    1  A    between atoms: C_2  and  C_4
REMARK    2  A    between atoms: C_8  and  C_9
REMARK    3  A    between atoms: C_9  and  C_10
REMARK    4  A    between atoms: C_14  and  C_15
REMARK                            x       y       z     vdW  Elec       q    Type
REMARK                         _______ _______ _______ _____ _____    ______ ____
ROOT
ATOM      1  C   UNL     1      44.143   5.356  11.524  0.00  0.00    +0.000 C 
ATOM      2  C   UNL     1      43.297   6.538  11.061  0.00  0.00    +0.000 C 
ATOM      3  C   UNL     1      42.890   5.775  12.281  0.00  0.00    +0.000 C 
ENDROOT
BRANCH   1   8
ATOM      4  C   UNL     1      47.116   5.421  13.970  0.00  0.00    +0.000 A 
ATOM      5  C   UNL     1      48.002   6.295  13.329  0.00  0.00    +0.000 A 
ATOM      6  C   UNL     1      47.648   6.863  12.104  0.00  0.00    +0.000 A 
ATOM      7  C   UNL     1      46.417   6.553  11.512  0.00  0.00    +0.000 A 
ATOM      8  C   UNL     1      45.512   5.677  12.130  0.00  0.00    +0.000 A 
ATOM      9  C   UNL     1      45.886   5.130  13.368  0.00  0.00    +0.000 A 
BRANCH   4  11
ATOM     10  N   UNL     1      48.040   5.475  16.230  0.00  0.00    +0.000 N 
ATOM     11  C   UNL     1      47.431   4.746  15.251  0.00  0.00    +0.000 C 
ATOM     12  O   UNL     1      47.129   3.572  15.445  0.00  0.00    +0.000 OA
ATOM     13  H   UNL     1      48.149   5.012  17.124  0.00  0.00    +0.000 HD
ATOM     14  H   UNL     1      48.081   6.486  16.216  0.00  0.00    +0.000 HD
ENDBRANCH   4  11
ENDBRANCH   1   8
BRANCH   1  15
ATOM     15  C   UNL     1      44.126   4.084  10.688  0.00  0.00    +0.000 A 
ATOM     16  C   UNL     1      43.466   2.926  11.091  0.00  0.00    +0.000 A 
ATOM     17  N   UNL     1      43.555   1.727  10.470  0.00  0.00    +0.000 NA
ATOM     18  C   UNL     1      44.379   1.660   9.399  0.00  0.00    +0.000 A 
ATOM     19  C   UNL     1      45.101   2.736   8.881  0.00  0.00    +0.000 A 
ATOM     20  C   UNL     1      44.916   3.965   9.530  0.00  0.00    +0.000 A 
BRANCH  19  21
ATOM     21  C   UNL     1      46.076   2.581   7.796  0.00  0.00    +0.000 A 
ATOM     22  C   UNL     1      46.917   1.487   7.660  0.00  0.00    +0.000 A 
ATOM     23  N   UNL     1      47.773   1.297   6.632  0.00  0.00    +0.000 NA
ATOM     24  C   UNL     1      47.779   2.254   5.694  0.00  0.00    +0.000 A 
ATOM     25  N   UNL     1      47.029   3.364   5.704  0.00  0.00    +0.000 NA
ATOM     26  C   UNL     1      46.194   3.494   6.757  0.00  0.00    +0.000 A 
ENDBRANCH  19  21
ENDBRANCH   1  15
TORSDOF 4
ENDMDL
MODEL 2
REMARK VINA RESULT:    -7.208      3.582      4.803
REMARK INTER + INTRA:          -9.503
REMARK INTER:                  -9.406
REMARK INTRA:                  -0.098
REMARK UNBOUND:                -0.609
REMARK  Name = 
REMARK  4 active torsions:
REMARK  status: ('A' for Active; 'I' for Inactive)
REMARK    1  A    between atoms: C_2  and  C_4
REMARK    2  A    between atoms: C_8  and  C_9
REMARK    3  A    between atoms: C_9  and  C_10
REMARK    4  A    between atoms: C_14  and  C_15
REMARK                            x       y       z     vdW  Elec       q    Type
REMARK                         _______ _______ _______ _____ _____    ______ ____
ROOT
ATOM      1  C   UNL     1      45.901   7.282  11.860  0.00  0.00    +0.000 C 
ATOM      2  C   UNL     1      46.536   6.959  13.210  0.00  0.00    +0.000 C 
ATOM      3  C   UNL     1      47.407   7.106  12.002  0.00  0.00    +0.000 C 
ENDROOT
BRANCH   1   8
ATOM      4  C   UNL     1      43.495  10.155  10.976  0.00  0.00    +0.000 A 
ATOM      5  C   UNL     1      44.275  11.283  11.252  0.00  0.00    +0.000 A 
ATOM      6  C   UNL     1      45.577  11.125  11.730  0.00  0.00    +0.000 A 
ATOM      7  C   UNL     1      46.100   9.842  11.942  0.00  0.00    +0.000 A 
ATOM      8  C   UNL     1      45.338   8.693  11.677  0.00  0.00    +0.000 A 
ATOM      9  C   UNL     1      44.037   8.880  11.185  0.00  0.00    +0.000 A 
BRANCH   4  11
ATOM     10  N   UNL     1      41.151   9.494  11.157  0.00  0.00    +0.000 N 
ATOM     11  C   UNL     1      42.093  10.236  10.505  0.00  0.00    +0.000 C 
ATOM     12  O   UNL     1      41.772  10.969   9.575  0.00  0.00    +0.000 OA
ATOM     13  H   UNL     1      40.192   9.650  10.875  0.00  0.00    +0.000 HD
ATOM     14  H   UNL     1      41.312   9.079  12.066  0.00  0.00    +0.000 HD
ENDBRANCH   4  11
ENDBRANCH   1   8
BRANCH   1  15
ATOM     15  C   UNL     1      45.080   6.201  11.171  0.00  0.00    +0.000 A 
ATOM     16  C   UNL     1      43.822   5.807  11.623  0.00  0.00    +0.000 A 
ATOM     17  N   UNL     1      43.126   4.747  11.150  0.00  0.00    +0.000 NA
ATOM     18  C   UNL     1      43.728   4.008  10.190  0.00  0.00    +0.000 A 
ATOM     19  C   UNL     1      44.980   4.283   9.641  0.00  0.00    +0.000 A 
ATOM     20  C   UNL     1      45.622   5.430  10.127  0.00  0.00    +0.000 A 
BRANCH  19  21
ATOM     21  C   UNL     1      45.640   3.377   8.694  0.00  0.00    +0.000 A 
ATOM     22  C   UNL     1      46.372   3.803   7.596  0.00  0.00    +0.000 A 
ATOM     23  N   UNL     1      47.041   2.985   6.752  0.00  0.00    +0.000 NA
ATOM     24  C   UNL     1      46.970   1.677   7.031  0.00  0.00    +0.000 A 
ATOM     25  N   UNL     1      46.293   1.128   8.049  0.00  0.00    +0.000 NA
ATOM     26  C   UNL     1      45.648   1.998   8.855  0.00  0.00    +0.000 A 
ENDBRANCH  19  21
ENDBRANCH   1  15
TORSDOF 4
ENDMDL
MODEL 3
REMARK VINA RESULT:    -6.849      2.124      4.488
REMARK INTER + INTRA:          -9.059
REMARK INTER:                  -8.538
REMARK INTRA:                  -0.521
REMARK UNBOUND:                -0.609
REMARK  Name = 
REMARK  4 active torsions:
REMARK  status: ('A' for Active; 'I' for Inactive)
REMARK    1  A    between atoms: C_2  and  C_4
REMARK    2  A    between atoms: C_8  and  C_9
REMARK    3  A    between atoms: C_9  and  C_10
REMARK    4  A    between atoms: C_14  and  C_15
REMARK                            x       y       z     vdW  Elec       q    Type
REMARK                         _______ _______ _______ _____ _____    ______ ____
ROOT
ATOM      1  C   UNL     1      48.378   7.801  12.825  0.00  0.00    +0.000 C 
ATOM      2  C   UNL     1      49.618   7.801  11.936  0.00  0.00    +0.000 C 
ATOM      3  C   UNL     1      49.173   9.076  12.578  0.00  0.00    +0.000 C 
ENDROOT
BRANCH   1   8
ATOM      4  C   UNL     1      48.012   5.180  15.621  0.00  0.00    +0.000 A 
ATOM      5  C   UNL     1      48.630   5.818  16.702  0.00  0.00    +0.000 A 
ATOM      6  C   UNL     1      49.173   7.094  16.534  0.00  0.00    +0.000 A 
ATOM      7  C   UNL     1      49.109   7.729  15.287  0.00  0.00    +0.000 A 
ATOM      8  C   UNL     1      48.498   7.110  14.185  0.00  0.00    +0.000 A 
ATOM      9  C   UNL     1      47.948   5.834  14.384  0.00  0.00    +0.000 A 
BRANCH   4  11
ATOM     10  N   UNL     1      46.876   3.423  16.881  0.00  0.00    +0.000 N 
ATOM     11  C   UNL     1      47.447   3.813  15.704  0.00  0.00    +0.000 C 
ATOM     12  O   UNL     1      47.461   3.056  14.738  0.00  0.00    +0.000 OA
ATOM     13  H   UNL     1      46.412   2.523  16.870  0.00  0.00    +0.000 HD
ATOM     14  H   UNL     1      46.618   4.077  17.608  0.00  0.00    +0.000 HD
ENDBRANCH   4  11
ENDBRANCH   1   8
BRANCH   1  15
ATOM     15  C   UNL     1      47.017   7.624  12.166  0.00  0.00    +0.000 A 
ATOM     16  C   UNL     1      45.939   8.467  12.426  0.00  0.00    +0.000 A 
ATOM     17  N   UNL     1      44.672   8.259  11.997  0.00  0.00    +0.000 NA
ATOM     18  C   UNL     1      44.450   7.124  11.294  0.00  0.00    +0.000 A 
ATOM     19  C   UNL     1      45.431   6.191  10.957  0.00  0.00    +0.000 A 
ATOM     20  C   UNL     1      46.734   6.497  11.375  0.00  0.00    +0.000 A 
BRANCH  19  21
ATOM     21  C   UNL     1      45.113   4.917  10.302  0.00  0.00    +0.000 A 
ATOM     22  C   UNL     1      44.329   3.927  10.872  0.00  0.00    +0.000 A 
ATOM     23  N   UNL     1      43.972   2.777  10.257  0.00  0.00    +0.000 NA
ATOM     24  C   UNL     1      44.427   2.621   9.006  0.00  0.00    +0.000 A 
ATOM     25  N   UNL     1      45.199   3.489   8.339  0.00  0.00    +0.000 NA
ATOM     26  C   UNL     1      45.518   4.618   9.008  0.00  0.00    +0.000 A 
ENDBRANCH  19  21
ENDBRANCH   1  15
TORSDOF 4
ENDMDL
MODEL 4
REMARK VINA RESULT:    -6.716      3.679      6.877
REMARK INTER + INTRA:          -8.896
REMARK INTER:                  -8.667
REMARK INTRA:                  -0.228
REMARK UNBOUND:                -0.609
REMARK  Name = 
REMARK  4 active torsions:
REMARK  status: ('A' for Active; 'I' for Inactive)
REMARK    1  A    between atoms: C_2  and  C_4
REMARK    2  A    between atoms: C_8  and  C_9
REMARK    3  A    between atoms: C_9  and  C_10
REMARK    4  A    between atoms: C_14  and  C_15
REMARK                            x       y       z     vdW  Elec       q    Type
REMARK                         _______ _______ _______ _____ _____    ______ ____
ROOT
ATOM      1  C   UNL     1      48.257   4.246  17.059  0.00  0.00    +0.000 C 
ATOM      2  C   UNL     1      47.346   4.546  18.246  0.00  0.00    +0.000 C 
ATOM      3  C   UNL     1      47.294   3.198  17.599  0.00  0.00    +0.000 C 
ENDROOT
BRANCH   1   8
ATOM      4  C   UNL     1      51.699   2.637  17.683  0.00  0.00    +0.000 A 
ATOM      5  C   UNL     1      52.497   3.752  17.957  0.00  0.00    +0.000 A 
ATOM      6  C   UNL     1      51.932   5.029  17.937  0.00  0.00    +0.000 A 
ATOM      7  C   UNL     1      50.575   5.195  17.634  0.00  0.00    +0.000 A 
ATOM      8  C   UNL     1      49.752   4.094  17.351  0.00  0.00    +0.000 A 
ATOM      9  C   UNL     1      50.341   2.820  17.392  0.00  0.00    +0.000 A 
BRANCH   4  11
ATOM     10  N   UNL     1      51.447   0.252  18.146  0.00  0.00    +0.000 N 
ATOM     11  C   UNL     1      52.227   1.253  17.645  0.00  0.00    +0.000 C 
ATOM     12  O   UNL     1      53.323   1.001  17.152  0.00  0.00    +0.000 OA
ATOM     13  H   UNL     1      51.795  -0.689  18.013  0.00  0.00    +0.000 HD
ATOM     14  H   UNL     1      50.458   0.366  18.328  0.00  0.00    +0.000 HD
ENDBRANCH   4  11
ENDBRANCH   1   8
BRANCH   1  15
ATOM     15  C   UNL     1      47.959   4.927  15.730  0.00  0.00    +0.000 A 
ATOM     16  C   UNL     1      48.519   6.149  15.366  0.00  0.00    +0.000 A 
ATOM     17  N   UNL     1      48.164   6.871  14.278  0.00  0.00    +0.000 NA
ATOM     18  C   UNL     1      47.165   6.367  13.517  0.00  0.00    +0.000 A 
ATOM     19  C   UNL     1      46.514   5.157  13.757  0.00  0.00    +0.000 A 
ATOM     20  C   UNL     1      46.971   4.425  14.863  0.00  0.00    +0.000 A 
BRANCH  19  21
ATOM     21  C   UNL     1      45.353   4.719  12.974  0.00  0.00    +0.000 A 
ATOM     22  C   UNL     1      45.314   3.546  12.236  0.00  0.00    +0.000 A 
ATOM     23  N   UNL     1      44.231   3.095  11.564  0.00  0.00    +0.000 NA
ATOM     24  C   UNL     1      43.136   3.863  11.642  0.00  0.00    +0.000 A 
ATOM     25  N   UNL     1      43.037   5.021  12.308  0.00  0.00    +0.000 NA
ATOM     26  C   UNL     1      44.152   5.415  12.959  0.00  0.00    +0.000 A 
ENDBRANCH  19  21
ENDBRANCH   1  15
TORSDOF 4
ENDMDL
MODEL 5
REMARK VINA RESULT:    -6.639      2.236      7.150
REMARK INTER + INTRA:          -8.801
REMARK INTER:                  -8.648
REMARK INTRA:                  -0.153
REMARK UNBOUND:                -0.609
REMARK  Name = 
REMARK  4 active torsions:
REMARK  status: ('A' for Active; 'I' for Inactive)
REMARK    1  A    between atoms: C_2  and  C_4
REMARK    2  A    between atoms: C_8  and  C_9
REMARK    3  A    between atoms: C_9  and  C_10
REMARK    4  A    between atoms: C_14  and  C_15
REMARK                            x       y       z     vdW  Elec       q    Type
REMARK                         _______ _______ _______ _____ _____    ______ ____
ROOT
ATOM      1  C   UNL     1      44.192   5.294  11.551  0.00  0.00    +0.000 C 
ATOM      2  C   UNL     1      42.883   5.240  12.334  0.00  0.00    +0.000 C 
ATOM      3  C   UNL     1      43.047   6.250  11.243  0.00  0.00    +0.000 C 
ENDROOT
BRANCH   1   8
ATOM      4  C   UNL     1      45.471   3.339   8.490  0.00  0.00    +0.000 A 
ATOM      5  C   UNL     1      44.952   2.061   8.723  0.00  0.00    +0.000 A 
ATOM      6  C   UNL     1      44.193   1.821   9.870  0.00  0.00    +0.000 A 
ATOM      7  C   UNL     1      43.958   2.851  10.790  0.00  0.00    +0.000 A 
ATOM      8  C   UNL     1      44.470   4.142  10.583  0.00  0.00    +0.000 A 
ATOM      9  C   UNL     1      45.218   4.360   9.415  0.00  0.00    +0.000 A 
BRANCH   4  11
ATOM     10  N   UNL     1      46.294   2.822   6.250  0.00  0.00    +0.000 N 
ATOM     11  C   UNL     1      46.318   3.668   7.320  0.00  0.00    +0.000 C 
ATOM     12  O   UNL     1      47.003   4.686   7.293  0.00  0.00    +0.000 OA
ATOM     13  H   UNL     1      46.805   3.128   5.432  0.00  0.00    +0.000 HD
ATOM     14  H   UNL     1      45.574   2.122   6.120  0.00  0.00    +0.000 HD
ENDBRANCH   4  11
ENDBRANCH   1   8
BRANCH   1  15
ATOM     15  C   UNL     1      45.436   5.814  12.258  0.00  0.00    +0.000 A 
ATOM     16  C   UNL     1      46.321   6.711  11.664  0.00  0.00    +0.000 A 
ATOM     17  N   UNL     1      47.518   7.074  12.180  0.00  0.00    +0.000 NA
ATOM     18  C   UNL     1      47.878   6.488  13.344  0.00  0.00    +0.000 A 
ATOM     19  C   UNL     1      47.095   5.576  14.053  0.00  0.00    +0.000 A 
ATOM     20  C   UNL     1      45.839   5.289  13.498  0.00  0.00    +0.000 A 
BRANCH  19  21
ATOM     21  C   UNL     1      47.587   4.875  15.244  0.00  0.00    +0.000 A 
ATOM     22  C   UNL     1      48.313   5.482  16.257  0.00  0.00    +0.000 A 
ATOM     23  N   UNL     1      48.715   4.867  17.391  0.00  0.00    +0.000 NA
ATOM     24  C   UNL     1      48.366   3.579  17.510  0.00  0.00    +0.000 A 
ATOM     25  N   UNL     1      47.678   2.867  16.608  0.00  0.00    +0.000 NA
ATOM     26  C   UNL     1      47.304   3.540  15.498  0.00  0.00    +0.000 A 
ENDBRANCH  19  21
ENDBRANCH   1  15
TORSDOF 4
ENDMDL
MODEL 6
REMARK VINA RESULT:    -6.396      2.373      3.262
REMARK INTER + INTRA:          -8.501
REMARK INTER:                  -8.186
REMARK INTRA:                  -0.315
REMARK UNBOUND:                -0.609
REMARK  Name = 
REMARK  4 active torsions:
REMARK  status: ('A' for Active; 'I' for Inactive)
REMARK    1  A    between atoms: C_2  and  C_4
REMARK    2  A    between atoms: C_8  and  C_9
REMARK    3  A    between atoms: C_9  and  C_10
REMARK    4  A    between atoms: C_14  and  C_15
REMARK                            x       y       z     vdW  Elec       q    Type
REMARK                         _______ _______ _______ _____ _____    ______ ____
ROOT
ATOM      1  C   UNL     1      45.810   5.248  12.520  0.00  0.00    +0.000 C 
ATOM      2  C   UNL     1      45.827   4.848  13.993  0.00  0.00    +0.000 C 
ATOM      3  C   UNL     1      47.090   4.772  13.194  0.00  0.00    +0.000 C 
ENDROOT
BRANCH   1   8
ATOM      4  C   UNL     1      46.520   9.029  12.365  0.00  0.00    +0.000 A 
ATOM      5  C   UNL     1      45.380   9.514  11.715  0.00  0.00    +0.000 A 
ATOM      6  C   UNL     1      44.379   8.624  11.319  0.00  0.00    +0.000 A 
ATOM      7  C   UNL     1      44.519   7.251  11.561  0.00  0.00    +0.000 A 
ATOM      8  C   UNL     1      45.654   6.738  12.207  0.00  0.00    +0.000 A 
ATOM      9  C   UNL     1      46.639   7.655  12.607  0.00  0.00    +0.000 A 
BRANCH   4  11
ATOM     10  N   UNL     1      47.479  11.251  12.694  0.00  0.00    +0.000 N 
ATOM     11  C   UNL     1      47.644   9.900  12.782  0.00  0.00    +0.000 C 
ATOM     12  O   UNL     1      48.688   9.428  13.222  0.00  0.00    +0.000 OA
ATOM     13  H   UNL     1      48.226  11.814  13.081  0.00  0.00    +0.000 HD
ATOM     14  H   UNL     1      46.572  11.686  12.580  0.00  0.00    +0.000 HD
ENDBRANCH   4  11
ENDBRANCH   1   8
BRANCH   1  15
ATOM     15  C   UNL     1      45.097   4.336  11.532  0.00  0.00    +0.000 A 
ATOM     16  C   UNL     1      43.962   3.601  11.869  0.00  0.00    +0.000 A 
ATOM     17  N   UNL     1      43.390   2.657  11.085  0.00  0.00    +0.000 NA
ATOM     18  C   UNL     1      43.999   2.400   9.905  0.00  0.00    +0.000 A 
ATOM     19  C   UNL     1      45.137   3.058   9.436  0.00  0.00    +0.000 A 
ATOM     20  C   UNL     1      45.644   4.068  10.265  0.00  0.00    +0.000 A 
BRANCH  19  21
ATOM     21  C   UNL     1      45.829   2.653   8.207  0.00  0.00    +0.000 A 
ATOM     22  C   UNL     1      46.045   3.494   7.126  0.00  0.00    +0.000 A 
ATOM     23  N   UNL     1      46.738   3.158   6.015  0.00  0.00    +0.000 NA
ATOM     24  C   UNL     1      47.239   1.915   5.995  0.00  0.00    +0.000 A 
ATOM     25  N   UNL     1      47.098   0.998   6.962  0.00  0.00    +0.000 NA
ATOM     26  C   UNL     1      46.397   1.397   8.045  0.00  0.00    +0.000 A 
ENDBRANCH  19  21
ENDBRANCH   1  15
TORSDOF 4
ENDMDL
MODEL 7
REMARK VINA RESULT:    -6.313      3.946      6.601
REMARK INTER + INTRA:          -8.399
REMARK INTER:                  -8.049
REMARK INTRA:                  -0.350
REMARK UNBOUND:                -0.609
REMARK  Name = 
REMARK  4 active torsions:
REMARK  status: ('A' for Active; 'I' for Inactive)
REMARK    1  A    between atoms: C_2  and  C_4
REMARK    2  A    between atoms: C_8  and  C_9
REMARK    3  A    between atoms: C_9  and  C_10
REMARK    4  A    between atoms: C_14  and  C_15
REMARK                            x       y       z     vdW  Elec       q    Type
REMARK                         _______ _______ _______ _____ _____    ______ ____
ROOT
ATOM      1  C   UNL     1      49.278   7.135  15.992  0.00  0.00    +0.000 C 
ATOM      2  C   UNL     1      50.616   7.854  16.144  0.00  0.00    +0.000 C 
ATOM      3  C   UNL     1      49.359   8.535  16.584  0.00  0.00    +0.000 C 
ENDROOT
BRANCH   1   8
ATOM      4  C   UNL     1      49.295   3.570  17.449  0.00  0.00    +0.000 A 
ATOM      5  C   UNL     1      48.497   3.717  18.589  0.00  0.00    +0.000 A 
ATOM      6  C   UNL     1      47.954   4.967  18.897  0.00  0.00    +0.000 A 
ATOM      7  C   UNL     1      48.214   6.071  18.075  0.00  0.00    +0.000 A 
ATOM      8  C   UNL     1      49.015   5.953  16.928  0.00  0.00    +0.000 A 
ATOM      9  C   UNL     1      49.537   4.683  16.633  0.00  0.00    +0.000 A 
BRANCH   4  11
ATOM     10  N   UNL     1      50.967   1.836  17.847  0.00  0.00    +0.000 N 
ATOM     11  C   UNL     1      49.940   2.291  17.073  0.00  0.00    +0.000 C 
ATOM     12  O   UNL     1      49.549   1.637  16.110  0.00  0.00    +0.000 OA
ATOM     13  H   UNL     1      51.317   0.913  17.621  0.00  0.00    +0.000 HD
ATOM     14  H   UNL     1      51.158   2.197  18.773  0.00  0.00    +0.000 HD
ENDBRANCH   4  11
ENDBRANCH   1   8
BRANCH   1  15
ATOM     15  C   UNL     1      48.718   6.942  14.590  0.00  0.00    +0.000 A 
ATOM     16  C   UNL     1      49.112   7.724  13.506  0.00  0.00    +0.000 A 
ATOM     17  N   UNL     1      48.530   7.704  12.285  0.00  0.00    +0.000 NA
ATOM     18  C   UNL     1      47.467   6.881  12.134  0.00  0.00    +0.000 A 
ATOM     19  C   UNL     1      46.963   6.041  13.127  0.00  0.00    +0.000 A 
ATOM     20  C   UNL     1      47.649   6.060  14.350  0.00  0.00    +0.000 A 
BRANCH  19  21
ATOM     21  C   UNL     1      45.731   5.263  12.950  0.00  0.00    +0.000 A 
ATOM     22  C   UNL     1      45.697   3.883  12.825  0.00  0.00    +0.000 A 
ATOM     23  N   UNL     1      44.568   3.146  12.728  0.00  0.00    +0.000 NA
ATOM     24  C   UNL     1      43.419   3.835  12.761  0.00  0.00    +0.000 A 
ATOM     25  N   UNL     1      43.306   5.165  12.868  0.00  0.00    +0.000 NA
ATOM     26  C   UNL     1      44.470   5.843  12.962  0.00  0.00    +0.000 A 
ENDBRANCH  19  21
ENDBRANCH   1  15
TORSDOF 4
ENDMDL
MODEL 8
REMARK VINA RESULT:    -5.873      3.899      6.344
REMARK INTER + INTRA:          -7.856
REMARK INTER:                  -7.506
REMARK INTRA:                  -0.350
REMARK UNBOUND:                -0.609
REMARK  Name = 
REMARK  4 active torsions:
REMARK  status: ('A' for Active; 'I' for Inactive)
REMARK    1  A    between atoms: C_2  and  C_4
REMARK    2  A    between atoms: C_8  and  C_9
REMARK    3  A    between atoms: C_9  and  C_10
REMARK    4  A    between atoms: C_14  and  C_15
REMARK                            x       y       z     vdW  Elec       q    Type
REMARK                         _______ _______ _______ _____ _____    ______ ____
ROOT
ATOM      1  C   UNL     1      48.519   8.017  12.938  0.00  0.00    +0.000 C 
ATOM      2  C   UNL     1      48.615   8.301  14.435  0.00  0.00    +0.000 C 
ATOM      3  C   UNL     1      48.996   6.951  13.915  0.00  0.00    +0.000 C 
ENDROOT
BRANCH   1   8
ATOM      4  C   UNL     1      51.618   8.576  10.723  0.00  0.00    +0.000 A 
ATOM      5  C   UNL     1      51.515   9.937  10.416  0.00  0.00    +0.000 A 
ATOM      6  C   UNL     1      50.445  10.680  10.917  0.00  0.00    +0.000 A 
ATOM      7  C   UNL     1      49.471  10.066  11.714  0.00  0.00    +0.000 A 
ATOM      8  C   UNL     1      49.547   8.702  12.034  0.00  0.00    +0.000 A 
ATOM      9  C   UNL     1      50.640   7.980  11.530  0.00  0.00    +0.000 A 
BRANCH   4  11
ATOM     10  N   UNL     1      52.644   6.373  10.480  0.00  0.00    +0.000 N 
ATOM     11  C   UNL     1      52.699   7.707  10.200  0.00  0.00    +0.000 C 
ATOM     12  O   UNL     1      53.606   8.162   9.509  0.00  0.00    +0.000 OA
ATOM     13  H   UNL     1      53.341   5.797  10.025  0.00  0.00    +0.000 HD
ATOM     14  H   UNL     1      51.807   5.918  10.821  0.00  0.00    +0.000 HD
ENDBRANCH   4  11
ENDBRANCH   1   8
BRANCH   1  15
ATOM     15  C   UNL     1      47.136   7.899  12.313  0.00  0.00    +0.000 A 
ATOM     16  C   UNL     1      46.330   9.005  12.050  0.00  0.00    +0.000 A 
ATOM     17  N   UNL     1      45.039   8.945  11.651  0.00  0.00    +0.000 NA
ATOM     18  C   UNL     1      44.497   7.711  11.537  0.00  0.00    +0.000 A 
ATOM     19  C   UNL     1      45.181   6.517  11.765  0.00  0.00    +0.000 A 
ATOM     20  C   UNL     1      46.533   6.644  12.114  0.00  0.00    +0.000 A 
BRANCH  19  21
ATOM     21  C   UNL     1      44.512   5.211  11.751  0.00  0.00    +0.000 A 
ATOM     22  C   UNL     1      44.131   4.548  10.594  0.00  0.00    +0.000 A 
ATOM     23  N   UNL     1      43.575   3.317  10.560  0.00  0.00    +0.000 NA
ATOM     24  C   UNL     1      43.397   2.725  11.749  0.00  0.00    +0.000 A 
ATOM     25  N   UNL     1      43.708   3.252  12.941  0.00  0.00    +0.000 NA
ATOM     26  C   UNL     1      44.261   4.483  12.906  0.00  0.00    +0.000 A 
ENDBRANCH  19  21
ENDBRANCH   1  15
TORSDOF 4
ENDMDL
MODEL 9
REMARK VINA RESULT:    -5.535      4.288      7.550
REMARK INTER + INTRA:          -7.439
REMARK INTER:                  -7.048
REMARK INTRA:                  -0.391
REMARK UNBOUND:                -0.609
REMARK  Name = 
REMARK  4 active torsions:
REMARK  status: ('A' for Active; 'I' for Inactive)
REMARK    1  A    between atoms: C_2  and  C_4
REMARK    2  A    between atoms: C_8  and  C_9
REMARK    3  A    between atoms: C_9  and  C_10
REMARK    4  A    between atoms: C_14  and  C_15
REMARK                            x       y       z     vdW  Elec       q    Type
REMARK                         _______ _______ _______ _____ _____    ______ ____
ROOT
ATOM      1  C   UNL     1      46.496   6.433  12.269  0.00  0.00    +0.000 C 
ATOM      2  C   UNL     1      45.894   5.870  10.985  0.00  0.00    +0.000 C 
ATOM      3  C   UNL     1      45.002   6.525  11.991  0.00  0.00    +0.000 C 
ENDROOT
BRANCH   1   8
ATOM      4  C   UNL     1      49.524   8.736  11.677  0.00  0.00    +0.000 A 
ATOM      5  C   UNL     1      48.990   9.999  11.957  0.00  0.00    +0.000 A 
ATOM      6  C   UNL     1      47.650  10.115  12.333  0.00  0.00    +0.000 A 
ATOM      7  C   UNL     1      46.840   8.975  12.420  0.00  0.00    +0.000 A 
ATOM      8  C   UNL     1      47.349   7.697  12.140  0.00  0.00    +0.000 A 
ATOM      9  C   UNL     1      48.703   7.606  11.778  0.00  0.00    +0.000 A 
BRANCH   4  11
ATOM     10  N   UNL     1      51.387   7.250  11.143  0.00  0.00    +0.000 N 
ATOM     11  C   UNL     1      50.923   8.530  11.233  0.00  0.00    +0.000 C 
ATOM     12  O   UNL     1      51.642   9.477  10.927  0.00  0.00    +0.000 OA
ATOM     13  H   UNL     1      52.311   7.143  10.742  0.00  0.00    +0.000 HD
ATOM     14  H   UNL     1      50.776   6.444  11.140  0.00  0.00    +0.000 HD
ENDBRANCH   4  11
ENDBRANCH   1   8
BRANCH   1  15
ATOM     15  C   UNL     1      47.007   5.454  13.317  0.00  0.00    +0.000 A 
ATOM     16  C   UNL     1      46.808   4.078  13.224  0.00  0.00    +0.000 A 
ATOM     17  N   UNL     1      47.096   3.187  14.201  0.00  0.00    +0.000 NA
ATOM     18  C   UNL     1      47.579   3.692  15.358  0.00  0.00    +0.000 A 
ATOM     19  C   UNL     1      47.831   5.044  15.594  0.00  0.00    +0.000 A 
ATOM     20  C   UNL     1      47.574   5.909  14.521  0.00  0.00    +0.000 A 
BRANCH  19  21
ATOM     21  C   UNL     1      48.237   5.551  16.909  0.00  0.00    +0.000 A 
ATOM     22  C   UNL     1      47.939   4.923  18.109  0.00  0.00    +0.000 A 
ATOM     23  N   UNL     1      48.361   5.341  19.323  0.00  0.00    +0.000 NA
ATOM     24  C   UNL     1      49.122   6.444  19.327  0.00  0.00    +0.000 A 
ATOM     25  N   UNL     1      49.477   7.154  18.248  0.00  0.00    +0.000 NA
ATOM     26  C   UNL     1      49.025   6.683  17.066  0.00  0.00    +0.000 A 
ENDBRANCH  19  21
ENDBRANCH   1  15
TORSDOF 4
ENDMDL
