MODEL 1
REMARK VINA RESULT:    -7.958      0.000      0.000
REMARK INTER + INTRA:         -11.902
REMARK INTER:                 -10.981
REMARK INTRA:                  -0.921
REMARK UNBOUND:                -0.921
REMARK  Name = 
REMARK  9 active torsions:
REMARK  status: ('A' for Active; 'I' for Inactive)
REMARK    1  A    between atoms: C_1  and  C_2
REMARK    2  A    between atoms: C_4  and  C_5
REMARK    3  A    between atoms: C_5  and  C_6
REMARK    4  A    between atoms: C_5  and  C_7
REMARK    5  A    between atoms: C_7  and  O_8
REMARK    6  A    between atoms: O_8  and  C_9
REMARK    7  A    between atoms: C_14  and  C_15
REMARK    8  A    between atoms: C_24  and  C_25
REMARK    9  A    between atoms: C_25  and  O_27
REMARK                            x       y       z     vdW  Elec       q    Type
REMARK                         _______ _______ _______ _____ _____    ______ ____
ROOT
ATOM      1  C   UNL     1      43.849   4.955  10.688  0.00  0.00    +0.000 C 
ENDROOT
BRANCH   1   2
ATOM      2  C   UNL     1      43.829   3.492  10.224  0.00  0.00    +0.000 C 
ATOM      3  C   UNL     1      44.088   2.570  11.419  0.00  0.00    +0.000 C 
BRANCH   2   7
ATOM      4  C   UNL     1      46.562   0.270   7.814  0.00  0.00    +0.000 C 
ATOM      5  C   UNL     1      46.196   1.718   7.967  0.00  0.00    +0.000 A 
ATOM      6  N   UNL     1      45.271   1.975   8.935  0.00  0.00    +0.000 NA
ATOM      7  C   UNL     1      44.874   3.253   9.149  0.00  0.00    +0.000 A 
ATOM      8  C   UNL     1      45.376   4.310   8.401  0.00  0.00    +0.000 A 
ATOM      9  C   UNL     1      46.316   4.047   7.407  0.00  0.00    +0.000 A 
ATOM     10  C   UNL     1      46.757   2.735   7.188  0.00  0.00    +0.000 A 
BRANCH  10  11
ATOM     11  C   UNL     1      47.750   2.439   6.123  0.00  0.00    +0.000 C 
ATOM     12  O   UNL     1      47.451   2.057   5.006  0.00  0.00    +0.000 OA
BRANCH  11  13
ATOM     13  O   UNL     1      49.034   2.622   6.502  0.00  0.00    +0.000 OA
ATOM     14  H   UNL     1      49.470   1.859   6.925  0.00  0.00    +0.000 HD
ENDBRANCH  11  13
ENDBRANCH  10  11
ENDBRANCH   2   7
ENDBRANCH   1   2
BRANCH   1  15
ATOM     15  O   UNL     1      44.149   5.033  12.089  0.00  0.00    +0.000 OA
BRANCH  15  16
ATOM     16  C   UNL     1      45.407   5.482  12.400  0.00  0.00    +0.000 A 
ATOM     17  C   UNL     1      46.169   6.337  11.603  0.00  0.00    +0.000 A 
ATOM     18  C   UNL     1      47.447   6.711  12.013  0.00  0.00    +0.000 A 
ATOM     19  C   UNL     1      47.953   6.247  13.222  0.00  0.00    +0.000 A 
ATOM     20  F   UNL     1      49.204   6.618  13.543  0.00  0.00    +0.000 F 
ATOM     21  C   UNL     1      47.206   5.419  14.077  0.00  0.00    +0.000 A 
ATOM     22  C   UNL     1      45.918   5.050  13.630  0.00  0.00    +0.000 A 
BRANCH  21  23
ATOM     23  C   UNL     1      47.733   4.969  15.390  0.00  0.00    +0.000 A 
ATOM     24  C   UNL     1      47.525   3.661  15.854  0.00  0.00    +0.000 A 
ATOM     25  C   UNL     1      48.037   3.274  17.084  0.00  0.00    +0.000 A 
ATOM     26  N   UNL     1      48.755   4.086  17.884  0.00  0.00    +0.000 NA
ATOM     27  C   UNL     1      48.958   5.340  17.436  0.00  0.00    +0.000 A 
ATOM     28  C   UNL     1      48.472   5.819  16.226  0.00  0.00    +0.000 A 
ENDBRANCH  21  23
ENDBRANCH  15  16
ENDBRANCH   1  15
TORSDOF 7
ENDMDL
MODEL 2
REMARK VINA RESULT:    -7.767      2.915      8.144
REMARK INTER + INTRA:         -11.639
REMARK INTER:                 -10.760
REMARK INTRA:                  -0.879
REMARK UNBOUND:                -0.921
REMARK  Name = 
REMARK  9 active torsions:
REMARK  status: ('A' for Active; 'I' for Inactive)
REMARK    1  A    between atoms: C_1  and  C_2
REMARK    2  A    between atoms: C_4  and  C_5
REMARK    3  A    between atoms: C_5  and  C_6
REMARK    4  A    between atoms: C_5  and  C_7
REMARK    5  A    between atoms: C_7  and  O_8
REMARK    6  A    between atoms: O_8  and  C_9
REMARK    7  A    between atoms: C_14  and  C_15
REMARK    8  A    between atoms: C_24  and  C_25
REMARK    9  A    between atoms: C_25  and  O_27
REMARK                            x       y       z     vdW  Elec       q    Type
REMARK                         _______ _______ _______ _____ _____    ______ ____
ROOT
ATOM      1  C   UNL     1      46.813   6.550  11.158  0.00  0.00    +0.000 C 
ENDROOT
BRANCH   1   2
ATOM      2  C   UNL     1      46.865   7.141  12.573  0.00  0.00    +0.000 C 
ATOM      3  C   UNL     1      47.969   8.199  12.649  0.00  0.00    +0.000 C 
BRANCH   2   7
ATOM      4  C   UNL     1      48.827   5.932  16.857  0.00  0.00    +0.000 C 
ATOM      5  C   UNL     1      48.047   5.448  15.668  0.00  0.00    +0.000 A 
ATOM      6  N   UNL     1      47.815   6.393  14.714  0.00  0.00    +0.000 NA
ATOM      7  C   UNL     1      47.117   6.054  13.602  0.00  0.00    +0.000 A 
ATOM      8  C   UNL     1      46.623   4.769  13.412  0.00  0.00    +0.000 A 
ATOM      9  C   UNL     1      46.855   3.805  14.391  0.00  0.00    +0.000 A 
ATOM     10  C   UNL     1      47.595   4.131  15.535  0.00  0.00    +0.000 A 
BRANCH  10  11
ATOM     11  C   UNL     1      47.840   3.116  16.592  0.00  0.00    +0.000 C 
ATOM     12  O   UNL     1      48.843   2.427  16.650  0.00  0.00    +0.000 OA
BRANCH  11  13
ATOM     13  O   UNL     1      46.841   3.010  17.495  0.00  0.00    +0.000 OA
ATOM     14  H   UNL     1      46.927   3.555  18.298  0.00  0.00    +0.000 HD
ENDBRANCH  11  13
ENDBRANCH  10  11
ENDBRANCH   2   7
ENDBRANCH   1   2
BRANCH   1  15
ATOM     15  O   UNL     1      45.453   6.401  10.725  0.00  0.00    +0.000 OA
BRANCH  15  16
ATOM     16  C   UNL     1      45.079   5.128  10.379  0.00  0.00    +0.000 A 
ATOM     17  C   UNL     1      44.078   4.389  11.011  0.00  0.00    +0.000 A 
ATOM     18  C   UNL     1      43.798   3.093  10.583  0.00  0.00    +0.000 A 
ATOM     19  C   UNL     1      44.503   2.545   9.518  0.00  0.00    +0.000 A 
ATOM     20  F   UNL     1      44.208   1.280   9.177  0.00  0.00    +0.000 F 
ATOM     21  C   UNL     1      45.490   3.266   8.824  0.00  0.00    +0.000 A 
ATOM     22  C   UNL     1      45.757   4.574   9.285  0.00  0.00    +0.000 A 
BRANCH  21  23
ATOM     23  C   UNL     1      46.202   2.693   7.654  0.00  0.00    +0.000 A 
ATOM     24  C   UNL     1      46.735   1.395   7.685  0.00  0.00    +0.000 A 
ATOM     25  C   UNL     1      47.389   0.890   6.571  0.00  0.00    +0.000 A 
ATOM     26  N   UNL     1      47.543   1.572   5.420  0.00  0.00    +0.000 NA
ATOM     27  C   UNL     1      47.028   2.816   5.390  0.00  0.00    +0.000 A 
ATOM     28  C   UNL     1      46.369   3.409   6.460  0.00  0.00    +0.000 A 
ENDBRANCH  21  23
ENDBRANCH  15  16
ENDBRANCH   1  15
TORSDOF 7
ENDMDL
MODEL 3
REMARK VINA RESULT:    -7.697      3.608      5.674
REMARK INTER + INTRA:         -11.543
REMARK INTER:                 -10.476
REMARK INTRA:                  -1.067
REMARK UNBOUND:                -0.921
REMARK  Name = 
REMARK  9 active torsions:
REMARK  status: ('A' for Active; 'I' for Inactive)
REMARK    1  A    between atoms: C_1  and  C_2
REMARK    2  A    between atoms: C_4  and  C_5
REMARK    3  A    between atoms: C_5  and  C_6
REMARK    4  A    between atoms: C_5  and  C_7
REMARK    5  A    between atoms: C_7  and  O_8
REMARK    6  A    between atoms: O_8  and  C_9
REMARK    7  A    between atoms: C_14  and  C_15
REMARK    8  A    between atoms: C_24  and  C_25
REMARK    9  A    between atoms: C_25  and  O_27
REMARK                            x       y       z     vdW  Elec       q    Type
REMARK                         _______ _______ _______ _____ _____    ______ ____
ROOT
ATOM      1  C   UNL     1      44.043   5.091  10.703  0.00  0.00    +0.000 C 
ENDROOT
BRANCH   1   2
ATOM      2  C   UNL     1      44.196   3.583  10.464  0.00  0.00    +0.000 C 
ATOM      3  C   UNL     1      44.773   2.920  11.718  0.00  0.00    +0.000 C 
BRANCH   2   7
ATOM      4  C   UNL     1      46.581   0.292   7.791  0.00  0.00    +0.000 C 
ATOM      5  C   UNL     1      46.252   1.747   7.964  0.00  0.00    +0.000 A 
ATOM      6  N   UNL     1      45.454   2.029   9.033  0.00  0.00    +0.000 NA
ATOM      7  C   UNL     1      45.100   3.315   9.274  0.00  0.00    +0.000 A 
ATOM      8  C   UNL     1      45.519   4.355   8.454  0.00  0.00    +0.000 A 
ATOM      9  C   UNL     1      46.329   4.065   7.357  0.00  0.00    +0.000 A 
ATOM     10  C   UNL     1      46.726   2.745   7.108  0.00  0.00    +0.000 A 
BRANCH  10  11
ATOM     11  C   UNL     1      47.579   2.421   5.935  0.00  0.00    +0.000 C 
ATOM     12  O   UNL     1      47.138   2.113   4.842  0.00  0.00    +0.000 OA
BRANCH  11  13
ATOM     13  O   UNL     1      48.905   2.487   6.184  0.00  0.00    +0.000 OA
ATOM     14  H   UNL     1      49.485   2.562   5.405  0.00  0.00    +0.000 HD
ENDBRANCH  11  13
ENDBRANCH  10  11
ENDBRANCH   2   7
ENDBRANCH   1   2
BRANCH   1  15
ATOM     15  O   UNL     1      44.770   5.490  11.874  0.00  0.00    +0.000 OA
BRANCH  15  16
ATOM     16  C   UNL     1      45.013   6.835  11.989  0.00  0.00    +0.000 A 
ATOM     17  C   UNL     1      46.042   7.398  12.744  0.00  0.00    +0.000 A 
ATOM     18  C   UNL     1      46.180   8.784  12.802  0.00  0.00    +0.000 A 
ATOM     19  C   UNL     1      45.305   9.600  12.095  0.00  0.00    +0.000 A 
ATOM     20  F   UNL     1      45.471  10.927  12.220  0.00  0.00    +0.000 F 
ATOM     21  C   UNL     1      44.279   9.076  11.288  0.00  0.00    +0.000 A 
ATOM     22  C   UNL     1      44.160   7.670  11.256  0.00  0.00    +0.000 A 
BRANCH  21  23
ATOM     23  C   UNL     1      43.381   9.953  10.496  0.00  0.00    +0.000 A 
ATOM     24  C   UNL     1      43.827  10.598   9.332  0.00  0.00    +0.000 A 
ATOM     25  C   UNL     1      42.958  11.406   8.613  0.00  0.00    +0.000 A 
ATOM     26  N   UNL     1      41.671  11.610   8.955  0.00  0.00    +0.000 NA
ATOM     27  C   UNL     1      41.244  10.988  10.069  0.00  0.00    +0.000 A 
ATOM     28  C   UNL     1      42.044  10.172  10.859  0.00  0.00    +0.000 A 
ENDBRANCH  21  23
ENDBRANCH  15  16
ENDBRANCH   1  15
TORSDOF 7
ENDMDL
MODEL 4
REMARK VINA RESULT:    -7.486      2.294      3.614
REMARK INTER + INTRA:         -11.251
REMARK INTER:                 -10.316
REMARK INTRA:                  -0.935
REMARK UNBOUND:                -0.921
REMARK  Name = 
REMARK  9 active torsions:
REMARK  status: ('A' for Active; 'I' for Inactive)
REMARK    1  A    between atoms: C_1  and  C_2
REMARK    2  A    between atoms: C_4  and  C_5
REMARK    3  A    between atoms: C_5  and  C_6
REMARK    4  A    between atoms: C_5  and  C_7
REMARK    5  A    between atoms: C_7  and  O_8
REMARK    6  A    between atoms: O_8  and  C_9
REMARK    7  A    between atoms: C_14  and  C_15
REMARK    8  A    between atoms: C_24  and  C_25
REMARK    9  A    between atoms: C_25  and  O_27
REMARK                            x       y       z     vdW  Elec       q    Type
REMARK                         _______ _______ _______ _____ _____    ______ ____
ROOT
ATOM      1  C   UNL     1      43.961   5.231  11.040  0.00  0.00    +0.000 C 
ENDROOT
BRANCH   1   2
ATOM      2  C   UNL     1      43.703   3.873  10.374  0.00  0.00    +0.000 C 
ATOM      3  C   UNL     1      43.682   2.773  11.439  0.00  0.00    +0.000 C 
BRANCH   2   7
ATOM      4  C   UNL     1      46.263   0.486   7.999  0.00  0.00    +0.000 C 
ATOM      5  C   UNL     1      46.011   1.956   8.173  0.00  0.00    +0.000 A 
ATOM      6  N   UNL     1      45.070   2.268   9.108  0.00  0.00    +0.000 NA
ATOM      7  C   UNL     1      44.770   3.570   9.337  0.00  0.00    +0.000 A 
ATOM      8  C   UNL     1      45.391   4.598   8.637  0.00  0.00    +0.000 A 
ATOM      9  C   UNL     1      46.348   4.277   7.677  0.00  0.00    +0.000 A 
ATOM     10  C   UNL     1      46.689   2.939   7.444  0.00  0.00    +0.000 A 
BRANCH  10  11
ATOM     11  C   UNL     1      47.699   2.583   6.414  0.00  0.00    +0.000 C 
ATOM     12  O   UNL     1      48.687   1.906   6.641  0.00  0.00    +0.000 OA
BRANCH  11  13
ATOM     13  O   UNL     1      47.436   3.086   5.188  0.00  0.00    +0.000 OA
ATOM     14  H   UNL     1      47.486   4.056   5.102  0.00  0.00    +0.000 HD
ENDBRANCH  11  13
ENDBRANCH  10  11
ENDBRANCH   2   7
ENDBRANCH   1   2
BRANCH   1  15
ATOM     15  O   UNL     1      44.108   5.074  12.459  0.00  0.00    +0.000 OA
BRANCH  15  16
ATOM     16  C   UNL     1      45.331   5.427  12.969  0.00  0.00    +0.000 A 
ATOM     17  C   UNL     1      46.068   4.664  13.875  0.00  0.00    +0.000 A 
ATOM     18  C   UNL     1      47.294   5.135  14.340  0.00  0.00    +0.000 A 
ATOM     19  C   UNL     1      47.789   6.353  13.888  0.00  0.00    +0.000 A 
ATOM     20  F   UNL     1      48.959   6.765  14.401  0.00  0.00    +0.000 F 
ATOM     21  C   UNL     1      47.101   7.135  12.944  0.00  0.00    +0.000 A 
ATOM     22  C   UNL     1      45.858   6.636  12.497  0.00  0.00    +0.000 A 
BRANCH  21  23
ATOM     23  C   UNL     1      47.660   8.410  12.427  0.00  0.00    +0.000 A 
ATOM     24  C   UNL     1      48.858   8.442  11.698  0.00  0.00    +0.000 A 
ATOM     25  C   UNL     1      49.347   9.652  11.225  0.00  0.00    +0.000 A 
ATOM     26  N   UNL     1      48.728  10.833  11.410  0.00  0.00    +0.000 NA
ATOM     27  C   UNL     1      47.576  10.800  12.107  0.00  0.00    +0.000 A 
ATOM     28  C   UNL     1      47.017   9.640  12.629  0.00  0.00    +0.000 A 
ENDBRANCH  21  23
ENDBRANCH  15  16
ENDBRANCH   1  15
TORSDOF 7
ENDMDL
MODEL 5
REMARK VINA RESULT:    -7.190      3.839      8.284
REMARK INTER + INTRA:         -10.843
REMARK INTER:                  -9.874
REMARK INTRA:                  -0.969
REMARK UNBOUND:                -0.921
REMARK  Name = 
REMARK  9 active torsions:
REMARK  status: ('A' for Active; 'I' for Inactive)
REMARK    1  A    between atoms: C_1  and  C_2
REMARK    2  A    between atoms: C_4  and  C_5
REMARK    3  A    between atoms: C_5  and  C_6
REMARK    4  A    between atoms: C_5  and  C_7
REMARK    5  A    between atoms: C_7  and  O_8
REMARK    6  A    between atoms: O_8  and  C_9
REMARK    7  A    between atoms: C_14  and  C_15
REMARK    8  A    between atoms: C_24  and  C_25
REMARK    9  A    between atoms: C_25  and  O_27
REMARK                            x       y       z     vdW  Elec       q    Type
REMARK                         _______ _______ _______ _____ _____    ______ ____
ROOT
ATOM      1  C   UNL     1      48.851   6.447  16.203  0.00  0.00    +0.000 C 
ENDROOT
BRANCH   1   2
ATOM      2  C   UNL     1      48.223   5.282  16.979  0.00  0.00    +0.000 C 
ATOM      3  C   UNL     1      47.799   5.759  18.371  0.00  0.00    +0.000 C 
BRANCH   2   7
ATOM      4  C   UNL     1      52.612   3.768  18.434  0.00  0.00    +0.000 C 
ATOM      5  C   UNL     1      51.308   3.371  17.804  0.00  0.00    +0.000 A 
ATOM      6  N   UNL     1      50.409   4.386  17.661  0.00  0.00    +0.000 NA
ATOM      7  C   UNL     1      49.201   4.127  17.104  0.00  0.00    +0.000 A 
ATOM      8  C   UNL     1      48.848   2.851  16.682  0.00  0.00    +0.000 A 
ATOM      9  C   UNL     1      49.764   1.812  16.835  0.00  0.00    +0.000 A 
ATOM     10  C   UNL     1      51.027   2.066  17.386  0.00  0.00    +0.000 A 
BRANCH  10  11
ATOM     11  C   UNL     1      52.009   0.966  17.565  0.00  0.00    +0.000 C 
ATOM     12  O   UNL     1      53.085   0.919  16.996  0.00  0.00    +0.000 OA
BRANCH  11  13
ATOM     13  O   UNL     1      51.603  -0.001  18.417  0.00  0.00    +0.000 OA
ATOM     14  H   UNL     1      51.636   0.221  19.365  0.00  0.00    +0.000 HD
ENDBRANCH  11  13
ENDBRANCH  10  11
ENDBRANCH   2   7
ENDBRANCH   1   2
BRANCH   1  15
ATOM     15  O   UNL     1      48.901   6.146  14.800  0.00  0.00    +0.000 OA
BRANCH  15  16
ATOM     16  C   UNL     1      47.850   6.620  14.057  0.00  0.00    +0.000 A 
ATOM     17  C   UNL     1      47.554   7.970  13.864  0.00  0.00    +0.000 A 
ATOM     18  C   UNL     1      46.444   8.333  13.103  0.00  0.00    +0.000 A 
ATOM     19  C   UNL     1      45.647   7.353  12.524  0.00  0.00    +0.000 A 
ATOM     20  F   UNL     1      44.574   7.769  11.831  0.00  0.00    +0.000 F 
ATOM     21  C   UNL     1      45.930   5.983  12.657  0.00  0.00    +0.000 A 
ATOM     22  C   UNL     1      47.056   5.645  13.440  0.00  0.00    +0.000 A 
BRANCH  21  23
ATOM     23  C   UNL     1      45.104   4.944  11.993  0.00  0.00    +0.000 A 
ATOM     24  C   UNL     1      44.287   4.074  12.732  0.00  0.00    +0.000 A 
ATOM     25  C   UNL     1      43.524   3.119  12.077  0.00  0.00    +0.000 A 
ATOM     26  N   UNL     1      43.499   2.970  10.739  0.00  0.00    +0.000 NA
ATOM     27  C   UNL     1      44.280   3.806  10.030  0.00  0.00    +0.000 A 
ATOM     28  C   UNL     1      45.087   4.784  10.599  0.00  0.00    +0.000 A 
ENDBRANCH  21  23
ENDBRANCH  15  16
ENDBRANCH   1  15
TORSDOF 7
ENDMDL
MODEL 6
REMARK VINA RESULT:    -7.014      3.815      7.829
REMARK INTER + INTRA:         -10.600
REMARK INTER:                  -9.934
REMARK INTRA:                  -0.665
REMARK UNBOUND:                -0.921
REMARK  Name = 
REMARK  9 active torsions:
REMARK  status: ('A' for Active; 'I' for Inactive)
REMARK    1  A    between atoms: C_1  and  C_2
REMARK    2  A    between atoms: C_4  and  C_5
REMARK    3  A    between atoms: C_5  and  C_6
REMARK    4  A    between atoms: C_5  and  C_7
REMARK    5  A    between atoms: C_7  and  O_8
REMARK    6  A    between atoms: O_8  and  C_9
REMARK    7  A    between atoms: C_14  and  C_15
REMARK    8  A    between atoms: C_24  and  C_25
REMARK    9  A    between atoms: C_25  and  O_27
REMARK                            x       y       z     vdW  Elec       q    Type
REMARK                         _______ _______ _______ _____ _____    ______ ____
ROOT
ATOM      1  C   UNL     1      44.645   6.828  11.985  0.00  0.00    +0.000 C 
ENDROOT
BRANCH   1   2
ATOM      2  C   UNL     1      45.284   8.161  12.398  0.00  0.00    +0.000 C 
ATOM      3  C   UNL     1      44.764   9.283  11.495  0.00  0.00    +0.000 C 
BRANCH   2   7
ATOM      4  C   UNL     1      49.439  10.405  11.231  0.00  0.00    +0.000 C 
ATOM      5  C   UNL     1      48.815   9.146  11.762  0.00  0.00    +0.000 A 
ATOM      6  N   UNL     1      47.455   9.173  11.841  0.00  0.00    +0.000 NA
ATOM      7  C   UNL     1      46.798   8.083  12.309  0.00  0.00    +0.000 A 
ATOM      8  C   UNL     1      47.474   6.941  12.720  0.00  0.00    +0.000 A 
ATOM      9  C   UNL     1      48.866   6.918  12.644  0.00  0.00    +0.000 A 
ATOM     10  C   UNL     1      49.560   8.025  12.140  0.00  0.00    +0.000 A 
BRANCH  10  11
ATOM     11  C   UNL     1      51.044   8.017  12.066  0.00  0.00    +0.000 C 
ATOM     12  O   UNL     1      51.765   8.565  12.881  0.00  0.00    +0.000 OA
BRANCH  11  13
ATOM     13  O   UNL     1      51.538   7.351  11.000  0.00  0.00    +0.000 OA
ATOM     14  H   UNL     1      52.432   6.978  11.103  0.00  0.00    +0.000 HD
ENDBRANCH  11  13
ENDBRANCH  10  11
ENDBRANCH   2   7
ENDBRANCH   1   2
BRANCH   1  15
ATOM     15  O   UNL     1      45.135   6.413  10.702  0.00  0.00    +0.000 OA
BRANCH  15  16
ATOM     16  C   UNL     1      44.888   5.106  10.369  0.00  0.00    +0.000 A 
ATOM     17  C   UNL     1      43.980   4.274  11.025  0.00  0.00    +0.000 A 
ATOM     18  C   UNL     1      43.827   2.953  10.610  0.00  0.00    +0.000 A 
ATOM     19  C   UNL     1      44.565   2.471   9.534  0.00  0.00    +0.000 A 
ATOM     20  F   UNL     1      44.396   1.180   9.206  0.00  0.00    +0.000 F 
ATOM     21  C   UNL     1      45.460   3.284   8.818  0.00  0.00    +0.000 A 
ATOM     22  C   UNL     1      45.599   4.616   9.267  0.00  0.00    +0.000 A 
BRANCH  21  23
ATOM     23  C   UNL     1      46.206   2.778   7.638  0.00  0.00    +0.000 A 
ATOM     24  C   UNL     1      46.792   1.503   7.634  0.00  0.00    +0.000 A 
ATOM     25  C   UNL     1      47.477   1.061   6.511  0.00  0.00    +0.000 A 
ATOM     26  N   UNL     1      47.612   1.785   5.384  0.00  0.00    +0.000 NA
ATOM     27  C   UNL     1      47.046   3.007   5.388  0.00  0.00    +0.000 A 
ATOM     28  C   UNL     1      46.354   3.538   6.469  0.00  0.00    +0.000 A 
ENDBRANCH  21  23
ENDBRANCH  15  16
ENDBRANCH   1  15
TORSDOF 7
ENDMDL
MODEL 7
REMARK VINA RESULT:    -6.888      4.116      7.598
REMARK INTER + INTRA:         -10.427
REMARK INTER:                  -8.747
REMARK INTRA:                  -1.680
REMARK UNBOUND:                -0.921
REMARK  Name = 
REMARK  9 active torsions:
REMARK  status: ('A' for Active; 'I' for Inactive)
REMARK    1  A    between atoms: C_1  and  C_2
REMARK    2  A    between atoms: C_4  and  C_5
REMARK    3  A    between atoms: C_5  and  C_6
REMARK    4  A    between atoms: C_5  and  C_7
REMARK    5  A    between atoms: C_7  and  O_8
REMARK    6  A    between atoms: O_8  and  C_9
REMARK    7  A    between atoms: C_14  and  C_15
REMARK    8  A    between atoms: C_24  and  C_25
REMARK    9  A    between atoms: C_25  and  O_27
REMARK                            x       y       z     vdW  Elec       q    Type
REMARK                         _______ _______ _______ _____ _____    ______ ____
ROOT
ATOM      1  C   UNL     1      48.096   9.140  14.484  0.00  0.00    +0.000 C 
ENDROOT
BRANCH   1   2
ATOM      2  C   UNL     1      49.318   8.317  14.913  0.00  0.00    +0.000 C 
ATOM      3  C   UNL     1      50.237   8.094  13.709  0.00  0.00    +0.000 C 
BRANCH   2   7
ATOM      4  C   UNL     1      46.946   4.125  14.232  0.00  0.00    +0.000 C 
ATOM      5  C   UNL     1      47.761   4.948  15.187  0.00  0.00    +0.000 A 
ATOM      6  N   UNL     1      48.150   6.163  14.706  0.00  0.00    +0.000 NA
ATOM      7  C   UNL     1      48.891   6.981  15.493  0.00  0.00    +0.000 A 
ATOM      8  C   UNL     1      49.276   6.610  16.776  0.00  0.00    +0.000 A 
ATOM      9  C   UNL     1      48.884   5.365  17.265  0.00  0.00    +0.000 A 
ATOM     10  C   UNL     1      48.096   4.518  16.475  0.00  0.00    +0.000 A 
BRANCH  10  11
ATOM     11  C   UNL     1      47.682   3.183  16.979  0.00  0.00    +0.000 C 
ATOM     12  O   UNL     1      48.356   2.175  16.859  0.00  0.00    +0.000 OA
BRANCH  11  13
ATOM     13  O   UNL     1      46.474   3.174  17.584  0.00  0.00    +0.000 OA
ATOM     14  H   UNL     1      46.475   2.994  18.542  0.00  0.00    +0.000 HD
ENDBRANCH  11  13
ENDBRANCH  10  11
ENDBRANCH   2   7
ENDBRANCH   1   2
BRANCH   1  15
ATOM     15  O   UNL     1      48.052   9.264  13.054  0.00  0.00    +0.000 OA
BRANCH  15  16
ATOM     16  C   UNL     1      46.817   9.089  12.484  0.00  0.00    +0.000 A 
ATOM     17  C   UNL     1      46.042  10.107  11.928  0.00  0.00    +0.000 A 
ATOM     18  C   UNL     1      44.790   9.812  11.393  0.00  0.00    +0.000 A 
ATOM     19  C   UNL     1      44.323   8.503  11.398  0.00  0.00    +0.000 A 
ATOM     20  F   UNL     1      43.094   8.290  10.898  0.00  0.00    +0.000 F 
ATOM     21  C   UNL     1      45.086   7.438  11.908  0.00  0.00    +0.000 A 
ATOM     22  C   UNL     1      46.347   7.770  12.451  0.00  0.00    +0.000 A 
BRANCH  21  23
ATOM     23  C   UNL     1      44.602   6.035  11.863  0.00  0.00    +0.000 A 
ATOM     24  C   UNL     1      45.001   5.156  10.844  0.00  0.00    +0.000 A 
ATOM     25  C   UNL     1      44.533   3.849  10.837  0.00  0.00    +0.000 A 
ATOM     26  N   UNL     1      43.708   3.345  11.774  0.00  0.00    +0.000 NA
ATOM     27  C   UNL     1      43.330   4.189  12.753  0.00  0.00    +0.000 A 
ATOM     28  C   UNL     1      43.736   5.515  12.835  0.00  0.00    +0.000 A 
ENDBRANCH  21  23
ENDBRANCH  15  16
ENDBRANCH   1  15
TORSDOF 7
ENDMDL
MODEL 8
REMARK VINA RESULT:    -6.699      4.560      6.537
REMARK INTER + INTRA:         -10.165
REMARK INTER:                  -8.862
REMARK INTRA:                  -1.303
REMARK UNBOUND:                -0.921
REMARK  Name = 
REMARK  9 active torsions:
REMARK  status: ('A' for Active; 'I' for Inactive)
REMARK    1  A    between atoms: C_1  and  C_2
REMARK    2  A    between atoms: C_4  and  C_5
REMARK    3  A    between atoms: C_5  and  C_6
REMARK    4  A    between atoms: C_5  and  C_7
REMARK    5  A    between atoms: C_7  and  O_8
REMARK    6  A    between atoms: O_8  and  C_9
REMARK    7  A    between atoms: C_14  and  C_15
REMARK    8  A    between atoms: C_24  and  C_25
REMARK    9  A    between atoms: C_25  and  O_27
REMARK                            x       y       z     vdW  Elec       q    Type
REMARK                         _______ _______ _______ _____ _____    ______ ____
ROOT
ATOM      1  C   UNL     1      48.830   7.982  14.789  0.00  0.00    +0.000 C 
ENDROOT
BRANCH   1   2
ATOM      2  C   UNL     1      48.834   6.883  13.718  0.00  0.00    +0.000 C 
ATOM      3  C   UNL     1      49.414   7.437  12.414  0.00  0.00    +0.000 C 
BRANCH   2   7
ATOM      4  C   UNL     1      44.533   7.535  11.542  0.00  0.00    +0.000 C 
ATOM      5  C   UNL     1      45.350   6.645  12.434  0.00  0.00    +0.000 A 
ATOM      6  N   UNL     1      46.613   7.092  12.685  0.00  0.00    +0.000 NA
ATOM      7  C   UNL     1      47.430   6.358  13.479  0.00  0.00    +0.000 A 
ATOM      8  C   UNL     1      47.019   5.154  14.037  0.00  0.00    +0.000 A 
ATOM      9  C   UNL     1      45.730   4.694  13.775  0.00  0.00    +0.000 A 
ATOM     10  C   UNL     1      44.863   5.452  12.977  0.00  0.00    +0.000 A 
BRANCH  10  11
ATOM     11  C   UNL     1      43.491   4.967  12.680  0.00  0.00    +0.000 C 
ATOM     12  O   UNL     1      43.225   4.200  11.771  0.00  0.00    +0.000 OA
BRANCH  11  13
ATOM     13  O   UNL     1      42.542   5.458  13.507  0.00  0.00    +0.000 OA
ATOM     14  H   UNL     1      41.644   5.098  13.392  0.00  0.00    +0.000 HD
ENDBRANCH  11  13
ENDBRANCH  10  11
ENDBRANCH   2   7
ENDBRANCH   1   2
BRANCH   1  15
ATOM     15  O   UNL     1      49.844   7.727  15.773  0.00  0.00    +0.000 OA
BRANCH  15  16
ATOM     16  C   UNL     1      49.517   6.805  16.733  0.00  0.00    +0.000 A 
ATOM     17  C   UNL     1      48.396   6.878  17.561  0.00  0.00    +0.000 A 
ATOM     18  C   UNL     1      48.175   5.889  18.517  0.00  0.00    +0.000 A 
ATOM     19  C   UNL     1      49.061   4.824  18.634  0.00  0.00    +0.000 A 
ATOM     20  F   UNL     1      48.810   3.923  19.598  0.00  0.00    +0.000 F 
ATOM     21  C   UNL     1      50.181   4.687  17.794  0.00  0.00    +0.000 A 
ATOM     22  C   UNL     1      50.382   5.708  16.840  0.00  0.00    +0.000 A 
BRANCH  21  23
ATOM     23  C   UNL     1      51.093   3.520  17.890  0.00  0.00    +0.000 A 
ATOM     24  C   UNL     1      52.326   3.607  18.555  0.00  0.00    +0.000 A 
ATOM     25  C   UNL     1      53.151   2.494  18.629  0.00  0.00    +0.000 A 
ATOM     26  N   UNL     1      52.838   1.294  18.105  0.00  0.00    +0.000 NA
ATOM     27  C   UNL     1      51.653   1.211  17.471  0.00  0.00    +0.000 A 
ATOM     28  C   UNL     1      50.769   2.273  17.334  0.00  0.00    +0.000 A 
ENDBRANCH  21  23
ENDBRANCH  15  16
ENDBRANCH   1  15
TORSDOF 7
ENDMDL
MODEL 9
REMARK VINA RESULT:    -6.681      3.235      5.183
REMARK INTER + INTRA:         -10.140
REMARK INTER:                  -8.803
REMARK INTRA:                  -1.337
REMARK UNBOUND:                -0.921
REMARK  Name = 
REMARK  9 active torsions:
REMARK  status: ('A' for Active; 'I' for Inactive)
REMARK    1  A    between atoms: C_1  and  C_2
REMARK    2  A    between atoms: C_4  and  C_5
REMARK    3  A    between atoms: C_5  and  C_6
REMARK    4  A    between atoms: C_5  and  C_7
REMARK    5  A    between atoms: C_7  and  O_8
REMARK    6  A    between atoms: O_8  and  C_9
REMARK    7  A    between atoms: C_14  and  C_15
REMARK    8  A    between atoms: C_24  and  C_25
REMARK    9  A    between atoms: C_25  and  O_27
REMARK                            x       y       z     vdW  Elec       q    Type
REMARK                         _______ _______ _______ _____ _____    ______ ____
ROOT
ATOM      1  C   UNL     1      48.642   7.815  13.047  0.00  0.00    +0.000 C 
ENDROOT
BRANCH   1   2
ATOM      2  C   UNL     1      47.566   7.967  11.963  0.00  0.00    +0.000 C 
ATOM      3  C   UNL     1      46.798   9.273  12.179  0.00  0.00    +0.000 C 
BRANCH   2   7
ATOM      4  C   UNL     1      45.178   4.574   9.423  0.00  0.00    +0.000 C 
ATOM      5  C   UNL     1      45.450   5.140  10.787  0.00  0.00    +0.000 A 
ATOM      6  N   UNL     1      46.297   6.209  10.803  0.00  0.00    +0.000 NA
ATOM      7  C   UNL     1      46.606   6.791  11.988  0.00  0.00    +0.000 A 
ATOM      8  C   UNL     1      46.091   6.321  13.190  0.00  0.00    +0.000 A 
ATOM      9  C   UNL     1      45.231   5.225  13.173  0.00  0.00    +0.000 A 
ATOM     10  C   UNL     1      44.881   4.626  11.956  0.00  0.00    +0.000 A 
BRANCH  10  11
ATOM     11  C   UNL     1      43.975   3.450  11.926  0.00  0.00    +0.000 C 
ATOM     12  O   UNL     1      42.876   3.455  11.398  0.00  0.00    +0.000 OA
BRANCH  11  13
ATOM     13  O   UNL     1      44.470   2.357  12.547  0.00  0.00    +0.000 OA
ATOM     14  H   UNL     1      45.362   2.448  12.929  0.00  0.00    +0.000 HD
ENDBRANCH  11  13
ENDBRANCH  10  11
ENDBRANCH   2   7
ENDBRANCH   1   2
BRANCH   1  15
ATOM     15  O   UNL     1      48.511   8.851  14.032  0.00  0.00    +0.000 OA
BRANCH  15  16
ATOM     16  C   UNL     1      48.500   8.427  15.336  0.00  0.00    +0.000 A 
ATOM     17  C   UNL     1      48.167   9.225  16.431  0.00  0.00    +0.000 A 
ATOM     18  C   UNL     1      48.211   8.689  17.717  0.00  0.00    +0.000 A 
ATOM     19  C   UNL     1      48.569   7.359  17.904  0.00  0.00    +0.000 A 
ATOM     20  F   UNL     1      48.625   6.914  19.170  0.00  0.00    +0.000 F 
ATOM     21  C   UNL     1      48.872   6.507  16.828  0.00  0.00    +0.000 A 
ATOM     22  C   UNL     1      48.827   7.080  15.539  0.00  0.00    +0.000 A 
BRANCH  21  23
ATOM     23  C   UNL     1      49.203   5.075  17.032  0.00  0.00    +0.000 A 
ATOM     24  C   UNL     1      48.253   4.065  16.816  0.00  0.00    +0.000 A 
ATOM     25  C   UNL     1      48.600   2.736  17.011  0.00  0.00    +0.000 A 
ATOM     26  N   UNL     1      49.826   2.331  17.393  0.00  0.00    +0.000 NA
ATOM     27  C   UNL     1      50.738   3.300  17.598  0.00  0.00    +0.000 A 
ATOM     28  C   UNL     1      50.479   4.656  17.440  0.00  0.00    +0.000 A 
ENDBRANCH  21  23
ENDBRANCH  15  16
ENDBRANCH   1  15
TORSDOF 7
ENDMDL
