MODEL 1
REMARK VINA RESULT:    -8.068      0.000      0.000
REMARK INTER + INTRA:         -10.382
REMARK INTER:                 -10.426
REMARK INTRA:                   0.044
REMARK UNBOUND:                 0.044
REMARK  Name = 
REMARK  5 active torsions:
REMARK  status: ('A' for Active; 'I' for Inactive)
REMARK    1  A    between atoms: C_5  and  C_6
REMARK    2  A    between atoms: C_14  and  C_15
REMARK    3  A    between atoms: C_15  and  S_16
REMARK    4  A    between atoms: S_16  and  C_17
REMARK    5  A    between atoms: C_20  and  C_21
REMARK                            x       y       z     vdW  Elec       q    Type
REMARK                         _______ _______ _______ _____ _____    ______ ____
ROOT
ATOM      1  F   UNL     1      43.093   4.566  12.540  0.00  0.00    +0.000 F 
ATOM      2  C   UNL     1      43.800   4.137  11.485  0.00  0.00    +0.000 A 
ATOM      3  C   UNL     1      43.574   2.848  11.017  0.00  0.00    +0.000 A 
ATOM      4  C   UNL     1      44.271   2.380   9.902  0.00  0.00    +0.000 A 
ATOM      5  C   UNL     1      45.196   3.195   9.219  0.00  0.00    +0.000 A 
ATOM      6  C   UNL     1      45.395   4.496   9.734  0.00  0.00    +0.000 A 
ATOM      7  F   UNL     1      46.237   5.333   9.103  0.00  0.00    +0.000 F 
ATOM      8  C   UNL     1      44.725   4.978  10.870  0.00  0.00    +0.000 A 
ENDROOT
BRANCH   5   9
ATOM      9  C   UNL     1      45.921   2.680   8.028  0.00  0.00    +0.000 A 
ATOM     10  C   UNL     1      46.494   1.398   8.014  0.00  0.00    +0.000 A 
ATOM     11  C   UNL     1      47.210   0.975   6.901  0.00  0.00    +0.000 A 
ATOM     12  N   UNL     1      47.384   1.721   5.794  0.00  0.00    +0.000 NA
ATOM     13  C   UNL     1      46.817   2.943   5.802  0.00  0.00    +0.000 A 
ATOM     14  C   UNL     1      46.095   3.455   6.873  0.00  0.00    +0.000 A 
ENDBRANCH   5   9
BRANCH   8  15
ATOM     15  C   UNL     1      44.960   6.379  11.371  0.00  0.00    +0.000 C 
BRANCH  15  16
ATOM     16  S   UNL     1      46.721   6.761  11.641  0.00  0.00    +0.000 S 
BRANCH  16  17
ATOM     17  C   UNL     1      47.011   5.822  13.120  0.00  0.00    +0.000 A 
ATOM     18  N   UNL     1      46.537   4.568  13.199  0.00  0.00    +0.000 NA
ATOM     19  C   UNL     1      46.796   3.889  14.335  0.00  0.00    +0.000 A 
ATOM     20  C   UNL     1      47.511   4.407  15.387  0.00  0.00    +0.000 A 
ATOM     21  C   UNL     1      47.939   5.702  15.216  0.00  0.00    +0.000 A 
ATOM     22  N   UNL     1      47.705   6.425  14.100  0.00  0.00    +0.000 NA
BRANCH  20  23
ATOM     23  C   UNL     1      47.807   3.629  16.616  0.00  0.00    +0.000 C 
ATOM     24  F   UNL     1      48.410   2.434  16.367  0.00  0.00    +0.000 F 
ATOM     25  F   UNL     1      48.638   4.294  17.464  0.00  0.00    +0.000 F 
ATOM     26  F   UNL     1      46.691   3.339  17.340  0.00  0.00    +0.000 F 
ENDBRANCH  20  23
ENDBRANCH  16  17
ENDBRANCH  15  16
ENDBRANCH   8  15
TORSDOF 5
ENDMDL
MODEL 2
REMARK VINA RESULT:    -8.030      3.103      7.160
REMARK INTER + INTRA:         -10.332
REMARK INTER:                  -9.766
REMARK INTRA:                  -0.566
REMARK UNBOUND:                 0.044
REMARK  Name = 
REMARK  5 active torsions:
REMARK  status: ('A' for Active; 'I' for Inactive)
REMARK    1  A    between atoms: C_5  and  C_6
REMARK    2  A    between atoms: C_14  and  C_15
REMARK    3  A    between atoms: C_15  and  S_16
REMARK    4  A    between atoms: S_16  and  C_17
REMARK    5  A    between atoms: C_20  and  C_21
REMARK                            x       y       z     vdW  Elec       q    Type
REMARK                         _______ _______ _______ _____ _____    ______ ____
ROOT
ATOM      1  F   UNL     1      44.586   3.790  13.638  0.00  0.00    +0.000 F 
ATOM      2  C   UNL     1      45.442   4.742  13.243  0.00  0.00    +0.000 A 
ATOM      3  C   UNL     1      46.600   4.940  13.985  0.00  0.00    +0.000 A 
ATOM      4  C   UNL     1      47.528   5.903  13.584  0.00  0.00    +0.000 A 
ATOM      5  C   UNL     1      47.328   6.676  12.423  0.00  0.00    +0.000 A 
ATOM      6  C   UNL     1      46.135   6.441  11.703  0.00  0.00    +0.000 A 
ATOM      7  F   UNL     1      45.906   7.121  10.566  0.00  0.00    +0.000 F 
ATOM      8  C   UNL     1      45.175   5.498  12.103  0.00  0.00    +0.000 A 
ENDROOT
BRANCH   5   9
ATOM      9  C   UNL     1      48.334   7.689  12.009  0.00  0.00    +0.000 A 
ATOM     10  C   UNL     1      49.653   7.329  11.692  0.00  0.00    +0.000 A 
ATOM     11  C   UNL     1      50.577   8.314  11.362  0.00  0.00    +0.000 A 
ATOM     12  N   UNL     1      50.285   9.626  11.307  0.00  0.00    +0.000 NA
ATOM     13  C   UNL     1      49.013   9.968  11.593  0.00  0.00    +0.000 A 
ATOM     14  C   UNL     1      48.026   9.056  11.945  0.00  0.00    +0.000 A 
ENDBRANCH   5   9
BRANCH   8  15
ATOM     15  C   UNL     1      43.925   5.273  11.292  0.00  0.00    +0.000 C 
BRANCH  15  16
ATOM     16  S   UNL     1      43.572   3.510  10.990  0.00  0.00    +0.000 S 
BRANCH  16  17
ATOM     17  C   UNL     1      44.639   3.221   9.601  0.00  0.00    +0.000 A 
ATOM     18  N   UNL     1      44.994   4.258   8.824  0.00  0.00    +0.000 NA
ATOM     19  C   UNL     1      45.818   3.992   7.790  0.00  0.00    +0.000 A 
ATOM     20  C   UNL     1      46.305   2.740   7.506  0.00  0.00    +0.000 A 
ATOM     21  C   UNL     1      45.872   1.744   8.350  0.00  0.00    +0.000 A 
ATOM     22  N   UNL     1      45.047   1.958   9.396  0.00  0.00    +0.000 NA
BRANCH  20  23
ATOM     23  C   UNL     1      47.234   2.478   6.379  0.00  0.00    +0.000 C 
ATOM     24  F   UNL     1      46.991   3.253   5.286  0.00  0.00    +0.000 F 
ATOM     25  F   UNL     1      48.534   2.707   6.713  0.00  0.00    +0.000 F 
ATOM     26  F   UNL     1      47.183   1.190   5.940  0.00  0.00    +0.000 F 
ENDBRANCH  20  23
ENDBRANCH  16  17
ENDBRANCH  15  16
ENDBRANCH   8  15
TORSDOF 5
ENDMDL
MODEL 3
REMARK VINA RESULT:    -7.938      3.276      7.456
REMARK INTER + INTRA:         -10.215
REMARK INTER:                 -10.322
REMARK INTRA:                   0.108
REMARK UNBOUND:                 0.044
REMARK  Name = 
REMARK  5 active torsions:
REMARK  status: ('A' for Active; 'I' for Inactive)
REMARK    1  A    between atoms: C_5  and  C_6
REMARK    2  A    between atoms: C_14  and  C_15
REMARK    3  A    between atoms: C_15  and  S_16
REMARK    4  A    between atoms: S_16  and  C_17
REMARK    5  A    between atoms: C_20  and  C_21
REMARK                            x       y       z     vdW  Elec       q    Type
REMARK                         _______ _______ _______ _____ _____    ______ ____
ROOT
ATOM      1  F   UNL     1      46.568   3.275  13.529  0.00  0.00    +0.000 F 
ATOM      2  C   UNL     1      46.464   4.581  13.253  0.00  0.00    +0.000 A 
ATOM      3  C   UNL     1      47.510   5.421  13.617  0.00  0.00    +0.000 A 
ATOM      4  C   UNL     1      47.447   6.783  13.317  0.00  0.00    +0.000 A 
ATOM      5  C   UNL     1      46.347   7.332  12.630  0.00  0.00    +0.000 A 
ATOM      6  C   UNL     1      45.306   6.441  12.282  0.00  0.00    +0.000 A 
ATOM      7  F   UNL     1      44.248   6.900  11.593  0.00  0.00    +0.000 F 
ATOM      8  C   UNL     1      45.336   5.073  12.599  0.00  0.00    +0.000 A 
ENDROOT
BRANCH   5   9
ATOM      9  C   UNL     1      46.304   8.784  12.312  0.00  0.00    +0.000 A 
ATOM     10  C   UNL     1      45.089   9.474  12.184  0.00  0.00    +0.000 A 
ATOM     11  C   UNL     1      45.091  10.818  11.833  0.00  0.00    +0.000 A 
ATOM     12  N   UNL     1      46.211  11.533  11.616  0.00  0.00    +0.000 NA
ATOM     13  C   UNL     1      47.377  10.874  11.758  0.00  0.00    +0.000 A 
ATOM     14  C   UNL     1      47.472   9.530  12.093  0.00  0.00    +0.000 A 
ENDBRANCH   5   9
BRANCH   8  15
ATOM     15  C   UNL     1      44.209   4.160  12.192  0.00  0.00    +0.000 C 
BRANCH  15  16
ATOM     16  S   UNL     1      43.443   4.625  10.605  0.00  0.00    +0.000 S 
BRANCH  16  17
ATOM     17  C   UNL     1      44.548   3.804   9.483  0.00  0.00    +0.000 A 
ATOM     18  N   UNL     1      45.223   4.536   8.582  0.00  0.00    +0.000 NA
ATOM     19  C   UNL     1      46.061   3.871   7.761  0.00  0.00    +0.000 A 
ATOM     20  C   UNL     1      46.257   2.512   7.810  0.00  0.00    +0.000 A 
ATOM     21  C   UNL     1      45.509   1.851   8.756  0.00  0.00    +0.000 A 
ATOM     22  N   UNL     1      44.655   2.471   9.599  0.00  0.00    +0.000 NA
BRANCH  20  23
ATOM     23  C   UNL     1      47.207   1.807   6.915  0.00  0.00    +0.000 C 
ATOM     24  F   UNL     1      47.402   0.502   7.254  0.00  0.00    +0.000 F 
ATOM     25  F   UNL     1      46.790   1.793   5.620  0.00  0.00    +0.000 F 
ATOM     26  F   UNL     1      48.444   2.376   6.902  0.00  0.00    +0.000 F 
ENDBRANCH  20  23
ENDBRANCH  16  17
ENDBRANCH  15  16
ENDBRANCH   8  15
TORSDOF 5
ENDMDL
MODEL 4
REMARK VINA RESULT:    -7.908      2.975      7.281
REMARK INTER + INTRA:         -10.176
REMARK INTER:                  -9.758
REMARK INTRA:                  -0.417
REMARK UNBOUND:                 0.044
REMARK  Name = 
REMARK  5 active torsions:
REMARK  status: ('A' for Active; 'I' for Inactive)
REMARK    1  A    between atoms: C_5  and  C_6
REMARK    2  A    between atoms: C_14  and  C_15
REMARK    3  A    between atoms: C_15  and  S_16
REMARK    4  A    between atoms: S_16  and  C_17
REMARK    5  A    between atoms: C_20  and  C_21
REMARK                            x       y       z     vdW  Elec       q    Type
REMARK                         _______ _______ _______ _____ _____    ______ ____
ROOT
ATOM      1  F   UNL     1      43.061   6.191  11.620  0.00  0.00    +0.000 F 
ATOM      2  C   UNL     1      44.355   6.457  11.845  0.00  0.00    +0.000 A 
ATOM      3  C   UNL     1      44.792   7.770  11.720  0.00  0.00    +0.000 A 
ATOM      4  C   UNL     1      46.127   8.088  11.976  0.00  0.00    +0.000 A 
ATOM      5  C   UNL     1      47.050   7.104  12.383  0.00  0.00    +0.000 A 
ATOM      6  C   UNL     1      46.560   5.782  12.494  0.00  0.00    +0.000 A 
ATOM      7  F   UNL     1      47.384   4.807  12.913  0.00  0.00    +0.000 F 
ATOM      8  C   UNL     1      45.228   5.436  12.213  0.00  0.00    +0.000 A 
ENDROOT
BRANCH   5   9
ATOM      9  C   UNL     1      48.465   7.465  12.661  0.00  0.00    +0.000 A 
ATOM     10  C   UNL     1      48.972   7.501  13.969  0.00  0.00    +0.000 A 
ATOM     11  C   UNL     1      50.285   7.897  14.190  0.00  0.00    +0.000 A 
ATOM     12  N   UNL     1      51.138   8.242  13.208  0.00  0.00    +0.000 NA
ATOM     13  C   UNL     1      50.655   8.189  11.952  0.00  0.00    +0.000 A 
ATOM     14  C   UNL     1      49.355   7.818  11.636  0.00  0.00    +0.000 A 
ENDBRANCH   5   9
BRANCH   8  15
ATOM     15  C   UNL     1      44.750   4.015  12.362  0.00  0.00    +0.000 C 
BRANCH  15  16
ATOM     16  S   UNL     1      43.533   3.530  11.095  0.00  0.00    +0.000 S 
BRANCH  16  17
ATOM     17  C   UNL     1      44.626   3.210   9.732  0.00  0.00    +0.000 A 
ATOM     18  N   UNL     1      45.008   1.946   9.487  0.00  0.00    +0.000 NA
ATOM     19  C   UNL     1      45.826   1.751   8.432  0.00  0.00    +0.000 A 
ATOM     20  C   UNL     1      46.269   2.761   7.614  0.00  0.00    +0.000 A 
ATOM     21  C   UNL     1      45.835   4.019   7.957  0.00  0.00    +0.000 A 
ATOM     22  N   UNL     1      45.018   4.268   9.003  0.00  0.00    +0.000 NA
BRANCH  20  23
ATOM     23  C   UNL     1      47.146   2.516   6.441  0.00  0.00    +0.000 C 
ATOM     24  F   UNL     1      47.046   1.251   5.946  0.00  0.00    +0.000 F 
ATOM     25  F   UNL     1      46.864   3.345   5.399  0.00  0.00    +0.000 F 
ATOM     26  F   UNL     1      48.466   2.703   6.719  0.00  0.00    +0.000 F 
ENDBRANCH  20  23
ENDBRANCH  16  17
ENDBRANCH  15  16
ENDBRANCH   8  15
TORSDOF 5
ENDMDL
MODEL 5
REMARK VINA RESULT:    -7.767      2.617      7.751
REMARK INTER + INTRA:          -9.993
REMARK INTER:                  -9.277
REMARK INTRA:                  -0.716
REMARK UNBOUND:                 0.044
REMARK  Name = 
REMARK  5 active torsions:
REMARK  status: ('A' for Active; 'I' for Inactive)
REMARK    1  A    between atoms: C_5  and  C_6
REMARK    2  A    between atoms: C_14  and  C_15
REMARK    3  A    between atoms: C_15  and  S_16
REMARK    4  A    between atoms: S_16  and  C_17
REMARK    5  A    between atoms: C_20  and  C_21
REMARK                            x       y       z     vdW  Elec       q    Type
REMARK                         _______ _______ _______ _____ _____    ______ ____
ROOT
ATOM      1  F   UNL     1      45.944   6.929  10.419  0.00  0.00    +0.000 F 
ATOM      2  C   UNL     1      46.246   6.314  11.570  0.00  0.00    +0.000 A 
ATOM      3  C   UNL     1      47.484   6.564  12.149  0.00  0.00    +0.000 A 
ATOM      4  C   UNL     1      47.820   5.963  13.363  0.00  0.00    +0.000 A 
ATOM      5  C   UNL     1      46.917   5.115  14.036  0.00  0.00    +0.000 A 
ATOM      6  C   UNL     1      45.672   4.889  13.408  0.00  0.00    +0.000 A 
ATOM      7  F   UNL     1      44.756   4.118  14.020  0.00  0.00    +0.000 F 
ATOM      8  C   UNL     1      45.325   5.460  12.173  0.00  0.00    +0.000 A 
ENDROOT
BRANCH   5   9
ATOM      9  C   UNL     1      47.291   4.493  15.334  0.00  0.00    +0.000 A 
ATOM     10  C   UNL     1      47.316   5.235  16.525  0.00  0.00    +0.000 A 
ATOM     11  C   UNL     1      47.723   4.629  17.707  0.00  0.00    +0.000 A 
ATOM     12  N   UNL     1      48.092   3.338  17.799  0.00  0.00    +0.000 NA
ATOM     13  C   UNL     1      48.048   2.623  16.658  0.00  0.00    +0.000 A 
ATOM     14  C   UNL     1      47.667   3.146  15.429  0.00  0.00    +0.000 A 
ENDBRANCH   5   9
BRANCH   8  15
ATOM     15  C   UNL     1      43.977   5.201  11.551  0.00  0.00    +0.000 C 
BRANCH  15  16
ATOM     16  S   UNL     1      43.660   3.434  11.233  0.00  0.00    +0.000 S 
BRANCH  16  17
ATOM     17  C   UNL     1      44.654   3.205   9.779  0.00  0.00    +0.000 A 
ATOM     18  N   UNL     1      44.947   4.271   9.016  0.00  0.00    +0.000 NA
ATOM     19  C   UNL     1      45.717   4.051   7.931  0.00  0.00    +0.000 A 
ATOM     20  C   UNL     1      46.210   2.817   7.583  0.00  0.00    +0.000 A 
ATOM     21  C   UNL     1      45.842   1.788   8.419  0.00  0.00    +0.000 A 
ATOM     22  N   UNL     1      45.072   1.956   9.515  0.00  0.00    +0.000 NA
BRANCH  20  23
ATOM     23  C   UNL     1      47.080   2.605   6.400  0.00  0.00    +0.000 C 
ATOM     24  F   UNL     1      46.835   3.479   5.385  0.00  0.00    +0.000 F 
ATOM     25  F   UNL     1      48.401   2.742   6.695  0.00  0.00    +0.000 F 
ATOM     26  F   UNL     1      46.945   1.362   5.860  0.00  0.00    +0.000 F 
ENDBRANCH  20  23
ENDBRANCH  16  17
ENDBRANCH  15  16
ENDBRANCH   8  15
TORSDOF 5
ENDMDL
MODEL 6
REMARK VINA RESULT:    -7.726      2.945      3.838
REMARK INTER + INTRA:          -9.941
REMARK INTER:                  -9.449
REMARK INTRA:                  -0.491
REMARK UNBOUND:                 0.044
REMARK  Name = 
REMARK  5 active torsions:
REMARK  status: ('A' for Active; 'I' for Inactive)
REMARK    1  A    between atoms: C_5  and  C_6
REMARK    2  A    between atoms: C_14  and  C_15
REMARK    3  A    between atoms: C_15  and  S_16
REMARK    4  A    between atoms: S_16  and  C_17
REMARK    5  A    between atoms: C_20  and  C_21
REMARK                            x       y       z     vdW  Elec       q    Type
REMARK                         _______ _______ _______ _____ _____    ______ ____
ROOT
ATOM      1  F   UNL     1      42.988   4.503  12.461  0.00  0.00    +0.000 F 
ATOM      2  C   UNL     1      43.725   4.095  11.418  0.00  0.00    +0.000 A 
ATOM      3  C   UNL     1      43.582   2.785  10.979  0.00  0.00    +0.000 A 
ATOM      4  C   UNL     1      44.312   2.336   9.877  0.00  0.00    +0.000 A 
ATOM      5  C   UNL     1      45.185   3.193   9.177  0.00  0.00    +0.000 A 
ATOM      6  C   UNL     1      45.300   4.515   9.662  0.00  0.00    +0.000 A 
ATOM      7  F   UNL     1      46.089   5.389   9.014  0.00  0.00    +0.000 F 
ATOM      8  C   UNL     1      44.597   4.979  10.786  0.00  0.00    +0.000 A 
ENDROOT
BRANCH   5   9
ATOM      9  C   UNL     1      45.945   2.697   8.000  0.00  0.00    +0.000 A 
ATOM     10  C   UNL     1      46.534   1.423   7.988  0.00  0.00    +0.000 A 
ATOM     11  C   UNL     1      47.282   1.018   6.889  0.00  0.00    +0.000 A 
ATOM     12  N   UNL     1      47.475   1.777   5.794  0.00  0.00    +0.000 NA
ATOM     13  C   UNL     1      46.894   2.992   5.800  0.00  0.00    +0.000 A 
ATOM     14  C   UNL     1      46.140   3.486   6.857  0.00  0.00    +0.000 A 
ENDBRANCH   5   9
BRANCH   8  15
ATOM     15  C   UNL     1      44.741   6.404  11.255  0.00  0.00    +0.000 C 
BRANCH  15  16
ATOM     16  S   UNL     1      45.446   6.541  12.930  0.00  0.00    +0.000 S 
BRANCH  16  17
ATOM     17  C   UNL     1      47.061   7.163  12.528  0.00  0.00    +0.000 A 
ATOM     18  N   UNL     1      48.134   6.392  12.770  0.00  0.00    +0.000 NA
ATOM     19  C   UNL     1      49.337   6.900  12.434  0.00  0.00    +0.000 A 
ATOM     20  C   UNL     1      49.510   8.137  11.863  0.00  0.00    +0.000 A 
ATOM     21  C   UNL     1      48.353   8.854  11.670  0.00  0.00    +0.000 A 
ATOM     22  N   UNL     1      47.126   8.392  11.990  0.00  0.00    +0.000 NA
BRANCH  20  23
ATOM     23  C   UNL     1      50.843   8.662  11.476  0.00  0.00    +0.000 C 
ATOM     24  F   UNL     1      51.511   7.854  10.607  0.00  0.00    +0.000 F 
ATOM     25  F   UNL     1      50.766   9.877  10.866  0.00  0.00    +0.000 F 
ATOM     26  F   UNL     1      51.675   8.832  12.540  0.00  0.00    +0.000 F 
ENDBRANCH  20  23
ENDBRANCH  16  17
ENDBRANCH  15  16
ENDBRANCH   8  15
TORSDOF 5
ENDMDL
MODEL 7
REMARK VINA RESULT:    -7.269      3.711      7.752
REMARK INTER + INTRA:          -9.350
REMARK INTER:                  -9.920
REMARK INTRA:                   0.570
REMARK UNBOUND:                 0.044
REMARK  Name = 
REMARK  5 active torsions:
REMARK  status: ('A' for Active; 'I' for Inactive)
REMARK    1  A    between atoms: C_5  and  C_6
REMARK    2  A    between atoms: C_14  and  C_15
REMARK    3  A    between atoms: C_15  and  S_16
REMARK    4  A    between atoms: S_16  and  C_17
REMARK    5  A    between atoms: C_20  and  C_21
REMARK                            x       y       z     vdW  Elec       q    Type
REMARK                         _______ _______ _______ _____ _____    ______ ____
ROOT
ATOM      1  F   UNL     1      47.384   5.456  13.238  0.00  0.00    +0.000 F 
ATOM      2  C   UNL     1      46.607   6.448  12.782  0.00  0.00    +0.000 A 
ATOM      3  C   UNL     1      47.078   7.752  12.871  0.00  0.00    +0.000 A 
ATOM      4  C   UNL     1      46.307   8.807  12.379  0.00  0.00    +0.000 A 
ATOM      5  C   UNL     1      45.057   8.580  11.770  0.00  0.00    +0.000 A 
ATOM      6  C   UNL     1      44.618   7.238  11.704  0.00  0.00    +0.000 A 
ATOM      7  F   UNL     1      43.451   6.955  11.101  0.00  0.00    +0.000 F 
ATOM      8  C   UNL     1      45.365   6.165  12.218  0.00  0.00    +0.000 A 
ENDROOT
BRANCH   5   9
ATOM      9  C   UNL     1      44.257   9.717  11.244  0.00  0.00    +0.000 A 
ATOM     10  C   UNL     1      44.705  11.043  11.349  0.00  0.00    +0.000 A 
ATOM     11  C   UNL     1      43.902  12.081  10.894  0.00  0.00    +0.000 A 
ATOM     12  N   UNL     1      42.695  11.901  10.325  0.00  0.00    +0.000 NA
ATOM     13  C   UNL     1      42.276  10.626  10.207  0.00  0.00    +0.000 A 
ATOM     14  C   UNL     1      43.003   9.527  10.645  0.00  0.00    +0.000 A 
ENDBRANCH   5   9
BRANCH   8  15
ATOM     15  C   UNL     1      44.861   4.750  12.110  0.00  0.00    +0.000 C 
BRANCH  15  16
ATOM     16  S   UNL     1      43.635   4.522  10.781  0.00  0.00    +0.000 S 
BRANCH  16  17
ATOM     17  C   UNL     1      44.662   3.759   9.549  0.00  0.00    +0.000 A 
ATOM     18  N   UNL     1      45.256   4.533   8.625  0.00  0.00    +0.000 NA
ATOM     19  C   UNL     1      46.038   3.910   7.720  0.00  0.00    +0.000 A 
ATOM     20  C   UNL     1      46.255   2.554   7.705  0.00  0.00    +0.000 A 
ATOM     21  C   UNL     1      45.592   1.849   8.681  0.00  0.00    +0.000 A 
ATOM     22  N   UNL     1      44.797   2.424   9.608  0.00  0.00    +0.000 NA
BRANCH  20  23
ATOM     23  C   UNL     1      47.144   1.896   6.715  0.00  0.00    +0.000 C 
ATOM     24  F   UNL     1      48.446   2.286   6.814  0.00  0.00    +0.000 F 
ATOM     25  F   UNL     1      47.153   0.541   6.845  0.00  0.00    +0.000 F 
ATOM     26  F   UNL     1      46.779   2.145   5.428  0.00  0.00    +0.000 F 
ENDBRANCH  20  23
ENDBRANCH  16  17
ENDBRANCH  15  16
ENDBRANCH   8  15
TORSDOF 5
ENDMDL
MODEL 8
REMARK VINA RESULT:    -7.079      3.068      4.721
REMARK INTER + INTRA:          -9.104
REMARK INTER:                  -8.223
REMARK INTRA:                  -0.881
REMARK UNBOUND:                 0.044
REMARK  Name = 
REMARK  5 active torsions:
REMARK  status: ('A' for Active; 'I' for Inactive)
REMARK    1  A    between atoms: C_5  and  C_6
REMARK    2  A    between atoms: C_14  and  C_15
REMARK    3  A    between atoms: C_15  and  S_16
REMARK    4  A    between atoms: S_16  and  C_17
REMARK    5  A    between atoms: C_20  and  C_21
REMARK                            x       y       z     vdW  Elec       q    Type
REMARK                         _______ _______ _______ _____ _____    ______ ____
ROOT
ATOM      1  F   UNL     1      47.901  10.151  12.622  0.00  0.00    +0.000 F 
ATOM      2  C   UNL     1      47.178   9.038  12.436  0.00  0.00    +0.000 A 
ATOM      3  C   UNL     1      45.862   9.167  12.010  0.00  0.00    +0.000 A 
ATOM      4  C   UNL     1      45.090   8.028  11.777  0.00  0.00    +0.000 A 
ATOM      5  C   UNL     1      45.623   6.734  11.946  0.00  0.00    +0.000 A 
ATOM      6  C   UNL     1      46.965   6.653  12.383  0.00  0.00    +0.000 A 
ATOM      7  F   UNL     1      47.539   5.446  12.527  0.00  0.00    +0.000 F 
ATOM      8  C   UNL     1      47.750   7.786  12.650  0.00  0.00    +0.000 A 
ENDROOT
BRANCH   5   9
ATOM      9  C   UNL     1      44.786   5.533  11.684  0.00  0.00    +0.000 A 
ATOM     10  C   UNL     1      43.979   4.967  12.683  0.00  0.00    +0.000 A 
ATOM     11  C   UNL     1      43.254   3.813  12.413  0.00  0.00    +0.000 A 
ATOM     12  N   UNL     1      43.256   3.189  11.220  0.00  0.00    +0.000 NA
ATOM     13  C   UNL     1      44.016   3.746  10.257  0.00  0.00    +0.000 A 
ATOM     14  C   UNL     1      44.784   4.889  10.438  0.00  0.00    +0.000 A 
ENDBRANCH   5   9
BRANCH   8  15
ATOM     15  C   UNL     1      49.181   7.647  13.099  0.00  0.00    +0.000 C 
BRANCH  15  16
ATOM     16  S   UNL     1      49.463   8.241  14.799  0.00  0.00    +0.000 S 
BRANCH  16  17
ATOM     17  C   UNL     1      49.284   6.714  15.687  0.00  0.00    +0.000 A 
ATOM     18  N   UNL     1      50.331   6.238  16.381  0.00  0.00    +0.000 NA
ATOM     19  C   UNL     1      50.143   5.083  17.051  0.00  0.00    +0.000 A 
ATOM     20  C   UNL     1      48.956   4.392  17.062  0.00  0.00    +0.000 A 
ATOM     21  C   UNL     1      47.951   4.952  16.310  0.00  0.00    +0.000 A 
ATOM     22  N   UNL     1      48.089   6.105  15.620  0.00  0.00    +0.000 NA
BRANCH  20  23
ATOM     23  C   UNL     1      48.766   3.137  17.832  0.00  0.00    +0.000 C 
ATOM     24  F   UNL     1      47.712   2.391  17.398  0.00  0.00    +0.000 F 
ATOM     25  F   UNL     1      49.850   2.318  17.767  0.00  0.00    +0.000 F 
ATOM     26  F   UNL     1      48.544   3.358  19.157  0.00  0.00    +0.000 F 
ENDBRANCH  20  23
ENDBRANCH  16  17
ENDBRANCH  15  16
ENDBRANCH   8  15
TORSDOF 5
ENDMDL
MODEL 9
REMARK VINA RESULT:    -6.945      3.612      5.571
REMARK INTER + INTRA:          -8.931
REMARK INTER:                  -8.271
REMARK INTRA:                  -0.660
REMARK UNBOUND:                 0.044
REMARK  Name = 
REMARK  5 active torsions:
REMARK  status: ('A' for Active; 'I' for Inactive)
REMARK    1  A    between atoms: C_5  and  C_6
REMARK    2  A    between atoms: C_14  and  C_15
REMARK    3  A    between atoms: C_15  and  S_16
REMARK    4  A    between atoms: S_16  and  C_17
REMARK    5  A    between atoms: C_20  and  C_21
REMARK                            x       y       z     vdW  Elec       q    Type
REMARK                         _______ _______ _______ _____ _____    ______ ____
ROOT
ATOM      1  F   UNL     1      48.229   9.381  14.114  0.00  0.00    +0.000 F 
ATOM      2  C   UNL     1      47.453   8.383  13.669  0.00  0.00    +0.000 A 
ATOM      3  C   UNL     1      46.313   8.703  12.943  0.00  0.00    +0.000 A 
ATOM      4  C   UNL     1      45.499   7.687  12.440  0.00  0.00    +0.000 A 
ATOM      5  C   UNL     1      45.818   6.328  12.633  0.00  0.00    +0.000 A 
ATOM      6  C   UNL     1      46.985   6.051  13.380  0.00  0.00    +0.000 A 
ATOM      7  F   UNL     1      47.360   4.773  13.567  0.00  0.00    +0.000 F 
ATOM      8  C   UNL     1      47.802   7.057  13.920  0.00  0.00    +0.000 A 
ENDROOT
BRANCH   5   9
ATOM      9  C   UNL     1      44.942   5.262  12.080  0.00  0.00    +0.000 A 
ATOM     10  C   UNL     1      44.306   4.326  12.912  0.00  0.00    +0.000 A 
ATOM     11  C   UNL     1      43.540   3.312  12.351  0.00  0.00    +0.000 A 
ATOM     12  N   UNL     1      43.343   3.167  11.028  0.00  0.00    +0.000 NA
ATOM     13  C   UNL     1      43.938   4.077  10.233  0.00  0.00    +0.000 A 
ATOM     14  C   UNL     1      44.732   5.116  10.701  0.00  0.00    +0.000 A 
ENDBRANCH   5   9
BRANCH   8  15
ATOM     15  C   UNL     1      49.046   6.711  14.696  0.00  0.00    +0.000 C 
BRANCH  15  16
ATOM     16  S   UNL     1      48.782   6.671  16.499  0.00  0.00    +0.000 S 
BRANCH  16  17
ATOM     17  C   UNL     1      49.963   5.424  16.950  0.00  0.00    +0.000 A 
ATOM     18  N   UNL     1      51.235   5.786  17.188  0.00  0.00    +0.000 NA
ATOM     19  C   UNL     1      52.091   4.807  17.543  0.00  0.00    +0.000 A 
ATOM     20  C   UNL     1      51.730   3.489  17.676  0.00  0.00    +0.000 A 
ATOM     21  C   UNL     1      50.411   3.218  17.397  0.00  0.00    +0.000 A 
ATOM     22  N   UNL     1      49.515   4.161  17.036  0.00  0.00    +0.000 NA
BRANCH  20  23
ATOM     23  C   UNL     1      52.685   2.434  18.096  0.00  0.00    +0.000 C 
ATOM     24  F   UNL     1      53.194   2.631  19.344  0.00  0.00    +0.000 F 
ATOM     25  F   UNL     1      52.117   1.197  18.120  0.00  0.00    +0.000 F 
ATOM     26  F   UNL     1      53.761   2.334  17.267  0.00  0.00    +0.000 F 
ENDBRANCH  20  23
ENDBRANCH  16  17
ENDBRANCH  15  16
ENDBRANCH   8  15
TORSDOF 5
ENDMDL
