MODEL 1
REMARK VINA RESULT:    -7.542      0.000      0.000
REMARK INTER + INTRA:         -12.754
REMARK INTER:                 -11.731
REMARK INTRA:                  -1.023
REMARK UNBOUND:                -1.023
REMARK  Name = 
REMARK  10 active torsions:
REMARK  status: ('A' for Active; 'I' for Inactive)
REMARK    1  A    between atoms: N_1  and  C_2
REMARK    2  A    between atoms: C_2  and  C_3
REMARK    3  A    between atoms: C_3  and  N_4
REMARK    4  A    between atoms: C_3  and  C_12
REMARK    5  A    between atoms: N_4  and  C_5
REMARK    6  A    between atoms: C_5  and  C_6
REMARK    7  A    between atoms: C_15  and  C_16
REMARK    8  A    between atoms: C_16  and  N_17
REMARK    9  A    between atoms: N_17  and  C_18
REMARK   10  A    between atoms: C_18  and  C_19
REMARK                            x       y       z     vdW  Elec       q    Type
REMARK                         _______ _______ _______ _____ _____    ______ ____
ROOT
ATOM      1  C   UNL     1      47.180   5.928  12.784  0.00  0.00    +0.000 A 
ATOM      2  C   UNL     1      46.356   4.873  13.218  0.00  0.00    +0.000 A 
ATOM      3  C   UNL     1      45.218   4.504  12.496  0.00  0.00    +0.000 A 
ATOM      4  C   UNL     1      44.894   5.149  11.298  0.00  0.00    +0.000 A 
ATOM      5  C   UNL     1      45.734   6.166  10.834  0.00  0.00    +0.000 A 
ATOM      6  C   UNL     1      46.853   6.561  11.576  0.00  0.00    +0.000 A 
ENDROOT
BRANCH   1   7
ATOM      7  C   UNL     1      48.329   6.401  13.678  0.00  0.00    +0.000 C 
BRANCH   7   8
ATOM      8  N   UNL     1      47.867   6.737  15.044  0.00  0.00    +0.000 NA
ATOM      9  H   UNL     1      46.959   6.309  15.200  0.00  0.00    +0.000 HD
BRANCH   8  10
ATOM     10  C   UNL     1      48.794   6.358  16.106  0.00  0.00    +0.000 C 
BRANCH  10  11
ATOM     11  C   UNL     1      48.430   5.044  16.722  0.00  0.00    +0.000 A 
ATOM     12  C   UNL     1      49.333   4.301  17.461  0.00  0.00    +0.000 A 
ATOM     13  N   UNL     1      49.038   3.120  18.041  0.00  0.00    +0.000 NA
ATOM     14  C   UNL     1      47.783   2.689  17.863  0.00  0.00    +0.000 A 
ATOM     15  N   UNL     1      46.816   3.321  17.181  0.00  0.00    +0.000 NA
ATOM     16  C   UNL     1      47.171   4.495  16.620  0.00  0.00    +0.000 A 
ENDBRANCH  10  11
ENDBRANCH   8  10
ENDBRANCH   7   8
BRANCH   7  17
ATOM     17  C   UNL     1      49.088   7.626  13.051  0.00  0.00    +0.000 C 
BRANCH  17  18
ATOM     18  N   UNL     1      50.306   7.302  12.298  0.00  0.00    +0.000 NA
ATOM     19  H   UNL     1      50.717   6.449  12.674  0.00  0.00    +0.000 HD
ATOM     20  H   UNL     1      50.994   8.041  12.422  0.00  0.00    +0.000 HD
ENDBRANCH  17  18
ENDBRANCH   7  17
ENDBRANCH   1   7
BRANCH   4  21
ATOM     21  C   UNL     1      43.654   4.764  10.525  0.00  0.00    +0.000 C 
BRANCH  21  22
ATOM     22  N   UNL     1      44.007   4.236   9.210  0.00  0.00    +0.000 NA
ATOM     23  H   UNL     1      44.813   4.749   8.853  0.00  0.00    +0.000 HD
BRANCH  22  24
ATOM     24  C   UNL     1      44.377   2.817   9.296  0.00  0.00    +0.000 C 
BRANCH  24  25
ATOM     25  C   UNL     1      45.538   2.478   8.381  0.00  0.00    +0.000 A 
ATOM     26  C   UNL     1      46.108   3.465   7.578  0.00  0.00    +0.000 A 
ATOM     27  C   UNL     1      47.180   3.133   6.755  0.00  0.00    +0.000 A 
ATOM     28  C   UNL     1      47.652   1.826   6.752  0.00  0.00    +0.000 A 
ATOM     29  C   UNL     1      47.031   0.904   7.577  0.00  0.00    +0.000 A 
ATOM     30  N   UNL     1      45.991   1.199   8.390  0.00  0.00    +0.000 NA
ENDBRANCH  24  25
ENDBRANCH  22  24
ENDBRANCH  21  22
ENDBRANCH   4  21
TORSDOF 10
ENDMDL
MODEL 2
REMARK VINA RESULT:    -7.454      1.399      8.213
REMARK INTER + INTRA:         -12.616
REMARK INTER:                 -11.491
REMARK INTRA:                  -1.125
REMARK UNBOUND:                -1.023
REMARK  Name = 
REMARK  10 active torsions:
REMARK  status: ('A' for Active; 'I' for Inactive)
REMARK    1  A    between atoms: N_1  and  C_2
REMARK    2  A    between atoms: C_2  and  C_3
REMARK    3  A    between atoms: C_3  and  N_4
REMARK    4  A    between atoms: C_3  and  C_12
REMARK    5  A    between atoms: N_4  and  C_5
REMARK    6  A    between atoms: C_5  and  C_6
REMARK    7  A    between atoms: C_15  and  C_16
REMARK    8  A    between atoms: C_16  and  N_17
REMARK    9  A    between atoms: N_17  and  C_18
REMARK   10  A    between atoms: C_18  and  C_19
REMARK                            x       y       z     vdW  Elec       q    Type
REMARK                         _______ _______ _______ _____ _____    ______ ____
ROOT
ATOM      1  C   UNL     1      45.190   4.832  12.054  0.00  0.00    +0.000 A 
ATOM      2  C   UNL     1      45.640   6.087  11.605  0.00  0.00    +0.000 A 
ATOM      3  C   UNL     1      46.734   6.717  12.205  0.00  0.00    +0.000 A 
ATOM      4  C   UNL     1      47.436   6.091  13.240  0.00  0.00    +0.000 A 
ATOM      5  C   UNL     1      47.025   4.822  13.660  0.00  0.00    +0.000 A 
ATOM      6  C   UNL     1      45.907   4.208  13.085  0.00  0.00    +0.000 A 
ENDROOT
BRANCH   1   7
ATOM      7  C   UNL     1      43.899   4.245  11.475  0.00  0.00    +0.000 C 
BRANCH   7   8
ATOM      8  N   UNL     1      43.981   4.065  10.008  0.00  0.00    +0.000 NA
ATOM      9  H   UNL     1      44.638   4.741   9.628  0.00  0.00    +0.000 HD
BRANCH   8  10
ATOM     10  C   UNL     1      44.342   2.715   9.584  0.00  0.00    +0.000 C 
BRANCH  10  11
ATOM     11  C   UNL     1      45.439   2.726   8.566  0.00  0.00    +0.000 A 
ATOM     12  C   UNL     1      46.178   1.595   8.268  0.00  0.00    +0.000 A 
ATOM     13  N   UNL     1      47.165   1.562   7.350  0.00  0.00    +0.000 NA
ATOM     14  C   UNL     1      47.400   2.718   6.716  0.00  0.00    +0.000 A 
ATOM     15  N   UNL     1      46.747   3.875   6.906  0.00  0.00    +0.000 NA
ATOM     16  C   UNL     1      45.774   3.847   7.840  0.00  0.00    +0.000 A 
ENDBRANCH  10  11
ENDBRANCH   8  10
ENDBRANCH   7   8
BRANCH   7  17
ATOM     17  C   UNL     1      42.646   5.122  11.840  0.00  0.00    +0.000 C 
BRANCH  17  18
ATOM     18  N   UNL     1      42.530   5.507  13.251  0.00  0.00    +0.000 NA
ATOM     19  H   UNL     1      43.453   5.500  13.680  0.00  0.00    +0.000 HD
ATOM     20  H   UNL     1      41.966   4.822  13.749  0.00  0.00    +0.000 HD
ENDBRANCH  17  18
ENDBRANCH   7  17
ENDBRANCH   1   7
BRANCH   4  21
ATOM     21  C   UNL     1      48.609   6.777  13.901  0.00  0.00    +0.000 C 
BRANCH  21  22
ATOM     22  N   UNL     1      48.295   7.122  15.285  0.00  0.00    +0.000 NA
ATOM     23  H   UNL     1      47.410   6.682  15.543  0.00  0.00    +0.000 HD
BRANCH  22  24
ATOM     24  C   UNL     1      49.329   6.621  16.199  0.00  0.00    +0.000 C 
BRANCH  24  25
ATOM     25  C   UNL     1      48.968   5.266  16.776  0.00  0.00    +0.000 A 
ATOM     26  C   UNL     1      47.637   4.955  17.052  0.00  0.00    +0.000 A 
ATOM     27  C   UNL     1      47.328   3.701  17.570  0.00  0.00    +0.000 A 
ATOM     28  C   UNL     1      48.354   2.793  17.804  0.00  0.00    +0.000 A 
ATOM     29  C   UNL     1      49.650   3.179  17.506  0.00  0.00    +0.000 A 
ATOM     30  N   UNL     1      49.979   4.388  16.997  0.00  0.00    +0.000 NA
ENDBRANCH  24  25
ENDBRANCH  22  24
ENDBRANCH  21  22
ENDBRANCH   4  21
TORSDOF 10
ENDMDL
MODEL 3
REMARK VINA RESULT:    -7.452      1.368      8.145
REMARK INTER + INTRA:         -12.612
REMARK INTER:                 -11.604
REMARK INTRA:                  -1.009
REMARK UNBOUND:                -1.023
REMARK  Name = 
REMARK  10 active torsions:
REMARK  status: ('A' for Active; 'I' for Inactive)
REMARK    1  A    between atoms: N_1  and  C_2
REMARK    2  A    between atoms: C_2  and  C_3
REMARK    3  A    between atoms: C_3  and  N_4
REMARK    4  A    between atoms: C_3  and  C_12
REMARK    5  A    between atoms: N_4  and  C_5
REMARK    6  A    between atoms: C_5  and  C_6
REMARK    7  A    between atoms: C_15  and  C_16
REMARK    8  A    between atoms: C_16  and  N_17
REMARK    9  A    between atoms: N_17  and  C_18
REMARK   10  A    between atoms: C_18  and  C_19
REMARK                            x       y       z     vdW  Elec       q    Type
REMARK                         _______ _______ _______ _____ _____    ______ ____
ROOT
ATOM      1  C   UNL     1      45.744   5.417  11.771  0.00  0.00    +0.000 A 
ATOM      2  C   UNL     1      45.908   4.874  13.059  0.00  0.00    +0.000 A 
ATOM      3  C   UNL     1      46.908   5.341  13.916  0.00  0.00    +0.000 A 
ATOM      4  C   UNL     1      47.745   6.393  13.527  0.00  0.00    +0.000 A 
ATOM      5  C   UNL     1      47.557   6.970  12.268  0.00  0.00    +0.000 A 
ATOM      6  C   UNL     1      46.581   6.478  11.396  0.00  0.00    +0.000 A 
ENDROOT
BRANCH   1   7
ATOM      7  C   UNL     1      44.740   4.778  10.808  0.00  0.00    +0.000 C 
BRANCH   7   8
ATOM      8  N   UNL     1      45.088   5.035   9.392  0.00  0.00    +0.000 NA
ATOM      9  H   UNL     1      46.100   5.085   9.305  0.00  0.00    +0.000 HD
BRANCH   8  10
ATOM     10  C   UNL     1      44.547   4.060   8.450  0.00  0.00    +0.000 C 
BRANCH  10  11
ATOM     11  C   UNL     1      45.588   3.082   8.000  0.00  0.00    +0.000 A 
ATOM     12  C   UNL     1      46.604   3.437   7.131  0.00  0.00    +0.000 A 
ATOM     13  N   UNL     1      47.565   2.589   6.713  0.00  0.00    +0.000 NA
ATOM     14  C   UNL     1      47.488   1.345   7.201  0.00  0.00    +0.000 A 
ATOM     15  N   UNL     1      46.563   0.884   8.056  0.00  0.00    +0.000 NA
ATOM     16  C   UNL     1      45.625   1.776   8.436  0.00  0.00    +0.000 A 
ENDBRANCH  10  11
ENDBRANCH   8  10
ENDBRANCH   7   8
BRANCH   7  17
ATOM     17  C   UNL     1      43.271   5.259  11.095  0.00  0.00    +0.000 C 
BRANCH  17  18
ATOM     18  N   UNL     1      43.077   6.714  11.141  0.00  0.00    +0.000 NA
ATOM     19  H   UNL     1      43.764   7.165  10.540  0.00  0.00    +0.000 HD
ATOM     20  H   UNL     1      43.242   7.053  12.085  0.00  0.00    +0.000 HD
ENDBRANCH  17  18
ENDBRANCH   7  17
ENDBRANCH   1   7
BRANCH   4  21
ATOM     21  C   UNL     1      48.838   6.888  14.445  0.00  0.00    +0.000 C 
BRANCH  21  22
ATOM     22  N   UNL     1      48.312   7.152  15.782  0.00  0.00    +0.000 NA
ATOM     23  H   UNL     1      47.393   6.717  15.868  0.00  0.00    +0.000 HD
BRANCH  22  24
ATOM     24  C   UNL     1      49.183   6.572  16.812  0.00  0.00    +0.000 C 
BRANCH  24  25
ATOM     25  C   UNL     1      48.887   5.103  17.044  0.00  0.00    +0.000 A 
ATOM     26  C   UNL     1      47.573   4.674  17.230  0.00  0.00    +0.000 A 
ATOM     27  C   UNL     1      47.326   3.319  17.428  0.00  0.00    +0.000 A 
ATOM     28  C   UNL     1      48.393   2.429  17.440  0.00  0.00    +0.000 A 
ATOM     29  C   UNL     1      49.668   2.935  17.250  0.00  0.00    +0.000 A 
ATOM     30  N   UNL     1      49.939   4.244  17.050  0.00  0.00    +0.000 NA
ENDBRANCH  24  25
ENDBRANCH  22  24
ENDBRANCH  21  22
ENDBRANCH   4  21
TORSDOF 10
ENDMDL
MODEL 4
REMARK VINA RESULT:    -7.243      1.427      2.009
REMARK INTER + INTRA:         -12.289
REMARK INTER:                 -11.516
REMARK INTRA:                  -0.773
REMARK UNBOUND:                -1.023
REMARK  Name = 
REMARK  10 active torsions:
REMARK  status: ('A' for Active; 'I' for Inactive)
REMARK    1  A    between atoms: N_1  and  C_2
REMARK    2  A    between atoms: C_2  and  C_3
REMARK    3  A    between atoms: C_3  and  N_4
REMARK    4  A    between atoms: C_3  and  C_12
REMARK    5  A    between atoms: N_4  and  C_5
REMARK    6  A    between atoms: C_5  and  C_6
REMARK    7  A    between atoms: C_15  and  C_16
REMARK    8  A    between atoms: C_16  and  N_17
REMARK    9  A    between atoms: N_17  and  C_18
REMARK   10  A    between atoms: C_18  and  C_19
REMARK                            x       y       z     vdW  Elec       q    Type
REMARK                         _______ _______ _______ _____ _____    ______ ____
ROOT
ATOM      1  C   UNL     1      46.680   5.050  13.515  0.00  0.00    +0.000 A 
ATOM      2  C   UNL     1      46.214   3.757  13.215  0.00  0.00    +0.000 A 
ATOM      3  C   UNL     1      45.201   3.556  12.273  0.00  0.00    +0.000 A 
ATOM      4  C   UNL     1      44.657   4.638  11.572  0.00  0.00    +0.000 A 
ATOM      5  C   UNL     1      45.149   5.921  11.829  0.00  0.00    +0.000 A 
ATOM      6  C   UNL     1      46.135   6.126  12.799  0.00  0.00    +0.000 A 
ENDROOT
BRANCH   1   7
ATOM      7  C   UNL     1      47.679   5.243  14.659  0.00  0.00    +0.000 C 
BRANCH   7   8
ATOM      8  N   UNL     1      47.078   4.938  15.978  0.00  0.00    +0.000 NA
ATOM      9  H   UNL     1      46.643   4.020  15.939  0.00  0.00    +0.000 HD
BRANCH   8  10
ATOM     10  C   UNL     1      48.011   5.009  17.098  0.00  0.00    +0.000 C 
BRANCH  10  11
ATOM     11  C   UNL     1      48.994   3.880  17.077  0.00  0.00    +0.000 A 
ATOM     12  C   UNL     1      48.713   2.670  16.468  0.00  0.00    +0.000 A 
ATOM     13  N   UNL     1      49.575   1.636  16.418  0.00  0.00    +0.000 NA
ATOM     14  C   UNL     1      50.761   1.846  17.003  0.00  0.00    +0.000 A 
ATOM     15  N   UNL     1      51.156   2.973  17.614  0.00  0.00    +0.000 NA
ATOM     16  C   UNL     1      50.249   3.971  17.636  0.00  0.00    +0.000 A 
ENDBRANCH  10  11
ENDBRANCH   8  10
ENDBRANCH   7   8
BRANCH   7  17
ATOM     17  C   UNL     1      48.283   6.694  14.667  0.00  0.00    +0.000 C 
BRANCH  17  18
ATOM     18  N   UNL     1      49.590   6.841  14.015  0.00  0.00    +0.000 NA
ATOM     19  H   UNL     1      49.453   7.119  13.045  0.00  0.00    +0.000 HD
ATOM     20  H   UNL     1      50.071   5.945  14.001  0.00  0.00    +0.000 HD
ENDBRANCH  17  18
ENDBRANCH   7  17
ENDBRANCH   1   7
BRANCH   4  21
ATOM     21  C   UNL     1      43.551   4.425  10.565  0.00  0.00    +0.000 C 
BRANCH  21  22
ATOM     22  N   UNL     1      43.967   3.484   9.529  0.00  0.00    +0.000 NA
ATOM     23  H   UNL     1      43.137   3.124   9.056  0.00  0.00    +0.000 HD
BRANCH  22  24
ATOM     24  C   UNL     1      44.806   4.147   8.523  0.00  0.00    +0.000 C 
BRANCH  24  25
ATOM     25  C   UNL     1      45.742   3.173   7.834  0.00  0.00    +0.000 A 
ATOM     26  C   UNL     1      45.954   1.905   8.374  0.00  0.00    +0.000 A 
ATOM     27  C   UNL     1      46.808   1.024   7.717  0.00  0.00    +0.000 A 
ATOM     28  C   UNL     1      47.430   1.431   6.543  0.00  0.00    +0.000 A 
ATOM     29  C   UNL     1      47.169   2.707   6.073  0.00  0.00    +0.000 A 
ATOM     30  N   UNL     1      46.341   3.583   6.687  0.00  0.00    +0.000 NA
ENDBRANCH  24  25
ENDBRANCH  22  24
ENDBRANCH  21  22
ENDBRANCH   4  21
TORSDOF 10
ENDMDL
MODEL 5
REMARK VINA RESULT:    -7.033      1.370      1.896
REMARK INTER + INTRA:         -11.962
REMARK INTER:                 -11.138
REMARK INTRA:                  -0.824
REMARK UNBOUND:                -1.023
REMARK  Name = 
REMARK  10 active torsions:
REMARK  status: ('A' for Active; 'I' for Inactive)
REMARK    1  A    between atoms: N_1  and  C_2
REMARK    2  A    between atoms: C_2  and  C_3
REMARK    3  A    between atoms: C_3  and  N_4
REMARK    4  A    between atoms: C_3  and  C_12
REMARK    5  A    between atoms: N_4  and  C_5
REMARK    6  A    between atoms: C_5  and  C_6
REMARK    7  A    between atoms: C_15  and  C_16
REMARK    8  A    between atoms: C_16  and  N_17
REMARK    9  A    between atoms: N_17  and  C_18
REMARK   10  A    between atoms: C_18  and  C_19
REMARK                            x       y       z     vdW  Elec       q    Type
REMARK                         _______ _______ _______ _____ _____    ______ ____
ROOT
ATOM      1  C   UNL     1      46.818   6.147  12.986  0.00  0.00    +0.000 A 
ATOM      2  C   UNL     1      46.707   6.511  11.631  0.00  0.00    +0.000 A 
ATOM      3  C   UNL     1      45.652   6.043  10.843  0.00  0.00    +0.000 A 
ATOM      4  C   UNL     1      44.654   5.234  11.397  0.00  0.00    +0.000 A 
ATOM      5  C   UNL     1      44.731   4.907  12.755  0.00  0.00    +0.000 A 
ATOM      6  C   UNL     1      45.807   5.345  13.534  0.00  0.00    +0.000 A 
ENDROOT
BRANCH   1   7
ATOM      7  C   UNL     1      48.066   6.554  13.773  0.00  0.00    +0.000 C 
BRANCH   7   8
ATOM      8  N   UNL     1      48.134   5.884  15.092  0.00  0.00    +0.000 NA
ATOM      9  H   UNL     1      48.289   4.889  14.949  0.00  0.00    +0.000 HD
BRANCH   8  10
ATOM     10  C   UNL     1      49.142   6.429  15.996  0.00  0.00    +0.000 C 
BRANCH  10  11
ATOM     11  C   UNL     1      49.081   5.791  17.349  0.00  0.00    +0.000 A 
ATOM     12  C   UNL     1      47.931   5.803  18.117  0.00  0.00    +0.000 A 
ATOM     13  N   UNL     1      47.833   5.229  19.333  0.00  0.00    +0.000 NA
ATOM     14  C   UNL     1      48.943   4.623  19.774  0.00  0.00    +0.000 A 
ATOM     15  N   UNL     1      50.111   4.533  19.121  0.00  0.00    +0.000 NA
ATOM     16  C   UNL     1      50.149   5.128  17.912  0.00  0.00    +0.000 A 
ENDBRANCH  10  11
ENDBRANCH   8  10
ENDBRANCH   7   8
BRANCH   7  17
ATOM     17  C   UNL     1      48.154   8.113  13.959  0.00  0.00    +0.000 C 
BRANCH  17  18
ATOM     18  N   UNL     1      46.873   8.803  14.149  0.00  0.00    +0.000 NA
ATOM     19  H   UNL     1      47.024   9.650  14.695  0.00  0.00    +0.000 HD
ATOM     20  H   UNL     1      46.241   8.214  14.685  0.00  0.00    +0.000 HD
ENDBRANCH  17  18
ENDBRANCH   7  17
ENDBRANCH   1   7
BRANCH   4  21
ATOM     21  C   UNL     1      43.522   4.712  10.544  0.00  0.00    +0.000 C 
BRANCH  21  22
ATOM     22  N   UNL     1      44.022   4.219   9.264  0.00  0.00    +0.000 NA
ATOM     23  H   UNL     1      44.847   4.759   9.001  0.00  0.00    +0.000 HD
BRANCH  22  24
ATOM     24  C   UNL     1      44.420   2.809   9.365  0.00  0.00    +0.000 C 
BRANCH  24  25
ATOM     25  C   UNL     1      45.552   2.470   8.415  0.00  0.00    +0.000 A 
ATOM     26  C   UNL     1      46.128   3.467   7.628  0.00  0.00    +0.000 A 
ATOM     27  C   UNL     1      47.174   3.135   6.773  0.00  0.00    +0.000 A 
ATOM     28  C   UNL     1      47.615   1.818   6.721  0.00  0.00    +0.000 A 
ATOM     29  C   UNL     1      46.990   0.886   7.533  0.00  0.00    +0.000 A 
ATOM     30  N   UNL     1      45.976   1.181   8.377  0.00  0.00    +0.000 NA
ENDBRANCH  24  25
ENDBRANCH  22  24
ENDBRANCH  21  22
ENDBRANCH   4  21
TORSDOF 10
ENDMDL
MODEL 6
REMARK VINA RESULT:    -6.844      2.675      7.824
REMARK INTER + INTRA:         -11.668
REMARK INTER:                 -10.689
REMARK INTRA:                  -0.979
REMARK UNBOUND:                -1.023
REMARK  Name = 
REMARK  10 active torsions:
REMARK  status: ('A' for Active; 'I' for Inactive)
REMARK    1  A    between atoms: N_1  and  C_2
REMARK    2  A    between atoms: C_2  and  C_3
REMARK    3  A    between atoms: C_3  and  N_4
REMARK    4  A    between atoms: C_3  and  C_12
REMARK    5  A    between atoms: N_4  and  C_5
REMARK    6  A    between atoms: C_5  and  C_6
REMARK    7  A    between atoms: C_15  and  C_16
REMARK    8  A    between atoms: C_16  and  N_17
REMARK    9  A    between atoms: N_17  and  C_18
REMARK   10  A    between atoms: C_18  and  C_19
REMARK                            x       y       z     vdW  Elec       q    Type
REMARK                         _______ _______ _______ _____ _____    ______ ____
ROOT
ATOM      1  C   UNL     1      45.217   4.810  11.951  0.00  0.00    +0.000 A 
ATOM      2  C   UNL     1      45.728   5.910  11.239  0.00  0.00    +0.000 A 
ATOM      3  C   UNL     1      46.863   6.593  11.683  0.00  0.00    +0.000 A 
ATOM      4  C   UNL     1      47.546   6.170  12.828  0.00  0.00    +0.000 A 
ATOM      5  C   UNL     1      47.073   5.047  13.516  0.00  0.00    +0.000 A 
ATOM      6  C   UNL     1      45.916   4.386  13.092  0.00  0.00    +0.000 A 
ENDROOT
BRANCH   1   7
ATOM      7  C   UNL     1      43.889   4.184  11.518  0.00  0.00    +0.000 C 
BRANCH   7   8
ATOM      8  N   UNL     1      43.864   3.882  10.069  0.00  0.00    +0.000 NA
ATOM      9  H   UNL     1      44.365   4.613   9.571  0.00  0.00    +0.000 HD
BRANCH   8  10
ATOM     10  C   UNL     1      44.401   2.571   9.716  0.00  0.00    +0.000 C 
BRANCH  10  11
ATOM     11  C   UNL     1      45.424   2.662   8.627  0.00  0.00    +0.000 A 
ATOM     12  C   UNL     1      45.680   3.843   7.955  0.00  0.00    +0.000 A 
ATOM     13  N   UNL     1      46.601   3.967   6.978  0.00  0.00    +0.000 NA
ATOM     14  C   UNL     1      47.282   2.852   6.684  0.00  0.00    +0.000 A 
ATOM     15  N   UNL     1      47.135   1.654   7.270  0.00  0.00    +0.000 NA
ATOM     16  C   UNL     1      46.197   1.591   8.236  0.00  0.00    +0.000 A 
ENDBRANCH  10  11
ENDBRANCH   8  10
ENDBRANCH   7   8
BRANCH   7  17
ATOM     17  C   UNL     1      42.665   5.095  11.897  0.00  0.00    +0.000 C 
BRANCH  17  18
ATOM     18  N   UNL     1      42.589   5.503  13.305  0.00  0.00    +0.000 NA
ATOM     19  H   UNL     1      41.911   4.918  13.790  0.00  0.00    +0.000 HD
ATOM     20  H   UNL     1      42.252   6.460  13.369  0.00  0.00    +0.000 HD
ENDBRANCH  17  18
ENDBRANCH   7  17
ENDBRANCH   1   7
BRANCH   4  21
ATOM     21  C   UNL     1      48.763   6.917  13.321  0.00  0.00    +0.000 C 
BRANCH  21  22
ATOM     22  N   UNL     1      49.794   6.967  12.287  0.00  0.00    +0.000 NA
ATOM     23  H   UNL     1      49.377   6.707  11.392  0.00  0.00    +0.000 HD
BRANCH  22  24
ATOM     24  C   UNL     1      50.338   8.324  12.153  0.00  0.00    +0.000 C 
BRANCH  24  25
ATOM     25  C   UNL     1      51.383   8.410  11.059  0.00  0.00    +0.000 A 
ATOM     26  C   UNL     1      51.628   7.311  10.236  0.00  0.00    +0.000 A 
ATOM     27  C   UNL     1      52.584   7.419   9.230  0.00  0.00    +0.000 A 
ATOM     28  C   UNL     1      53.274   8.615   9.075  0.00  0.00    +0.000 A 
ATOM     29  C   UNL     1      52.974   9.659   9.934  0.00  0.00    +0.000 A 
ATOM     30  N   UNL     1      52.048   9.586  10.916  0.00  0.00    +0.000 NA
ENDBRANCH  24  25
ENDBRANCH  22  24
ENDBRANCH  21  22
ENDBRANCH   4  21
TORSDOF 10
ENDMDL
MODEL 7
REMARK VINA RESULT:    -6.708      2.075      4.542
REMARK INTER + INTRA:         -11.456
REMARK INTER:                 -10.499
REMARK INTRA:                  -0.956
REMARK UNBOUND:                -1.023
REMARK  Name = 
REMARK  10 active torsions:
REMARK  status: ('A' for Active; 'I' for Inactive)
REMARK    1  A    between atoms: N_1  and  C_2
REMARK    2  A    between atoms: C_2  and  C_3
REMARK    3  A    between atoms: C_3  and  N_4
REMARK    4  A    between atoms: C_3  and  C_12
REMARK    5  A    between atoms: N_4  and  C_5
REMARK    6  A    between atoms: C_5  and  C_6
REMARK    7  A    between atoms: C_15  and  C_16
REMARK    8  A    between atoms: C_16  and  N_17
REMARK    9  A    between atoms: N_17  and  C_18
REMARK   10  A    between atoms: C_18  and  C_19
REMARK                            x       y       z     vdW  Elec       q    Type
REMARK                         _______ _______ _______ _____ _____    ______ ____
ROOT
ATOM      1  C   UNL     1      47.091   6.062  12.616  0.00  0.00    +0.000 A 
ATOM      2  C   UNL     1      46.543   4.963  13.304  0.00  0.00    +0.000 A 
ATOM      3  C   UNL     1      45.436   4.276  12.799  0.00  0.00    +0.000 A 
ATOM      4  C   UNL     1      44.871   4.641  11.572  0.00  0.00    +0.000 A 
ATOM      5  C   UNL     1      45.440   5.701  10.859  0.00  0.00    +0.000 A 
ATOM      6  C   UNL     1      46.525   6.412  11.382  0.00  0.00    +0.000 A 
ENDROOT
BRANCH   1   7
ATOM      7  C   UNL     1      48.205   6.880  13.274  0.00  0.00    +0.000 C 
BRANCH   7   8
ATOM      8  N   UNL     1      49.498   6.724  12.570  0.00  0.00    +0.000 NA
ATOM      9  H   UNL     1      49.502   5.833  12.081  0.00  0.00    +0.000 HD
BRANCH   8  10
ATOM     10  C   UNL     1      49.819   7.809  11.647  0.00  0.00    +0.000 C 
BRANCH  10  11
ATOM     11  C   UNL     1      51.283   7.866  11.341  0.00  0.00    +0.000 A 
ATOM     12  C   UNL     1      52.185   8.509  12.170  0.00  0.00    +0.000 A 
ATOM     13  N   UNL     1      53.510   8.571  11.934  0.00  0.00    +0.000 NA
ATOM     14  C   UNL     1      53.926   7.954  10.820  0.00  0.00    +0.000 A 
ATOM     15  N   UNL     1      53.156   7.290   9.946  0.00  0.00    +0.000 NA
ATOM     16  C   UNL     1      51.838   7.265  10.233  0.00  0.00    +0.000 A 
ENDBRANCH  10  11
ENDBRANCH   8  10
ENDBRANCH   7   8
BRANCH   7  17
ATOM     17  C   UNL     1      48.375   6.517  14.794  0.00  0.00    +0.000 C 
BRANCH  17  18
ATOM     18  N   UNL     1      48.324   7.649  15.727  0.00  0.00    +0.000 NA
ATOM     19  H   UNL     1      47.834   7.367  16.574  0.00  0.00    +0.000 HD
ATOM     20  H   UNL     1      47.791   8.411  15.316  0.00  0.00    +0.000 HD
ENDBRANCH  17  18
ENDBRANCH   7  17
ENDBRANCH   1   7
BRANCH   4  21
ATOM     21  C   UNL     1      43.663   3.911  11.032  0.00  0.00    +0.000 C 
BRANCH  21  22
ATOM     22  N   UNL     1      43.845   3.581   9.621  0.00  0.00    +0.000 NA
ATOM     23  H   UNL     1      44.452   4.281   9.193  0.00  0.00    +0.000 HD
BRANCH  22  24
ATOM     24  C   UNL     1      44.489   2.271   9.466  0.00  0.00    +0.000 C 
BRANCH  24  25
ATOM     25  C   UNL     1      45.577   2.295   8.411  0.00  0.00    +0.000 A 
ATOM     26  C   UNL     1      45.825   3.461   7.687  0.00  0.00    +0.000 A 
ATOM     27  C   UNL     1      46.836   3.463   6.731  0.00  0.00    +0.000 A 
ATOM     28  C   UNL     1      47.571   2.302   6.520  0.00  0.00    +0.000 A 
ATOM     29  C   UNL     1      47.262   1.185   7.278  0.00  0.00    +0.000 A 
ATOM     30  N   UNL     1      46.289   1.155   8.216  0.00  0.00    +0.000 NA
ENDBRANCH  24  25
ENDBRANCH  22  24
ENDBRANCH  21  22
ENDBRANCH   4  21
TORSDOF 10
ENDMDL
MODEL 8
REMARK VINA RESULT:    -6.559      1.707      7.832
REMARK INTER + INTRA:         -11.225
REMARK INTER:                 -10.790
REMARK INTRA:                  -0.435
REMARK UNBOUND:                -1.023
REMARK  Name = 
REMARK  10 active torsions:
REMARK  status: ('A' for Active; 'I' for Inactive)
REMARK    1  A    between atoms: N_1  and  C_2
REMARK    2  A    between atoms: C_2  and  C_3
REMARK    3  A    between atoms: C_3  and  N_4
REMARK    4  A    between atoms: C_3  and  C_12
REMARK    5  A    between atoms: N_4  and  C_5
REMARK    6  A    between atoms: C_5  and  C_6
REMARK    7  A    between atoms: C_15  and  C_16
REMARK    8  A    between atoms: C_16  and  N_17
REMARK    9  A    between atoms: N_17  and  C_18
REMARK   10  A    between atoms: C_18  and  C_19
REMARK                            x       y       z     vdW  Elec       q    Type
REMARK                         _______ _______ _______ _____ _____    ______ ____
ROOT
ATOM      1  C   UNL     1      44.899   5.103  11.240  0.00  0.00    +0.000 A 
ATOM      2  C   UNL     1      44.223   5.719  12.309  0.00  0.00    +0.000 A 
ATOM      3  C   UNL     1      44.712   6.892  12.890  0.00  0.00    +0.000 A 
ATOM      4  C   UNL     1      45.865   7.507  12.391  0.00  0.00    +0.000 A 
ATOM      5  C   UNL     1      46.516   6.927  11.298  0.00  0.00    +0.000 A 
ATOM      6  C   UNL     1      46.048   5.733  10.740  0.00  0.00    +0.000 A 
ENDROOT
BRANCH   1   7
ATOM      7  C   UNL     1      44.418   3.741  10.731  0.00  0.00    +0.000 C 
BRANCH   7   8
ATOM      8  N   UNL     1      44.015   3.792   9.307  0.00  0.00    +0.000 NA
ATOM      9  H   UNL     1      43.213   4.409   9.213  0.00  0.00    +0.000 HD
BRANCH   8  10
ATOM     10  C   UNL     1      45.077   4.199   8.393  0.00  0.00    +0.000 C 
BRANCH  10  11
ATOM     11  C   UNL     1      45.915   3.037   7.960  0.00  0.00    +0.000 A 
ATOM     12  C   UNL     1      46.995   3.184   7.107  0.00  0.00    +0.000 A 
ATOM     13  N   UNL     1      47.779   2.164   6.705  0.00  0.00    +0.000 NA
ATOM     14  C   UNL     1      47.454   0.960   7.191  0.00  0.00    +0.000 A 
ATOM     15  N   UNL     1      46.443   0.691   8.031  0.00  0.00    +0.000 NA
ATOM     16  C   UNL     1      45.691   1.750   8.395  0.00  0.00    +0.000 A 
ENDBRANCH  10  11
ENDBRANCH   8  10
ENDBRANCH   7   8
BRANCH   7  17
ATOM     17  C   UNL     1      43.237   3.178  11.603  0.00  0.00    +0.000 C 
BRANCH  17  18
ATOM     18  N   UNL     1      43.580   2.058  12.488  0.00  0.00    +0.000 NA
ATOM     19  H   UNL     1      43.230   1.191  12.084  0.00  0.00    +0.000 HD
ATOM     20  H   UNL     1      43.117   2.174  13.386  0.00  0.00    +0.000 HD
ENDBRANCH  17  18
ENDBRANCH   7  17
ENDBRANCH   1   7
BRANCH   4  21
ATOM     21  C   UNL     1      46.405   8.766  13.029  0.00  0.00    +0.000 C 
BRANCH  21  22
ATOM     22  N   UNL     1      47.033   8.468  14.313  0.00  0.00    +0.000 NA
ATOM     23  H   UNL     1      46.359   7.985  14.907  0.00  0.00    +0.000 HD
BRANCH  22  24
ATOM     24  C   UNL     1      48.193   7.585  14.137  0.00  0.00    +0.000 C 
BRANCH  24  25
ATOM     25  C   UNL     1      48.115   6.362  15.030  0.00  0.00    +0.000 A 
ATOM     26  C   UNL     1      47.375   5.249  14.630  0.00  0.00    +0.000 A 
ATOM     27  C   UNL     1      47.328   4.134  15.462  0.00  0.00    +0.000 A 
ATOM     28  C   UNL     1      48.014   4.159  16.670  0.00  0.00    +0.000 A 
ATOM     29  C   UNL     1      48.724   5.303  16.995  0.00  0.00    +0.000 A 
ATOM     30  N   UNL     1      48.792   6.399  16.206  0.00  0.00    +0.000 NA
ENDBRANCH  24  25
ENDBRANCH  22  24
ENDBRANCH  21  22
ENDBRANCH   4  21
TORSDOF 10
ENDMDL
MODEL 9
REMARK VINA RESULT:    -6.501      1.792      3.101
REMARK INTER + INTRA:         -11.134
REMARK INTER:                 -10.315
REMARK INTRA:                  -0.819
REMARK UNBOUND:                -1.023
REMARK  Name = 
REMARK  10 active torsions:
REMARK  status: ('A' for Active; 'I' for Inactive)
REMARK    1  A    between atoms: N_1  and  C_2
REMARK    2  A    between atoms: C_2  and  C_3
REMARK    3  A    between atoms: C_3  and  N_4
REMARK    4  A    between atoms: C_3  and  C_12
REMARK    5  A    between atoms: N_4  and  C_5
REMARK    6  A    between atoms: C_5  and  C_6
REMARK    7  A    between atoms: C_15  and  C_16
REMARK    8  A    between atoms: C_16  and  N_17
REMARK    9  A    between atoms: N_17  and  C_18
REMARK   10  A    between atoms: C_18  and  C_19
REMARK                            x       y       z     vdW  Elec       q    Type
REMARK                         _______ _______ _______ _____ _____    ______ ____
ROOT
ATOM      1  C   UNL     1      47.166   5.046  14.439  0.00  0.00    +0.000 A 
ATOM      2  C   UNL     1      46.378   4.023  13.880  0.00  0.00    +0.000 A 
ATOM      3  C   UNL     1      45.781   4.176  12.626  0.00  0.00    +0.000 A 
ATOM      4  C   UNL     1      45.989   5.338  11.875  0.00  0.00    +0.000 A 
ATOM      5  C   UNL     1      46.809   6.341  12.402  0.00  0.00    +0.000 A 
ATOM      6  C   UNL     1      47.377   6.203  13.673  0.00  0.00    +0.000 A 
ENDROOT
BRANCH   1   7
ATOM      7  C   UNL     1      47.676   4.903  15.875  0.00  0.00    +0.000 C 
BRANCH   7   8
ATOM      8  N   UNL     1      49.061   5.405  16.024  0.00  0.00    +0.000 NA
ATOM      9  H   UNL     1      49.245   6.090  15.295  0.00  0.00    +0.000 HD
BRANCH   8  10
ATOM     10  C   UNL     1      49.361   5.971  17.336  0.00  0.00    +0.000 C 
BRANCH  10  11
ATOM     11  C   UNL     1      50.518   5.282  17.989  0.00  0.00    +0.000 A 
ATOM     12  C   UNL     1      51.204   5.842  19.052  0.00  0.00    +0.000 A 
ATOM     13  N   UNL     1      52.242   5.247  19.673  0.00  0.00    +0.000 NA
ATOM     14  C   UNL     1      52.585   4.043  19.197  0.00  0.00    +0.000 A 
ATOM     15  N   UNL     1      51.993   3.392  18.185  0.00  0.00    +0.000 NA
ATOM     16  C   UNL     1      50.964   4.038  17.600  0.00  0.00    +0.000 A 
ENDBRANCH  10  11
ENDBRANCH   8  10
ENDBRANCH   7   8
BRANCH   7  17
ATOM     17  C   UNL     1      47.587   3.417  16.379  0.00  0.00    +0.000 C 
BRANCH  17  18
ATOM     18  N   UNL     1      46.628   3.170  17.462  0.00  0.00    +0.000 NA
ATOM     19  H   UNL     1      45.919   3.901  17.458  0.00  0.00    +0.000 HD
ATOM     20  H   UNL     1      47.102   3.223  18.361  0.00  0.00    +0.000 HD
ENDBRANCH  17  18
ENDBRANCH   7  17
ENDBRANCH   1   7
BRANCH   4  21
ATOM     21  C   UNL     1      45.330   5.514  10.527  0.00  0.00    +0.000 C 
BRANCH  21  22
ATOM     22  N   UNL     1      44.493   4.362  10.206  0.00  0.00    +0.000 NA
ATOM     23  H   UNL     1      43.560   4.513  10.592  0.00  0.00    +0.000 HD
BRANCH  22  24
ATOM     24  C   UNL     1      44.358   4.200   8.752  0.00  0.00    +0.000 C 
BRANCH  24  25
ATOM     25  C   UNL     1      45.455   3.326   8.175  0.00  0.00    +0.000 A 
ATOM     26  C   UNL     1      45.548   1.984   8.544  0.00  0.00    +0.000 A 
ATOM     27  C   UNL     1      46.556   1.200   7.991  0.00  0.00    +0.000 A 
ATOM     28  C   UNL     1      47.446   1.774   7.091  0.00  0.00    +0.000 A 
ATOM     29  C   UNL     1      47.287   3.113   6.779  0.00  0.00    +0.000 A 
ATOM     30  N   UNL     1      46.315   3.899   7.295  0.00  0.00    +0.000 NA
ENDBRANCH  24  25
ENDBRANCH  22  24
ENDBRANCH  21  22
ENDBRANCH   4  21
TORSDOF 10
ENDMDL
