MODEL 1
REMARK VINA RESULT:    -7.321      0.000      0.000
REMARK INTER + INTRA:         -12.002
REMARK INTER:                 -11.173
REMARK INTRA:                  -0.829
REMARK UNBOUND:                -0.829
REMARK  Name = 
REMARK  16 active torsions:
REMARK  status: ('A' for Active; 'I' for Inactive)
REMARK    1  A    between atoms: C_1  and  C_2
REMARK    2  A    between atoms: C_5  and  O_6
REMARK    3  A    between atoms: O_6  and  C_7
REMARK    4  A    between atoms: C_7  and  C_8
REMARK    5  A    between atoms: C_8  and  C_9
REMARK    6  A    between atoms: C_8  and  C_10
REMARK    7  A    between atoms: C_14  and  C_15
REMARK    8  A    between atoms: C_15  and  C_16
REMARK    9  A    between atoms: C_19  and  O_21
REMARK   10  A    between atoms: O_21  and  C_22
REMARK   11  A    between atoms: C_22  and  C_23
REMARK   12  A    between atoms: C_22  and  C_24
REMARK   13  A    between atoms: C_22  and  C_25
REMARK   14  A    between atoms: C_29  and  C_30
REMARK   15  A    between atoms: C_30  and  C_31
REMARK   16  A    between atoms: C_30  and  C_32
REMARK                            x       y       z     vdW  Elec       q    Type
REMARK                         _______ _______ _______ _____ _____    ______ ____
ROOT
ATOM      1  C   UNL     1      46.615   5.847  13.212  0.00  0.00    +0.000 A 
ATOM      2  C   UNL     1      47.152   4.665  13.731  0.00  0.00    +0.000 A 
ATOM      3  C   UNL     1      46.500   3.468  13.473  0.00  0.00    +0.000 A 
ATOM      4  N   UNL     1      45.373   3.368  12.735  0.00  0.00    +0.000 NA
ATOM      5  C   UNL     1      44.862   4.510  12.220  0.00  0.00    +0.000 A 
ATOM      6  C   UNL     1      45.443   5.756  12.446  0.00  0.00    +0.000 A 
ENDROOT
BRANCH   1   7
ATOM      7  C   UNL     1      47.278   7.196  13.436  0.00  0.00    +0.000 C 
ATOM      8  C   UNL     1      47.165   8.090  12.194  0.00  0.00    +0.000 C 
BRANCH   7   9
ATOM      9  C   UNL     1      48.743   7.048  13.890  0.00  0.00    +0.000 C 
BRANCH   9  10
ATOM     10  O   UNL     1      48.843   7.391  15.277  0.00  0.00    +0.000 OA
BRANCH  10  15
ATOM     11  C   UNL     1      51.881   3.761  18.149  0.00  0.00    +0.000 C 
ATOM     12  C   UNL     1      51.009   4.708  17.392  0.00  0.00    +0.000 A 
ATOM     13  N   UNL     1      51.657   5.686  16.721  0.00  0.00    +0.000 NA
ATOM     14  N   UNL     1      50.941   6.589  16.013  0.00  0.00    +0.000 NA
ATOM     15  C   UNL     1      49.597   6.490  15.999  0.00  0.00    +0.000 A 
ATOM     16  N   UNL     1      48.895   5.549  16.650  0.00  0.00    +0.000 NA
ATOM     17  C   UNL     1      49.619   4.637  17.348  0.00  0.00    +0.000 A 
BRANCH  17  18
ATOM     18  C   UNL     1      48.828   3.589  18.117  0.00  0.00    +0.000 C 
ATOM     19  C   UNL     1      48.519   4.081  19.533  0.00  0.00    +0.000 C 
ATOM     20  C   UNL     1      47.518   3.200  17.415  0.00  0.00    +0.000 C 
ENDBRANCH  17  18
ENDBRANCH  10  15
ENDBRANCH   9  10
ENDBRANCH   7   9
ENDBRANCH   1   7
BRANCH   5  21
ATOM     21  C   UNL     1      43.681   4.363  11.293  0.00  0.00    +0.000 C 
BRANCH  21  22
ATOM     22  C   UNL     1      44.038   4.080   9.839  0.00  0.00    +0.000 C 
ATOM     23  C   UNL     1      44.635   2.743   9.316  0.00  0.00    +0.000 C 
ATOM     24  N   UNL     1      45.411   3.572   8.421  0.00  0.00    +0.000 N 
ATOM     25  C   UNL     1      46.011   3.447   7.203  0.00  0.00    +0.000 C 
ATOM     26  O   UNL     1      46.596   4.396   6.689  0.00  0.00    +0.000 OA
ATOM     27  C   UNL     1      45.261   4.780   9.214  0.00  0.00    +0.000 C 
BRANCH  25  28
ATOM     28  O   UNL     1      45.872   2.219   6.632  0.00  0.00    +0.000 OA
BRANCH  28  29
ATOM     29  C   UNL     1      47.055   1.365   6.554  0.00  0.00    +0.000 C 
ATOM     30  C   UNL     1      46.957   0.180   7.529  0.00  0.00    +0.000 C 
ATOM     31  C   UNL     1      47.102   0.789   5.126  0.00  0.00    +0.000 C 
ATOM     32  C   UNL     1      48.346   2.174   6.761  0.00  0.00    +0.000 C 
ENDBRANCH  28  29
ENDBRANCH  25  28
ENDBRANCH  21  22
ENDBRANCH   5  21
TORSDOF 9
ENDMDL
MODEL 2
REMARK VINA RESULT:    -6.772      2.290     10.051
REMARK INTER + INTRA:         -11.164
REMARK INTER:                 -11.169
REMARK INTRA:                   0.005
REMARK UNBOUND:                -0.829
REMARK  Name = 
REMARK  16 active torsions:
REMARK  status: ('A' for Active; 'I' for Inactive)
REMARK    1  A    between atoms: C_1  and  C_2
REMARK    2  A    between atoms: C_5  and  O_6
REMARK    3  A    between atoms: O_6  and  C_7
REMARK    4  A    between atoms: C_7  and  C_8
REMARK    5  A    between atoms: C_8  and  C_9
REMARK    6  A    between atoms: C_8  and  C_10
REMARK    7  A    between atoms: C_14  and  C_15
REMARK    8  A    between atoms: C_15  and  C_16
REMARK    9  A    between atoms: C_19  and  O_21
REMARK   10  A    between atoms: O_21  and  C_22
REMARK   11  A    between atoms: C_22  and  C_23
REMARK   12  A    between atoms: C_22  and  C_24
REMARK   13  A    between atoms: C_22  and  C_25
REMARK   14  A    between atoms: C_29  and  C_30
REMARK   15  A    between atoms: C_30  and  C_31
REMARK   16  A    between atoms: C_30  and  C_32
REMARK                            x       y       z     vdW  Elec       q    Type
REMARK                         _______ _______ _______ _____ _____    ______ ____
ROOT
ATOM      1  C   UNL     1      45.098   5.618  12.173  0.00  0.00    +0.000 A 
ATOM      2  C   UNL     1      46.067   6.491  11.669  0.00  0.00    +0.000 A 
ATOM      3  C   UNL     1      47.334   6.476  12.231  0.00  0.00    +0.000 A 
ATOM      4  N   UNL     1      47.701   5.655  13.239  0.00  0.00    +0.000 NA
ATOM      5  C   UNL     1      46.768   4.799  13.718  0.00  0.00    +0.000 A 
ATOM      6  C   UNL     1      45.466   4.763  13.222  0.00  0.00    +0.000 A 
ENDROOT
BRANCH   1   7
ATOM      7  C   UNL     1      43.691   5.563  11.600  0.00  0.00    +0.000 C 
ATOM      8  C   UNL     1      42.635   5.488  12.711  0.00  0.00    +0.000 C 
BRANCH   7   9
ATOM      9  C   UNL     1      43.527   4.409  10.591  0.00  0.00    +0.000 C 
BRANCH   9  10
ATOM     10  O   UNL     1      44.290   4.702   9.415  0.00  0.00    +0.000 OA
BRANCH  10  15
ATOM     11  C   UNL     1      46.900   0.256   7.397  0.00  0.00    +0.000 C 
ATOM     12  C   UNL     1      46.225   1.491   7.895  0.00  0.00    +0.000 A 
ATOM     13  N   UNL     1      45.437   1.324   8.982  0.00  0.00    +0.000 NA
ATOM     14  N   UNL     1      44.785   2.392   9.495  0.00  0.00    +0.000 NA
ATOM     15  C   UNL     1      44.936   3.595   8.906  0.00  0.00    +0.000 A 
ATOM     16  N   UNL     1      45.694   3.823   7.822  0.00  0.00    +0.000 NA
ATOM     17  C   UNL     1      46.358   2.751   7.319  0.00  0.00    +0.000 A 
BRANCH  17  18
ATOM     18  C   UNL     1      47.192   2.995   6.070  0.00  0.00    +0.000 C 
ATOM     19  C   UNL     1      48.660   2.647   6.326  0.00  0.00    +0.000 C 
ATOM     20  C   UNL     1      46.685   2.205   4.854  0.00  0.00    +0.000 C 
ENDBRANCH  17  18
ENDBRANCH  10  15
ENDBRANCH   9  10
ENDBRANCH   7   9
ENDBRANCH   1   7
BRANCH   5  21
ATOM     21  C   UNL     1      47.231   3.803  14.751  0.00  0.00    +0.000 C 
BRANCH  21  22
ATOM     22  C   UNL     1      47.376   4.362  16.161  0.00  0.00    +0.000 C 
ATOM     23  C   UNL     1      48.521   5.307  16.628  0.00  0.00    +0.000 C 
ATOM     24  N   UNL     1      48.457   4.579  17.875  0.00  0.00    +0.000 N 
ATOM     25  C   UNL     1      48.747   4.809  19.188  0.00  0.00    +0.000 C 
ATOM     26  O   UNL     1      48.541   3.948  20.038  0.00  0.00    +0.000 OA
ATOM     27  C   UNL     1      47.794   3.419  17.307  0.00  0.00    +0.000 C 
BRANCH  25  28
ATOM     28  O   UNL     1      49.241   6.051  19.444  0.00  0.00    +0.000 OA
BRANCH  28  29
ATOM     29  C   UNL     1      48.347   7.026  20.068  0.00  0.00    +0.000 C 
ATOM     30  C   UNL     1      47.342   6.342  21.010  0.00  0.00    +0.000 C 
ATOM     31  C   UNL     1      49.226   7.959  20.922  0.00  0.00    +0.000 C 
ATOM     32  C   UNL     1      47.646   7.898  19.015  0.00  0.00    +0.000 C 
ENDBRANCH  28  29
ENDBRANCH  25  28
ENDBRANCH  21  22
ENDBRANCH   5  21
TORSDOF 9
ENDMDL
MODEL 3
REMARK VINA RESULT:    -6.624      1.262      2.043
REMARK INTER + INTRA:         -10.938
REMARK INTER:                 -10.556
REMARK INTRA:                  -0.381
REMARK UNBOUND:                -0.829
REMARK  Name = 
REMARK  16 active torsions:
REMARK  status: ('A' for Active; 'I' for Inactive)
REMARK    1  A    between atoms: C_1  and  C_2
REMARK    2  A    between atoms: C_5  and  O_6
REMARK    3  A    between atoms: O_6  and  C_7
REMARK    4  A    between atoms: C_7  and  C_8
REMARK    5  A    between atoms: C_8  and  C_9
REMARK    6  A    between atoms: C_8  and  C_10
REMARK    7  A    between atoms: C_14  and  C_15
REMARK    8  A    between atoms: C_15  and  C_16
REMARK    9  A    between atoms: C_19  and  O_21
REMARK   10  A    between atoms: O_21  and  C_22
REMARK   11  A    between atoms: C_22  and  C_23
REMARK   12  A    between atoms: C_22  and  C_24
REMARK   13  A    between atoms: C_22  and  C_25
REMARK   14  A    between atoms: C_29  and  C_30
REMARK   15  A    between atoms: C_30  and  C_31
REMARK   16  A    between atoms: C_30  and  C_32
REMARK                            x       y       z     vdW  Elec       q    Type
REMARK                         _______ _______ _______ _____ _____    ______ ____
ROOT
ATOM      1  C   UNL     1      46.589   5.854  13.158  0.00  0.00    +0.000 A 
ATOM      2  C   UNL     1      47.138   4.704  13.730  0.00  0.00    +0.000 A 
ATOM      3  C   UNL     1      46.506   3.487  13.519  0.00  0.00    +0.000 A 
ATOM      4  N   UNL     1      45.387   3.339  12.779  0.00  0.00    +0.000 NA
ATOM      5  C   UNL     1      44.863   4.450  12.211  0.00  0.00    +0.000 A 
ATOM      6  C   UNL     1      45.424   5.713  12.388  0.00  0.00    +0.000 A 
ENDROOT
BRANCH   1   7
ATOM      7  C   UNL     1      47.230   7.222  13.329  0.00  0.00    +0.000 C 
ATOM      8  C   UNL     1      46.211   8.350  13.124  0.00  0.00    +0.000 C 
BRANCH   7   9
ATOM      9  C   UNL     1      48.456   7.399  12.411  0.00  0.00    +0.000 C 
BRANCH   9  10
ATOM     10  O   UNL     1      49.627   6.940  13.096  0.00  0.00    +0.000 OA
BRANCH  10  15
ATOM     11  C   UNL     1      50.061   8.957  18.234  0.00  0.00    +0.000 C 
ATOM     12  C   UNL     1      49.939   8.354  16.874  0.00  0.00    +0.000 A 
ATOM     13  N   UNL     1      50.008   9.226  15.843  0.00  0.00    +0.000 NA
ATOM     14  N   UNL     1      49.902   8.762  14.577  0.00  0.00    +0.000 NA
ATOM     15  C   UNL     1      49.727   7.441  14.378  0.00  0.00    +0.000 A 
ATOM     16  N   UNL     1      49.642   6.527  15.357  0.00  0.00    +0.000 NA
ATOM     17  C   UNL     1      49.763   6.995  16.625  0.00  0.00    +0.000 A 
BRANCH  17  18
ATOM     18  C   UNL     1      49.632   5.970  17.742  0.00  0.00    +0.000 C 
ATOM     19  C   UNL     1      48.167   5.575  17.941  0.00  0.00    +0.000 C 
ATOM     20  C   UNL     1      50.471   4.707  17.490  0.00  0.00    +0.000 C 
ENDBRANCH  17  18
ENDBRANCH  10  15
ENDBRANCH   9  10
ENDBRANCH   7   9
ENDBRANCH   1   7
BRANCH   5  21
ATOM     21  C   UNL     1      43.691   4.247  11.283  0.00  0.00    +0.000 C 
BRANCH  21  22
ATOM     22  C   UNL     1      44.061   4.038   9.820  0.00  0.00    +0.000 C 
ATOM     23  C   UNL     1      44.618   2.712   9.226  0.00  0.00    +0.000 C 
ATOM     24  N   UNL     1      45.438   3.563   8.394  0.00  0.00    +0.000 N 
ATOM     25  C   UNL     1      46.052   3.489   7.178  0.00  0.00    +0.000 C 
ATOM     26  O   UNL     1      46.679   4.444   6.730  0.00  0.00    +0.000 OA
ATOM     27  C   UNL     1      45.319   4.727   9.255  0.00  0.00    +0.000 C 
BRANCH  25  28
ATOM     28  O   UNL     1      45.877   2.303   6.533  0.00  0.00    +0.000 OA
BRANCH  28  29
ATOM     29  C   UNL     1      47.033   1.418   6.407  0.00  0.00    +0.000 C 
ATOM     30  C   UNL     1      47.213   0.933   4.959  0.00  0.00    +0.000 C 
ATOM     31  C   UNL     1      48.278   2.246   6.779  0.00  0.00    +0.000 C 
ATOM     32  C   UNL     1      46.953   0.246   7.398  0.00  0.00    +0.000 C 
ENDBRANCH  28  29
ENDBRANCH  25  28
ENDBRANCH  21  22
ENDBRANCH   5  21
TORSDOF 9
ENDMDL
MODEL 4
REMARK VINA RESULT:    -6.582      3.752      7.982
REMARK INTER + INTRA:         -10.874
REMARK INTER:                  -9.139
REMARK INTRA:                  -1.734
REMARK UNBOUND:                -0.829
REMARK  Name = 
REMARK  16 active torsions:
REMARK  status: ('A' for Active; 'I' for Inactive)
REMARK    1  A    between atoms: C_1  and  C_2
REMARK    2  A    between atoms: C_5  and  O_6
REMARK    3  A    between atoms: O_6  and  C_7
REMARK    4  A    between atoms: C_7  and  C_8
REMARK    5  A    between atoms: C_8  and  C_9
REMARK    6  A    between atoms: C_8  and  C_10
REMARK    7  A    between atoms: C_14  and  C_15
REMARK    8  A    between atoms: C_15  and  C_16
REMARK    9  A    between atoms: C_19  and  O_21
REMARK   10  A    between atoms: O_21  and  C_22
REMARK   11  A    between atoms: C_22  and  C_23
REMARK   12  A    between atoms: C_22  and  C_24
REMARK   13  A    between atoms: C_22  and  C_25
REMARK   14  A    between atoms: C_29  and  C_30
REMARK   15  A    between atoms: C_30  and  C_31
REMARK   16  A    between atoms: C_30  and  C_32
REMARK                            x       y       z     vdW  Elec       q    Type
REMARK                         _______ _______ _______ _____ _____    ______ ____
ROOT
ATOM      1  C   UNL     1      49.492   4.355  17.531  0.00  0.00    +0.000 A 
ATOM      2  C   UNL     1      50.792   4.085  17.968  0.00  0.00    +0.000 A 
ATOM      3  C   UNL     1      51.650   5.149  18.204  0.00  0.00    +0.000 A 
ATOM      4  N   UNL     1      51.303   6.445  18.049  0.00  0.00    +0.000 NA
ATOM      5  C   UNL     1      50.039   6.707  17.640  0.00  0.00    +0.000 A 
ATOM      6  C   UNL     1      49.121   5.697  17.363  0.00  0.00    +0.000 A 
ENDROOT
BRANCH   1   7
ATOM      7  C   UNL     1      48.487   3.246  17.265  0.00  0.00    +0.000 C 
ATOM      8  C   UNL     1      49.156   2.026  16.618  0.00  0.00    +0.000 C 
BRANCH   7   9
ATOM      9  C   UNL     1      47.292   3.742  16.427  0.00  0.00    +0.000 C 
BRANCH   9  10
ATOM     10  O   UNL     1      47.385   3.193  15.107  0.00  0.00    +0.000 OA
BRANCH  10  15
ATOM     11  C   UNL     1      45.849   6.801  11.198  0.00  0.00    +0.000 C 
ATOM     12  C   UNL     1      46.205   5.800  12.248  0.00  0.00    +0.000 A 
ATOM     13  N   UNL     1      47.438   5.935  12.785  0.00  0.00    +0.000 NA
ATOM     14  N   UNL     1      47.842   5.067  13.741  0.00  0.00    +0.000 NA
ATOM     15  C   UNL     1      47.002   4.086  14.128  0.00  0.00    +0.000 A 
ATOM     16  N   UNL     1      45.772   3.894  13.627  0.00  0.00    +0.000 NA
ATOM     17  C   UNL     1      45.366   4.776  12.680  0.00  0.00    +0.000 A 
BRANCH  17  18
ATOM     18  C   UNL     1      43.986   4.543  12.083  0.00  0.00    +0.000 C 
ATOM     19  C   UNL     1      43.762   3.054  11.809  0.00  0.00    +0.000 C 
ATOM     20  C   UNL     1      42.855   5.073  12.977  0.00  0.00    +0.000 C 
ENDBRANCH  17  18
ENDBRANCH  10  15
ENDBRANCH   9  10
ENDBRANCH   7   9
ENDBRANCH   1   7
BRANCH   5  21
ATOM     21  C   UNL     1      49.631   8.159  17.598  0.00  0.00    +0.000 C 
BRANCH  21  22
ATOM     22  C   UNL     1      49.578   8.770  16.204  0.00  0.00    +0.000 C 
ATOM     23  C   UNL     1      48.485   8.460  15.140  0.00  0.00    +0.000 C 
ATOM     24  N   UNL     1      49.559   8.554  14.177  0.00  0.00    +0.000 N 
ATOM     25  C   UNL     1      49.698   8.853  12.854  0.00  0.00    +0.000 C 
ATOM     26  O   UNL     1      50.806   8.868  12.325  0.00  0.00    +0.000 OA
ATOM     27  C   UNL     1      50.615   8.335  15.150  0.00  0.00    +0.000 C 
BRANCH  25  28
ATOM     28  O   UNL     1      48.530   9.149  12.220  0.00  0.00    +0.000 OA
BRANCH  28  29
ATOM     29  C   UNL     1      48.231  10.556  11.961  0.00  0.00    +0.000 C 
ATOM     30  C   UNL     1      48.830  11.020  10.623  0.00  0.00    +0.000 C 
ATOM     31  C   UNL     1      46.699  10.678  11.854  0.00  0.00    +0.000 C 
ATOM     32  C   UNL     1      48.678  11.448  13.131  0.00  0.00    +0.000 C 
ENDBRANCH  28  29
ENDBRANCH  25  28
ENDBRANCH  21  22
ENDBRANCH   5  21
TORSDOF 9
ENDMDL
MODEL 5
REMARK VINA RESULT:    -6.560      1.746      2.870
REMARK INTER + INTRA:         -10.841
REMARK INTER:                  -9.840
REMARK INTRA:                  -1.001
REMARK UNBOUND:                -0.829
REMARK  Name = 
REMARK  16 active torsions:
REMARK  status: ('A' for Active; 'I' for Inactive)
REMARK    1  A    between atoms: C_1  and  C_2
REMARK    2  A    between atoms: C_5  and  O_6
REMARK    3  A    between atoms: O_6  and  C_7
REMARK    4  A    between atoms: C_7  and  C_8
REMARK    5  A    between atoms: C_8  and  C_9
REMARK    6  A    between atoms: C_8  and  C_10
REMARK    7  A    between atoms: C_14  and  C_15
REMARK    8  A    between atoms: C_15  and  C_16
REMARK    9  A    between atoms: C_19  and  O_21
REMARK   10  A    between atoms: O_21  and  C_22
REMARK   11  A    between atoms: C_22  and  C_23
REMARK   12  A    between atoms: C_22  and  C_24
REMARK   13  A    between atoms: C_22  and  C_25
REMARK   14  A    between atoms: C_29  and  C_30
REMARK   15  A    between atoms: C_30  and  C_31
REMARK   16  A    between atoms: C_30  and  C_32
REMARK                            x       y       z     vdW  Elec       q    Type
REMARK                         _______ _______ _______ _____ _____    ______ ____
ROOT
ATOM      1  C   UNL     1      46.785   8.440  12.933  0.00  0.00    +0.000 A 
ATOM      2  C   UNL     1      45.992   9.433  12.350  0.00  0.00    +0.000 A 
ATOM      3  C   UNL     1      44.851   9.054  11.660  0.00  0.00    +0.000 A 
ATOM      4  N   UNL     1      44.444   7.773  11.523  0.00  0.00    +0.000 NA
ATOM      5  C   UNL     1      45.202   6.813  12.100  0.00  0.00    +0.000 A 
ATOM      6  C   UNL     1      46.374   7.106  12.795  0.00  0.00    +0.000 A 
ENDROOT
BRANCH   1   7
ATOM      7  C   UNL     1      48.042   8.774  13.719  0.00  0.00    +0.000 C 
ATOM      8  C   UNL     1      48.543  10.189  13.402  0.00  0.00    +0.000 C 
BRANCH   7   9
ATOM      9  C   UNL     1      49.150   7.725  13.504  0.00  0.00    +0.000 C 
BRANCH   9  10
ATOM     10  O   UNL     1      50.000   7.695  14.657  0.00  0.00    +0.000 OA
BRANCH  10  15
ATOM     11  C   UNL     1      47.590   5.394  19.078  0.00  0.00    +0.000 C 
ATOM     12  C   UNL     1      48.223   5.963  17.851  0.00  0.00    +0.000 A 
ATOM     13  N   UNL     1      48.829   7.161  18.012  0.00  0.00    +0.000 NA
ATOM     14  N   UNL     1      49.424   7.748  16.949  0.00  0.00    +0.000 NA
ATOM     15  C   UNL     1      49.393   7.123  15.755  0.00  0.00    +0.000 A 
ATOM     16  N   UNL     1      48.800   5.940  15.529  0.00  0.00    +0.000 NA
ATOM     17  C   UNL     1      48.217   5.348  16.602  0.00  0.00    +0.000 A 
BRANCH  17  18
ATOM     18  C   UNL     1      47.513   4.024  16.346  0.00  0.00    +0.000 C 
ATOM     19  C   UNL     1      46.974   3.968  14.915  0.00  0.00    +0.000 C 
ATOM     20  C   UNL     1      48.421   2.810  16.596  0.00  0.00    +0.000 C 
ENDBRANCH  17  18
ENDBRANCH  10  15
ENDBRANCH   9  10
ENDBRANCH   7   9
ENDBRANCH   1   7
BRANCH   5  21
ATOM     21  C   UNL     1      44.664   5.404  12.048  0.00  0.00    +0.000 C 
BRANCH  21  22
ATOM     22  C   UNL     1      45.220   4.546  10.919  0.00  0.00    +0.000 C 
ATOM     23  C   UNL     1      44.784   4.648   9.429  0.00  0.00    +0.000 C 
ATOM     24  N   UNL     1      44.935   3.211   9.406  0.00  0.00    +0.000 N 
ATOM     25  C   UNL     1      45.200   2.243   8.482  0.00  0.00    +0.000 C 
ATOM     26  O   UNL     1      45.290   1.064   8.813  0.00  0.00    +0.000 OA
ATOM     27  C   UNL     1      44.839   3.055  10.847  0.00  0.00    +0.000 C 
BRANCH  25  28
ATOM     28  O   UNL     1      45.375   2.710   7.216  0.00  0.00    +0.000 OA
BRANCH  28  29
ATOM     29  C   UNL     1      46.725   2.676   6.656  0.00  0.00    +0.000 C 
ATOM     30  C   UNL     1      46.694   2.560   5.123  0.00  0.00    +0.000 C 
ATOM     31  C   UNL     1      47.393   4.018   7.009  0.00  0.00    +0.000 C 
ATOM     32  C   UNL     1      47.570   1.564   7.299  0.00  0.00    +0.000 C 
ENDBRANCH  28  29
ENDBRANCH  25  28
ENDBRANCH  21  22
ENDBRANCH   5  21
TORSDOF 9
ENDMDL
MODEL 6
REMARK VINA RESULT:    -6.443      3.403      5.362
REMARK INTER + INTRA:         -10.661
REMARK INTER:                  -9.221
REMARK INTRA:                  -1.441
REMARK UNBOUND:                -0.829
REMARK  Name = 
REMARK  16 active torsions:
REMARK  status: ('A' for Active; 'I' for Inactive)
REMARK    1  A    between atoms: C_1  and  C_2
REMARK    2  A    between atoms: C_5  and  O_6
REMARK    3  A    between atoms: O_6  and  C_7
REMARK    4  A    between atoms: C_7  and  C_8
REMARK    5  A    between atoms: C_8  and  C_9
REMARK    6  A    between atoms: C_8  and  C_10
REMARK    7  A    between atoms: C_14  and  C_15
REMARK    8  A    between atoms: C_15  and  C_16
REMARK    9  A    between atoms: C_19  and  O_21
REMARK   10  A    between atoms: O_21  and  C_22
REMARK   11  A    between atoms: C_22  and  C_23
REMARK   12  A    between atoms: C_22  and  C_24
REMARK   13  A    between atoms: C_22  and  C_25
REMARK   14  A    between atoms: C_29  and  C_30
REMARK   15  A    between atoms: C_30  and  C_31
REMARK   16  A    between atoms: C_30  and  C_32
REMARK                            x       y       z     vdW  Elec       q    Type
REMARK                         _______ _______ _______ _____ _____    ______ ____
ROOT
ATOM      1  C   UNL     1      51.035   8.949  14.855  0.00  0.00    +0.000 A 
ATOM      2  C   UNL     1      50.126   9.558  15.725  0.00  0.00    +0.000 A 
ATOM      3  C   UNL     1      48.843   9.821  15.270  0.00  0.00    +0.000 A 
ATOM      4  N   UNL     1      48.406   9.515  14.029  0.00  0.00    +0.000 NA
ATOM      5  C   UNL     1      49.281   8.911  13.191  0.00  0.00    +0.000 A 
ATOM      6  C   UNL     1      50.593   8.628  13.563  0.00  0.00    +0.000 A 
ENDROOT
BRANCH   1   7
ATOM      7  C   UNL     1      52.454   8.612  15.283  0.00  0.00    +0.000 C 
ATOM      8  C   UNL     1      53.276   8.055  14.113  0.00  0.00    +0.000 C 
BRANCH   7   9
ATOM      9  C   UNL     1      52.478   7.656  16.491  0.00  0.00    +0.000 C 
BRANCH   9  10
ATOM     10  O   UNL     1      51.758   6.463  16.160  0.00  0.00    +0.000 OA
BRANCH  10  15
ATOM     11  C   UNL     1      48.785   4.512  20.404  0.00  0.00    +0.000 C 
ATOM     12  C   UNL     1      49.570   4.986  19.225  0.00  0.00    +0.000 A 
ATOM     13  N   UNL     1      50.239   6.147  19.402  0.00  0.00    +0.000 NA
ATOM     14  N   UNL     1      50.972   6.649  18.382  0.00  0.00    +0.000 NA
ATOM     15  C   UNL     1      51.011   5.978  17.213  0.00  0.00    +0.000 A 
ATOM     16  N   UNL     1      50.362   4.828  16.973  0.00  0.00    +0.000 NA
ATOM     17  C   UNL     1      49.640   4.320  18.004  0.00  0.00    +0.000 A 
BRANCH  17  18
ATOM     18  C   UNL     1      48.874   3.035  17.728  0.00  0.00    +0.000 C 
ATOM     19  C   UNL     1      47.531   3.342  17.062  0.00  0.00    +0.000 C 
ATOM     20  C   UNL     1      49.664   2.049  16.854  0.00  0.00    +0.000 C 
ENDBRANCH  17  18
ENDBRANCH  10  15
ENDBRANCH   9  10
ENDBRANCH   7   9
ENDBRANCH   1   7
BRANCH   5  21
ATOM     21  C   UNL     1      48.738   8.459  11.859  0.00  0.00    +0.000 C 
BRANCH  21  22
ATOM     22  C   UNL     1      47.746   7.305  11.929  0.00  0.00    +0.000 C 
ATOM     23  C   UNL     1      46.296   7.413  12.482  0.00  0.00    +0.000 C 
ATOM     24  N   UNL     1      46.521   6.088  13.012  0.00  0.00    +0.000 N 
ATOM     25  C   UNL     1      45.771   5.003  13.359  0.00  0.00    +0.000 C 
ATOM     26  O   UNL     1      46.301   3.976  13.772  0.00  0.00    +0.000 OA
ATOM     27  C   UNL     1      47.970   6.180  12.958  0.00  0.00    +0.000 C 
BRANCH  25  28
ATOM     28  O   UNL     1      44.432   5.166  13.176  0.00  0.00    +0.000 OA
BRANCH  28  29
ATOM     29  C   UNL     1      43.820   4.534  12.009  0.00  0.00    +0.000 C 
ATOM     30  C   UNL     1      43.482   3.059  12.282  0.00  0.00    +0.000 C 
ATOM     31  C   UNL     1      42.496   5.273  11.738  0.00  0.00    +0.000 C 
ATOM     32  C   UNL     1      44.697   4.700  10.757  0.00  0.00    +0.000 C 
ENDBRANCH  28  29
ENDBRANCH  25  28
ENDBRANCH  21  22
ENDBRANCH   5  21
TORSDOF 9
ENDMDL
MODEL 7
REMARK VINA RESULT:    -6.433      3.719      8.976
REMARK INTER + INTRA:         -10.646
REMARK INTER:                  -9.087
REMARK INTRA:                  -1.559
REMARK UNBOUND:                -0.829
REMARK  Name = 
REMARK  16 active torsions:
REMARK  status: ('A' for Active; 'I' for Inactive)
REMARK    1  A    between atoms: C_1  and  C_2
REMARK    2  A    between atoms: C_5  and  O_6
REMARK    3  A    between atoms: O_6  and  C_7
REMARK    4  A    between atoms: C_7  and  C_8
REMARK    5  A    between atoms: C_8  and  C_9
REMARK    6  A    between atoms: C_8  and  C_10
REMARK    7  A    between atoms: C_14  and  C_15
REMARK    8  A    between atoms: C_15  and  C_16
REMARK    9  A    between atoms: C_19  and  O_21
REMARK   10  A    between atoms: O_21  and  C_22
REMARK   11  A    between atoms: C_22  and  C_23
REMARK   12  A    between atoms: C_22  and  C_24
REMARK   13  A    between atoms: C_22  and  C_25
REMARK   14  A    between atoms: C_29  and  C_30
REMARK   15  A    between atoms: C_30  and  C_31
REMARK   16  A    between atoms: C_30  and  C_32
REMARK                            x       y       z     vdW  Elec       q    Type
REMARK                         _______ _______ _______ _____ _____    ______ ____
ROOT
ATOM      1  C   UNL     1      48.081   4.291  18.212  0.00  0.00    +0.000 A 
ATOM      2  C   UNL     1      48.779   3.833  19.333  0.00  0.00    +0.000 A 
ATOM      3  C   UNL     1      49.034   4.721  20.368  0.00  0.00    +0.000 A 
ATOM      4  N   UNL     1      48.637   6.012  20.367  0.00  0.00    +0.000 NA
ATOM      5  C   UNL     1      47.948   6.452  19.288  0.00  0.00    +0.000 A 
ATOM      6  C   UNL     1      47.666   5.631  18.199  0.00  0.00    +0.000 A 
ENDROOT
BRANCH   1   7
ATOM      7  C   UNL     1      47.749   3.377  17.044  0.00  0.00    +0.000 C 
ATOM      8  C   UNL     1      48.886   2.385  16.767  0.00  0.00    +0.000 C 
BRANCH   7   9
ATOM      9  C   UNL     1      47.377   4.174  15.778  0.00  0.00    +0.000 C 
BRANCH   9  10
ATOM     10  O   UNL     1      47.433   3.303  14.642  0.00  0.00    +0.000 OA
BRANCH  10  15
ATOM     11  C   UNL     1      44.448   5.131  10.352  0.00  0.00    +0.000 C 
ATOM     12  C   UNL     1      45.281   4.696  11.512  0.00  0.00    +0.000 A 
ATOM     13  N   UNL     1      45.104   3.415  11.908  0.00  0.00    +0.000 NA
ATOM     14  N   UNL     1      45.817   2.942  12.955  0.00  0.00    +0.000 NA
ATOM     15  C   UNL     1      46.685   3.763  13.578  0.00  0.00    +0.000 A 
ATOM     16  N   UNL     1      46.899   5.044  13.239  0.00  0.00    +0.000 NA
ATOM     17  C   UNL     1      46.192   5.510  12.180  0.00  0.00    +0.000 A 
BRANCH  17  18
ATOM     18  C   UNL     1      46.404   6.972  11.812  0.00  0.00    +0.000 C 
ATOM     19  C   UNL     1      45.733   7.887  12.839  0.00  0.00    +0.000 C 
ATOM     20  C   UNL     1      47.889   7.344  11.691  0.00  0.00    +0.000 C 
ENDBRANCH  17  18
ENDBRANCH  10  15
ENDBRANCH   9  10
ENDBRANCH   7   9
ENDBRANCH   1   7
BRANCH   5  21
ATOM     21  C   UNL     1      47.401   7.856  19.363  0.00  0.00    +0.000 C 
BRANCH  21  22
ATOM     22  C   UNL     1      48.214   8.901  18.610  0.00  0.00    +0.000 C 
ATOM     23  C   UNL     1      48.086   9.199  17.088  0.00  0.00    +0.000 C 
ATOM     24  N   UNL     1      49.518   9.395  17.123  0.00  0.00    +0.000 N 
ATOM     25  C   UNL     1      50.454  10.091  16.417  0.00  0.00    +0.000 C 
ATOM     26  O   UNL     1      51.638  10.061  16.739  0.00  0.00    +0.000 OA
ATOM     27  C   UNL     1      49.713   8.650  18.355  0.00  0.00    +0.000 C 
BRANCH  25  28
ATOM     28  O   UNL     1      49.950  10.814  15.379  0.00  0.00    +0.000 OA
BRANCH  28  29
ATOM     29  C   UNL     1      50.117  10.279  14.029  0.00  0.00    +0.000 C 
ATOM     30  C   UNL     1      50.325   8.756  14.051  0.00  0.00    +0.000 C 
ATOM     31  C   UNL     1      48.808  10.560  13.268  0.00  0.00    +0.000 C 
ATOM     32  C   UNL     1      51.245  11.002  13.276  0.00  0.00    +0.000 C 
ENDBRANCH  28  29
ENDBRANCH  25  28
ENDBRANCH  21  22
ENDBRANCH   5  21
TORSDOF 9
ENDMDL
MODEL 8
REMARK VINA RESULT:    -6.426      1.544      2.669
REMARK INTER + INTRA:         -10.636
REMARK INTER:                 -10.048
REMARK INTRA:                  -0.588
REMARK UNBOUND:                -0.829
REMARK  Name = 
REMARK  16 active torsions:
REMARK  status: ('A' for Active; 'I' for Inactive)
REMARK    1  A    between atoms: C_1  and  C_2
REMARK    2  A    between atoms: C_5  and  O_6
REMARK    3  A    between atoms: O_6  and  C_7
REMARK    4  A    between atoms: C_7  and  C_8
REMARK    5  A    between atoms: C_8  and  C_9
REMARK    6  A    between atoms: C_8  and  C_10
REMARK    7  A    between atoms: C_14  and  C_15
REMARK    8  A    between atoms: C_15  and  C_16
REMARK    9  A    between atoms: C_19  and  O_21
REMARK   10  A    between atoms: O_21  and  C_22
REMARK   11  A    between atoms: C_22  and  C_23
REMARK   12  A    between atoms: C_22  and  C_24
REMARK   13  A    between atoms: C_22  and  C_25
REMARK   14  A    between atoms: C_29  and  C_30
REMARK   15  A    between atoms: C_30  and  C_31
REMARK   16  A    between atoms: C_30  and  C_32
REMARK                            x       y       z     vdW  Elec       q    Type
REMARK                         _______ _______ _______ _____ _____    ______ ____
ROOT
ATOM      1  C   UNL     1      46.773   8.221  12.141  0.00  0.00    +0.000 A 
ATOM      2  C   UNL     1      45.814   9.226  11.987  0.00  0.00    +0.000 A 
ATOM      3  C   UNL     1      44.532   8.870  11.598  0.00  0.00    +0.000 A 
ATOM      4  N   UNL     1      44.141   7.598  11.367  0.00  0.00    +0.000 NA
ATOM      5  C   UNL     1      45.064   6.622  11.531  0.00  0.00    +0.000 A 
ATOM      6  C   UNL     1      46.379   6.896  11.902  0.00  0.00    +0.000 A 
ENDROOT
BRANCH   1   7
ATOM      7  C   UNL     1      48.195   8.528  12.581  0.00  0.00    +0.000 C 
ATOM      8  C   UNL     1      49.215   7.668  11.822  0.00  0.00    +0.000 C 
BRANCH   7   9
ATOM      9  C   UNL     1      48.368   8.388  14.106  0.00  0.00    +0.000 C 
BRANCH   9  10
ATOM     10  O   UNL     1      49.337   7.369  14.378  0.00  0.00    +0.000 OA
BRANCH  10  15
ATOM     11  C   UNL     1      47.259   3.220  17.397  0.00  0.00    +0.000 C 
ATOM     12  C   UNL     1      47.849   4.360  16.636  0.00  0.00    +0.000 A 
ATOM     13  N   UNL     1      47.496   4.434  15.333  0.00  0.00    +0.000 NA
ATOM     14  N   UNL     1      47.990   5.435  14.570  0.00  0.00    +0.000 NA
ATOM     15  C   UNL     1      48.826   6.332  15.131  0.00  0.00    +0.000 A 
ATOM     16  N   UNL     1      49.220   6.308  16.413  0.00  0.00    +0.000 NA
ATOM     17  C   UNL     1      48.711   5.310  17.179  0.00  0.00    +0.000 A 
BRANCH  17  18
ATOM     18  C   UNL     1      49.181   5.256  18.624  0.00  0.00    +0.000 C 
ATOM     19  C   UNL     1      50.462   4.428  18.743  0.00  0.00    +0.000 C 
ATOM     20  C   UNL     1      49.418   6.650  19.224  0.00  0.00    +0.000 C 
ENDBRANCH  17  18
ENDBRANCH  10  15
ENDBRANCH   9  10
ENDBRANCH   7   9
ENDBRANCH   1   7
BRANCH   5  21
ATOM     21  C   UNL     1      44.577   5.201  11.397  0.00  0.00    +0.000 C 
BRANCH  21  22
ATOM     22  C   UNL     1      44.648   4.630   9.987  0.00  0.00    +0.000 C 
ATOM     23  C   UNL     1      45.140   3.197   9.633  0.00  0.00    +0.000 C 
ATOM     24  N   UNL     1      45.725   3.810   8.462  0.00  0.00    +0.000 N 
ATOM     25  C   UNL     1      46.078   3.431   7.201  0.00  0.00    +0.000 C 
ATOM     26  O   UNL     1      46.548   4.243   6.408  0.00  0.00    +0.000 OA
ATOM     27  C   UNL     1      45.723   5.154   9.014  0.00  0.00    +0.000 C 
BRANCH  25  28
ATOM     28  O   UNL     1      45.838   2.122   6.920  0.00  0.00    +0.000 OA
BRANCH  28  29
ATOM     29  C   UNL     1      46.980   1.278   6.572  0.00  0.00    +0.000 C 
ATOM     30  C   UNL     1      47.024   0.990   5.062  0.00  0.00    +0.000 C 
ATOM     31  C   UNL     1      48.251   2.068   6.933  0.00  0.00    +0.000 C 
ATOM     32  C   UNL     1      46.996  -0.015   7.404  0.00  0.00    +0.000 C 
ENDBRANCH  28  29
ENDBRANCH  25  28
ENDBRANCH  21  22
ENDBRANCH   5  21
TORSDOF 9
ENDMDL
MODEL 9
REMARK VINA RESULT:    -6.371      4.145      7.474
REMARK INTER + INTRA:         -10.552
REMARK INTER:                  -8.741
REMARK INTRA:                  -1.812
REMARK UNBOUND:                -0.829
REMARK  Name = 
REMARK  16 active torsions:
REMARK  status: ('A' for Active; 'I' for Inactive)
REMARK    1  A    between atoms: C_1  and  C_2
REMARK    2  A    between atoms: C_5  and  O_6
REMARK    3  A    between atoms: O_6  and  C_7
REMARK    4  A    between atoms: C_7  and  C_8
REMARK    5  A    between atoms: C_8  and  C_9
REMARK    6  A    between atoms: C_8  and  C_10
REMARK    7  A    between atoms: C_14  and  C_15
REMARK    8  A    between atoms: C_15  and  C_16
REMARK    9  A    between atoms: C_19  and  O_21
REMARK   10  A    between atoms: O_21  and  C_22
REMARK   11  A    between atoms: C_22  and  C_23
REMARK   12  A    between atoms: C_22  and  C_24
REMARK   13  A    between atoms: C_22  and  C_25
REMARK   14  A    between atoms: C_29  and  C_30
REMARK   15  A    between atoms: C_30  and  C_31
REMARK   16  A    between atoms: C_30  and  C_32
REMARK                            x       y       z     vdW  Elec       q    Type
REMARK                         _______ _______ _______ _____ _____    ______ ____
ROOT
ATOM      1  C   UNL     1      46.082   6.472  12.437  0.00  0.00    +0.000 A 
ATOM      2  C   UNL     1      45.320   7.613  12.706  0.00  0.00    +0.000 A 
ATOM      3  C   UNL     1      45.940   8.853  12.665  0.00  0.00    +0.000 A 
ATOM      4  N   UNL     1      47.245   9.033  12.367  0.00  0.00    +0.000 NA
ATOM      5  C   UNL     1      47.979   7.930  12.090  0.00  0.00    +0.000 A 
ATOM      6  C   UNL     1      47.439   6.646  12.128  0.00  0.00    +0.000 A 
ENDROOT
BRANCH   1   7
ATOM      7  C   UNL     1      45.473   5.079  12.446  0.00  0.00    +0.000 C 
ATOM      8  C   UNL     1      44.014   5.108  12.918  0.00  0.00    +0.000 C 
BRANCH   7   9
ATOM      9  C   UNL     1      46.314   4.091  13.278  0.00  0.00    +0.000 C 
BRANCH   9  10
ATOM     10  O   UNL     1      46.177   4.412  14.668  0.00  0.00    +0.000 OA
BRANCH  10  15
ATOM     11  C   UNL     1      50.420   2.602  17.729  0.00  0.00    +0.000 C 
ATOM     12  C   UNL     1      49.272   3.142  16.941  0.00  0.00    +0.000 A 
ATOM     13  N   UNL     1      48.844   2.359  15.926  0.00  0.00    +0.000 NA
ATOM     14  N   UNL     1      47.811   2.776  15.159  0.00  0.00    +0.000 NA
ATOM     15  C   UNL     1      47.238   3.967  15.427  0.00  0.00    +0.000 A 
ATOM     16  N   UNL     1      47.623   4.793  16.413  0.00  0.00    +0.000 NA
ATOM     17  C   UNL     1      48.650   4.363  17.188  0.00  0.00    +0.000 A 
BRANCH  17  18
ATOM     18  C   UNL     1      49.114   5.310  18.285  0.00  0.00    +0.000 C 
ATOM     19  C   UNL     1      48.906   6.766  17.862  0.00  0.00    +0.000 C 
ATOM     20  C   UNL     1      48.405   5.061  19.624  0.00  0.00    +0.000 C 
ENDBRANCH  17  18
ENDBRANCH  10  15
ENDBRANCH   9  10
ENDBRANCH   7   9
ENDBRANCH   1   7
BRANCH   5  21
ATOM     21  C   UNL     1      49.398   8.161  11.633  0.00  0.00    +0.000 C 
BRANCH  21  22
ATOM     22  C   UNL     1      50.441   8.139  12.743  0.00  0.00    +0.000 C 
ATOM     23  C   UNL     1      50.168   7.697  14.209  0.00  0.00    +0.000 C 
ATOM     24  N   UNL     1      51.086   8.751  14.577  0.00  0.00    +0.000 N 
ATOM     25  C   UNL     1      51.928   9.033  15.611  0.00  0.00    +0.000 C 
ATOM     26  O   UNL     1      52.620  10.048  15.601  0.00  0.00    +0.000 OA
ATOM     27  C   UNL     1      50.953   9.472  13.323  0.00  0.00    +0.000 C 
BRANCH  25  28
ATOM     28  O   UNL     1      51.939   8.096  16.598  0.00  0.00    +0.000 OA
BRANCH  28  29
ATOM     29  C   UNL     1      53.044   7.139  16.618  0.00  0.00    +0.000 C 
ATOM     30  C   UNL     1      53.805   7.133  15.282  0.00  0.00    +0.000 C 
ATOM     31  C   UNL     1      54.024   7.606  17.711  0.00  0.00    +0.000 C 
ATOM     32  C   UNL     1      52.561   5.734  17.010  0.00  0.00    +0.000 C 
ENDBRANCH  28  29
ENDBRANCH  25  28
ENDBRANCH  21  22
ENDBRANCH   5  21
TORSDOF 9
ENDMDL
