MODEL 1
REMARK VINA RESULT:    -7.996      0.000      0.000
REMARK INTER + INTRA:         -11.513
REMARK INTER:                 -11.034
REMARK INTRA:                  -0.479
REMARK UNBOUND:                -0.479
REMARK  Name = 
REMARK  7 active torsions:
REMARK  status: ('A' for Active; 'I' for Inactive)
REMARK    1  A    between atoms: N_1  and  C_2
REMARK    2  A    between atoms: C_2  and  O_3
REMARK    3  A    between atoms: C_2  and  C_17
REMARK    4  A    between atoms: O_3  and  C_4
REMARK    5  A    between atoms: C_7  and  C_8
REMARK    6  A    between atoms: C_8  and  N_9
REMARK    7  A    between atoms: C_17  and  C_19
REMARK                            x       y       z     vdW  Elec       q    Type
REMARK                         _______ _______ _______ _____ _____    ______ ____
ROOT
ATOM      1  C   UNL     1      47.171   4.223  14.782  0.00  0.00    +0.000 C 
ENDROOT
BRANCH   1   2
ATOM      2  N   UNL     1      47.450   2.907  14.181  0.00  0.00    +0.000 NA
ATOM      3  H   UNL     1      47.944   3.063  13.303  0.00  0.00    +0.000 HD
ATOM      4  H   UNL     1      46.542   2.531  13.899  0.00  0.00    +0.000 HD
ENDBRANCH   1   2
BRANCH   1   5
ATOM      5  C   UNL     1      47.363   4.119  16.326  0.00  0.00    +0.000 C 
ATOM      6  O   UNL     1      46.497   3.587  17.030  0.00  0.00    +0.000 OA
BRANCH   5   7
ATOM      7  C   UNL     1      48.640   4.521  16.941  0.00  0.00    +0.000 A 
ATOM      8  C   UNL     1      48.831   5.844  17.322  0.00  0.00    +0.000 A 
ATOM      9  S   UNL     1      50.310   6.113  18.128  0.00  0.00    +0.000 S 
ATOM     10  C   UNL     1      50.756   4.481  17.965  0.00  0.00    +0.000 A 
ATOM     11  N   UNL     1      51.925   4.017  18.495  0.00  0.00    +0.000 NA
ATOM     12  C   UNL     1      52.115   2.750  18.325  0.00  0.00    +0.000 A 
ATOM     13  N   UNL     1      51.268   1.914  17.644  0.00  0.00    +0.000 N 
ATOM     14  C   UNL     1      50.190   2.383  16.936  0.00  0.00    +0.000 A 
ATOM     15  O   UNL     1      49.644   1.701  16.081  0.00  0.00    +0.000 OA
ATOM     16  C   UNL     1      49.826   3.755  17.247  0.00  0.00    +0.000 A 
ATOM     17  H   UNL     1      51.529   0.954  17.471  0.00  0.00    +0.000 HD
ENDBRANCH   5   7
ENDBRANCH   1   5
BRANCH   1  18
ATOM     18  O   UNL     1      45.823   4.610  14.550  0.00  0.00    +0.000 OA
BRANCH  18  19
ATOM     19  C   UNL     1      45.333   4.519  13.283  0.00  0.00    +0.000 A 
ATOM     20  C   UNL     1      46.013   5.277  12.338  0.00  0.00    +0.000 A 
ATOM     21  C   UNL     1      45.560   5.309  11.024  0.00  0.00    +0.000 A 
ATOM     22  C   UNL     1      44.446   4.550  10.679  0.00  0.00    +0.000 A 
ATOM     23  N   UNL     1      43.787   3.771  11.578  0.00  0.00    +0.000 NA
ATOM     24  C   UNL     1      44.252   3.764  12.848  0.00  0.00    +0.000 A 
BRANCH  22  25
ATOM     25  C   UNL     1      43.922   4.579   9.256  0.00  0.00    +0.000 C 
BRANCH  25  26
ATOM     26  N   UNL     1      44.471   3.521   8.368  0.00  0.00    +0.000 NA
ATOM     27  C   UNL     1      45.685   4.020   7.693  0.00  0.00    +0.000 C 
ATOM     28  C   UNL     1      46.488   2.935   6.977  0.00  0.00    +0.000 C 
ATOM     29  C   UNL     1      46.810   1.787   7.918  0.00  0.00    +0.000 C 
ATOM     30  C   UNL     1      45.513   1.222   8.473  0.00  0.00    +0.000 C 
ATOM     31  C   UNL     1      44.689   2.306   9.168  0.00  0.00    +0.000 C 
ENDBRANCH  25  26
ENDBRANCH  22  25
ENDBRANCH  18  19
ENDBRANCH   1  18
TORSDOF 7
ENDMDL
MODEL 2
REMARK VINA RESULT:    -7.679      1.445      1.714
REMARK INTER + INTRA:         -11.075
REMARK INTER:                 -11.222
REMARK INTRA:                   0.147
REMARK UNBOUND:                -0.479
REMARK  Name = 
REMARK  7 active torsions:
REMARK  status: ('A' for Active; 'I' for Inactive)
REMARK    1  A    between atoms: N_1  and  C_2
REMARK    2  A    between atoms: C_2  and  O_3
REMARK    3  A    between atoms: C_2  and  C_17
REMARK    4  A    between atoms: O_3  and  C_4
REMARK    5  A    between atoms: C_7  and  C_8
REMARK    6  A    between atoms: C_8  and  N_9
REMARK    7  A    between atoms: C_17  and  C_19
REMARK                            x       y       z     vdW  Elec       q    Type
REMARK                         _______ _______ _______ _____ _____    ______ ____
ROOT
ATOM      1  C   UNL     1      47.991   5.482  15.636  0.00  0.00    +0.000 C 
ENDROOT
BRANCH   1   2
ATOM      2  N   UNL     1      49.120   6.383  15.350  0.00  0.00    +0.000 NA
ATOM      3  H   UNL     1      49.557   6.072  14.483  0.00  0.00    +0.000 HD
ATOM      4  H   UNL     1      49.820   6.192  16.071  0.00  0.00    +0.000 HD
ENDBRANCH   1   2
BRANCH   1   5
ATOM      5  C   UNL     1      48.271   4.738  16.977  0.00  0.00    +0.000 C 
ATOM      6  O   UNL     1      47.340   4.241  17.623  0.00  0.00    +0.000 OA
BRANCH   5   7
ATOM      7  C   UNL     1      49.656   4.493  17.413  0.00  0.00    +0.000 A 
ATOM      8  C   UNL     1      50.388   5.526  17.986  0.00  0.00    +0.000 A 
ATOM      9  S   UNL     1      51.927   5.044  18.544  0.00  0.00    +0.000 S 
ATOM     10  C   UNL     1      51.677   3.449  18.009  0.00  0.00    +0.000 A 
ATOM     11  N   UNL     1      52.617   2.483  18.224  0.00  0.00    +0.000 NA
ATOM     12  C   UNL     1      52.276   1.311  17.796  0.00  0.00    +0.000 A 
ATOM     13  N   UNL     1      51.107   1.026  17.140  0.00  0.00    +0.000 N 
ATOM     14  C   UNL     1      50.234   2.007  16.737  0.00  0.00    +0.000 A 
ATOM     15  O   UNL     1      49.383   1.792  15.887  0.00  0.00    +0.000 OA
ATOM     16  C   UNL     1      50.471   3.302  17.353  0.00  0.00    +0.000 A 
ATOM     17  H   UNL     1      50.951   0.107  16.752  0.00  0.00    +0.000 HD
ENDBRANCH   5   7
ENDBRANCH   1   5
BRANCH   1  18
ATOM     18  O   UNL     1      47.863   4.492  14.623  0.00  0.00    +0.000 OA
BRANCH  18  19
ATOM     19  C   UNL     1      46.902   4.659  13.674  0.00  0.00    +0.000 A 
ATOM     20  C   UNL     1      46.216   3.501  13.328  0.00  0.00    +0.000 A 
ATOM     21  C   UNL     1      45.256   3.542  12.324  0.00  0.00    +0.000 A 
ATOM     22  C   UNL     1      44.983   4.758  11.705  0.00  0.00    +0.000 A 
ATOM     23  N   UNL     1      45.615   5.911  12.053  0.00  0.00    +0.000 NA
ATOM     24  C   UNL     1      46.544   5.837  13.032  0.00  0.00    +0.000 A 
BRANCH  22  25
ATOM     25  C   UNL     1      43.952   4.828  10.595  0.00  0.00    +0.000 C 
BRANCH  25  26
ATOM     26  N   UNL     1      44.262   3.994   9.403  0.00  0.00    +0.000 NA
ATOM     27  C   UNL     1      45.505   4.475   8.770  0.00  0.00    +0.000 C 
ATOM     28  C   UNL     1      46.069   3.528   7.711  0.00  0.00    +0.000 C 
ATOM     29  C   UNL     1      46.239   2.126   8.271  0.00  0.00    +0.000 C 
ATOM     30  C   UNL     1      44.896   1.629   8.779  0.00  0.00    +0.000 C 
ATOM     31  C   UNL     1      44.310   2.583   9.821  0.00  0.00    +0.000 C 
ENDBRANCH  25  26
ENDBRANCH  22  25
ENDBRANCH  18  19
ENDBRANCH   1  18
TORSDOF 7
ENDMDL
MODEL 3
REMARK VINA RESULT:    -7.252      1.906      2.195
REMARK INTER + INTRA:         -10.486
REMARK INTER:                 -10.235
REMARK INTRA:                  -0.251
REMARK UNBOUND:                -0.479
REMARK  Name = 
REMARK  7 active torsions:
REMARK  status: ('A' for Active; 'I' for Inactive)
REMARK    1  A    between atoms: N_1  and  C_2
REMARK    2  A    between atoms: C_2  and  O_3
REMARK    3  A    between atoms: C_2  and  C_17
REMARK    4  A    between atoms: O_3  and  C_4
REMARK    5  A    between atoms: C_7  and  C_8
REMARK    6  A    between atoms: C_8  and  N_9
REMARK    7  A    between atoms: C_17  and  C_19
REMARK                            x       y       z     vdW  Elec       q    Type
REMARK                         _______ _______ _______ _____ _____    ______ ____
ROOT
ATOM      1  C   UNL     1      47.765   5.295  15.650  0.00  0.00    +0.000 C 
ENDROOT
BRANCH   1   2
ATOM      2  N   UNL     1      49.075   5.963  15.734  0.00  0.00    +0.000 NA
ATOM      3  H   UNL     1      49.068   6.749  15.085  0.00  0.00    +0.000 HD
ATOM      4  H   UNL     1      49.750   5.307  15.334  0.00  0.00    +0.000 HD
ENDBRANCH   1   2
BRANCH   1   5
ATOM      5  C   UNL     1      47.537   4.471  16.953  0.00  0.00    +0.000 C 
ATOM      6  O   UNL     1      47.087   3.321  16.896  0.00  0.00    +0.000 OA
BRANCH   5   7
ATOM      7  C   UNL     1      47.993   4.998  18.251  0.00  0.00    +0.000 A 
ATOM      8  C   UNL     1      47.120   5.748  19.031  0.00  0.00    +0.000 A 
ATOM      9  S   UNL     1      47.763   6.177  20.553  0.00  0.00    +0.000 S 
ATOM     10  C   UNL     1      49.237   5.403  20.205  0.00  0.00    +0.000 A 
ATOM     11  N   UNL     1      50.238   5.355  21.131  0.00  0.00    +0.000 NA
ATOM     12  C   UNL     1      51.285   4.704  20.742  0.00  0.00    +0.000 A 
ATOM     13  N   UNL     1      51.439   4.133  19.505  0.00  0.00    +0.000 N 
ATOM     14  C   UNL     1      50.536   4.332  18.490  0.00  0.00    +0.000 A 
ATOM     15  O   UNL     1      50.829   4.107  17.324  0.00  0.00    +0.000 OA
ATOM     16  C   UNL     1      49.266   4.887  18.924  0.00  0.00    +0.000 A 
ATOM     17  H   UNL     1      52.322   3.722  19.239  0.00  0.00    +0.000 HD
ENDBRANCH   5   7
ENDBRANCH   1   5
BRANCH   1  18
ATOM     18  O   UNL     1      47.732   4.381  14.561  0.00  0.00    +0.000 OA
BRANCH  18  19
ATOM     19  C   UNL     1      46.803   4.571  13.585  0.00  0.00    +0.000 A 
ATOM     20  C   UNL     1      46.079   3.436  13.239  0.00  0.00    +0.000 A 
ATOM     21  C   UNL     1      45.147   3.500  12.210  0.00  0.00    +0.000 A 
ATOM     22  C   UNL     1      44.940   4.716  11.566  0.00  0.00    +0.000 A 
ATOM     23  N   UNL     1      45.609   5.848  11.912  0.00  0.00    +0.000 NA
ATOM     24  C   UNL     1      46.510   5.752  12.916  0.00  0.00    +0.000 A 
BRANCH  22  25
ATOM     25  C   UNL     1      43.941   4.809  10.429  0.00  0.00    +0.000 C 
BRANCH  25  26
ATOM     26  N   UNL     1      44.240   3.935   9.263  0.00  0.00    +0.000 NA
ATOM     27  C   UNL     1      45.457   4.418   8.581  0.00  0.00    +0.000 C 
ATOM     28  C   UNL     1      46.016   3.443   7.545  0.00  0.00    +0.000 C 
ATOM     29  C   UNL     1      46.231   2.068   8.154  0.00  0.00    +0.000 C 
ATOM     30  C   UNL     1      44.912   1.562   8.715  0.00  0.00    +0.000 C 
ATOM     31  C   UNL     1      44.331   2.544   9.733  0.00  0.00    +0.000 C 
ENDBRANCH  25  26
ENDBRANCH  22  25
ENDBRANCH  18  19
ENDBRANCH   1  18
TORSDOF 7
ENDMDL
MODEL 4
REMARK VINA RESULT:    -7.162      3.114      8.590
REMARK INTER + INTRA:         -10.362
REMARK INTER:                  -9.454
REMARK INTRA:                  -0.908
REMARK UNBOUND:                -0.479
REMARK  Name = 
REMARK  7 active torsions:
REMARK  status: ('A' for Active; 'I' for Inactive)
REMARK    1  A    between atoms: N_1  and  C_2
REMARK    2  A    between atoms: C_2  and  O_3
REMARK    3  A    between atoms: C_2  and  C_17
REMARK    4  A    between atoms: O_3  and  C_4
REMARK    5  A    between atoms: C_7  and  C_8
REMARK    6  A    between atoms: C_8  and  N_9
REMARK    7  A    between atoms: C_17  and  C_19
REMARK                            x       y       z     vdW  Elec       q    Type
REMARK                         _______ _______ _______ _____ _____    ______ ____
ROOT
ATOM      1  C   UNL     1      47.486   6.762  12.220  0.00  0.00    +0.000 C 
ENDROOT
BRANCH   1   2
ATOM      2  N   UNL     1      48.434   7.651  11.527  0.00  0.00    +0.000 NA
ATOM      3  H   UNL     1      49.296   7.130  11.374  0.00  0.00    +0.000 HD
ATOM      4  H   UNL     1      48.688   8.372  12.206  0.00  0.00    +0.000 HD
ENDBRANCH   1   2
BRANCH   1   5
ATOM      5  C   UNL     1      46.091   6.885  11.535  0.00  0.00    +0.000 C 
ATOM      6  O   UNL     1      45.527   7.983  11.455  0.00  0.00    +0.000 OA
BRANCH   5   7
ATOM      7  C   UNL     1      45.499   5.725  10.848  0.00  0.00    +0.000 A 
ATOM      8  C   UNL     1      45.746   5.530   9.493  0.00  0.00    +0.000 A 
ATOM      9  S   UNL     1      45.090   4.078   8.883  0.00  0.00    +0.000 S 
ATOM     10  C   UNL     1      44.427   3.680  10.397  0.00  0.00    +0.000 A 
ATOM     11  N   UNL     1      43.756   2.507  10.583  0.00  0.00    +0.000 NA
ATOM     12  C   UNL     1      43.340   2.322  11.793  0.00  0.00    +0.000 A 
ATOM     13  N   UNL     1      43.496   3.216  12.820  0.00  0.00    +0.000 N 
ATOM     14  C   UNL     1      43.989   4.482  12.622  0.00  0.00    +0.000 A 
ATOM     15  O   UNL     1      43.824   5.367  13.448  0.00  0.00    +0.000 OA
ATOM     16  C   UNL     1      44.642   4.670  11.337  0.00  0.00    +0.000 A 
ATOM     17  H   UNL     1      43.062   3.044  13.716  0.00  0.00    +0.000 HD
ENDBRANCH   5   7
ENDBRANCH   1   5
BRANCH   1  18
ATOM     18  O   UNL     1      47.324   7.153  13.578  0.00  0.00    +0.000 OA
BRANCH  18  19
ATOM     19  C   UNL     1      47.758   6.306  14.550  0.00  0.00    +0.000 A 
ATOM     20  C   UNL     1      48.731   6.832  15.392  0.00  0.00    +0.000 A 
ATOM     21  C   UNL     1      49.292   6.033  16.382  0.00  0.00    +0.000 A 
ATOM     22  C   UNL     1      48.840   4.724  16.525  0.00  0.00    +0.000 A 
ATOM     23  N   UNL     1      47.863   4.200  15.738  0.00  0.00    +0.000 NA
ATOM     24  C   UNL     1      47.340   5.002  14.783  0.00  0.00    +0.000 A 
BRANCH  22  25
ATOM     25  C   UNL     1      49.447   3.827  17.586  0.00  0.00    +0.000 C 
BRANCH  25  26
ATOM     26  N   UNL     1      50.785   3.275  17.245  0.00  0.00    +0.000 NA
ATOM     27  C   UNL     1      51.811   3.895  18.107  0.00  0.00    +0.000 C 
ATOM     28  C   UNL     1      53.174   3.207  18.041  0.00  0.00    +0.000 C 
ATOM     29  C   UNL     1      53.046   1.719  18.316  0.00  0.00    +0.000 C 
ATOM     30  C   UNL     1      52.085   1.110  17.309  0.00  0.00    +0.000 C 
ATOM     31  C   UNL     1      50.726   1.808  17.347  0.00  0.00    +0.000 C 
ENDBRANCH  25  26
ENDBRANCH  22  25
ENDBRANCH  18  19
ENDBRANCH   1  18
TORSDOF 7
ENDMDL
MODEL 5
REMARK VINA RESULT:    -7.040      2.495      2.965
REMARK INTER + INTRA:         -10.194
REMARK INTER:                  -9.830
REMARK INTRA:                  -0.364
REMARK UNBOUND:                -0.479
REMARK  Name = 
REMARK  7 active torsions:
REMARK  status: ('A' for Active; 'I' for Inactive)
REMARK    1  A    between atoms: N_1  and  C_2
REMARK    2  A    between atoms: C_2  and  O_3
REMARK    3  A    between atoms: C_2  and  C_17
REMARK    4  A    between atoms: O_3  and  C_4
REMARK    5  A    between atoms: C_7  and  C_8
REMARK    6  A    between atoms: C_8  and  N_9
REMARK    7  A    between atoms: C_17  and  C_19
REMARK                            x       y       z     vdW  Elec       q    Type
REMARK                         _______ _______ _______ _____ _____    ______ ____
ROOT
ATOM      1  C   UNL     1      49.063   7.057  14.208  0.00  0.00    +0.000 C 
ENDROOT
BRANCH   1   2
ATOM      2  N   UNL     1      49.922   7.266  13.030  0.00  0.00    +0.000 NA
ATOM      3  H   UNL     1      50.362   8.181  13.122  0.00  0.00    +0.000 HD
ATOM      4  H   UNL     1      49.285   7.368  12.235  0.00  0.00    +0.000 HD
ENDBRANCH   1   2
BRANCH   1   5
ATOM      5  C   UNL     1      49.958   7.046  15.485  0.00  0.00    +0.000 C 
ATOM      6  O   UNL     1      51.179   7.224  15.395  0.00  0.00    +0.000 OA
BRANCH   5   7
ATOM      7  C   UNL     1      49.341   6.971  16.820  0.00  0.00    +0.000 A 
ATOM      8  C   UNL     1      48.700   8.088  17.343  0.00  0.00    +0.000 A 
ATOM      9  S   UNL     1      47.936   7.797  18.840  0.00  0.00    +0.000 S 
ATOM     10  C   UNL     1      48.465   6.181  18.854  0.00  0.00    +0.000 A 
ATOM     11  N   UNL     1      48.110   5.336  19.865  0.00  0.00    +0.000 NA
ATOM     12  C   UNL     1      48.554   4.130  19.725  0.00  0.00    +0.000 A 
ATOM     13  N   UNL     1      49.349   3.702  18.694  0.00  0.00    +0.000 N 
ATOM     14  C   UNL     1      49.883   4.569  17.772  0.00  0.00    +0.000 A 
ATOM     15  O   UNL     1      50.832   4.249  17.071  0.00  0.00    +0.000 OA
ATOM     16  C   UNL     1      49.269   5.886  17.770  0.00  0.00    +0.000 A 
ATOM     17  H   UNL     1      49.736   2.769  18.700  0.00  0.00    +0.000 HD
ENDBRANCH   5   7
ENDBRANCH   1   5
BRANCH   1  18
ATOM     18  O   UNL     1      48.409   5.796  14.141  0.00  0.00    +0.000 OA
BRANCH  18  19
ATOM     19  C   UNL     1      47.280   5.693  13.387  0.00  0.00    +0.000 A 
ATOM     20  C   UNL     1      46.626   4.471  13.480  0.00  0.00    +0.000 A 
ATOM     21  C   UNL     1      45.497   4.232  12.704  0.00  0.00    +0.000 A 
ATOM     22  C   UNL     1      45.030   5.243  11.869  0.00  0.00    +0.000 A 
ATOM     23  N   UNL     1      45.632   6.460  11.790  0.00  0.00    +0.000 NA
ATOM     24  C   UNL     1      46.728   6.659  12.556  0.00  0.00    +0.000 A 
BRANCH  22  25
ATOM     25  C   UNL     1      43.810   5.003  11.001  0.00  0.00    +0.000 C 
BRANCH  25  26
ATOM     26  N   UNL     1      44.066   4.199   9.775  0.00  0.00    +0.000 NA
ATOM     27  C   UNL     1      45.281   4.695   9.101  0.00  0.00    +0.000 C 
ATOM     28  C   UNL     1      45.796   3.776   7.994  0.00  0.00    +0.000 C 
ATOM     29  C   UNL     1      45.987   2.359   8.510  0.00  0.00    +0.000 C 
ATOM     30  C   UNL     1      44.666   1.851   9.063  0.00  0.00    +0.000 C 
ATOM     31  C   UNL     1      44.129   2.779  10.153  0.00  0.00    +0.000 C 
ENDBRANCH  25  26
ENDBRANCH  22  25
ENDBRANCH  18  19
ENDBRANCH   1  18
TORSDOF 7
ENDMDL
MODEL 6
REMARK VINA RESULT:    -7.021      2.365      2.779
REMARK INTER + INTRA:         -10.168
REMARK INTER:                  -9.534
REMARK INTRA:                  -0.634
REMARK UNBOUND:                -0.479
REMARK  Name = 
REMARK  7 active torsions:
REMARK  status: ('A' for Active; 'I' for Inactive)
REMARK    1  A    between atoms: N_1  and  C_2
REMARK    2  A    between atoms: C_2  and  O_3
REMARK    3  A    between atoms: C_2  and  C_17
REMARK    4  A    between atoms: O_3  and  C_4
REMARK    5  A    between atoms: C_7  and  C_8
REMARK    6  A    between atoms: C_8  and  N_9
REMARK    7  A    between atoms: C_17  and  C_19
REMARK                            x       y       z     vdW  Elec       q    Type
REMARK                         _______ _______ _______ _____ _____    ______ ____
ROOT
ATOM      1  C   UNL     1      48.891   7.080  14.319  0.00  0.00    +0.000 C 
ENDROOT
BRANCH   1   2
ATOM      2  N   UNL     1      50.282   7.299  13.887  0.00  0.00    +0.000 NA
ATOM      3  H   UNL     1      50.281   8.055  13.204  0.00  0.00    +0.000 HD
ATOM      4  H   UNL     1      50.542   6.469  13.350  0.00  0.00    +0.000 HD
ENDBRANCH   1   2
BRANCH   1   5
ATOM      5  C   UNL     1      48.830   7.161  15.875  0.00  0.00    +0.000 C 
ATOM      6  O   UNL     1      48.361   8.160  16.432  0.00  0.00    +0.000 OA
BRANCH   5   7
ATOM      7  C   UNL     1      49.195   5.990  16.692  0.00  0.00    +0.000 A 
ATOM      8  C   UNL     1      48.194   5.169  17.199  0.00  0.00    +0.000 A 
ATOM      9  S   UNL     1      48.789   3.795  18.016  0.00  0.00    +0.000 S 
ATOM     10  C   UNL     1      50.400   4.269  17.748  0.00  0.00    +0.000 A 
ATOM     11  N   UNL     1      51.439   3.489  18.164  0.00  0.00    +0.000 NA
ATOM     12  C   UNL     1      52.605   3.957  17.860  0.00  0.00    +0.000 A 
ATOM     13  N   UNL     1      52.829   5.146  17.217  0.00  0.00    +0.000 N 
ATOM     14  C   UNL     1      51.821   6.043  16.962  0.00  0.00    +0.000 A 
ATOM     15  O   UNL     1      52.059   7.212  16.698  0.00  0.00    +0.000 OA
ATOM     16  C   UNL     1      50.484   5.490  17.107  0.00  0.00    +0.000 A 
ATOM     17  H   UNL     1      53.770   5.492  17.097  0.00  0.00    +0.000 HD
ENDBRANCH   5   7
ENDBRANCH   1   5
BRANCH   1  18
ATOM     18  O   UNL     1      48.444   5.782  13.946  0.00  0.00    +0.000 OA
BRANCH  18  19
ATOM     19  C   UNL     1      47.343   5.681  13.153  0.00  0.00    +0.000 A 
ATOM     20  C   UNL     1      46.521   4.595  13.430  0.00  0.00    +0.000 A 
ATOM     21  C   UNL     1      45.402   4.358  12.640  0.00  0.00    +0.000 A 
ATOM     22  C   UNL     1      45.114   5.239  11.601  0.00  0.00    +0.000 A 
ATOM     23  N   UNL     1      45.882   6.329  11.335  0.00  0.00    +0.000 NA
ATOM     24  C   UNL     1      46.965   6.530  12.120  0.00  0.00    +0.000 A 
BRANCH  22  25
ATOM     25  C   UNL     1      43.908   4.994  10.714  0.00  0.00    +0.000 C 
BRANCH  25  26
ATOM     26  N   UNL     1      44.166   4.121   9.539  0.00  0.00    +0.000 NA
ATOM     27  C   UNL     1      45.391   4.567   8.848  0.00  0.00    +0.000 C 
ATOM     28  C   UNL     1      45.906   3.582   7.799  0.00  0.00    +0.000 C 
ATOM     29  C   UNL     1      46.080   2.196   8.395  0.00  0.00    +0.000 C 
ATOM     30  C   UNL     1      44.751   1.731   8.965  0.00  0.00    +0.000 C 
ATOM     31  C   UNL     1      44.214   2.723   9.997  0.00  0.00    +0.000 C 
ENDBRANCH  25  26
ENDBRANCH  22  25
ENDBRANCH  18  19
ENDBRANCH   1  18
TORSDOF 7
ENDMDL
MODEL 7
REMARK VINA RESULT:    -6.826      3.246      9.010
REMARK INTER + INTRA:          -9.899
REMARK INTER:                  -9.425
REMARK INTRA:                  -0.474
REMARK UNBOUND:                -0.479
REMARK  Name = 
REMARK  7 active torsions:
REMARK  status: ('A' for Active; 'I' for Inactive)
REMARK    1  A    between atoms: N_1  and  C_2
REMARK    2  A    between atoms: C_2  and  O_3
REMARK    3  A    between atoms: C_2  and  C_17
REMARK    4  A    between atoms: O_3  and  C_4
REMARK    5  A    between atoms: C_7  and  C_8
REMARK    6  A    between atoms: C_8  and  N_9
REMARK    7  A    between atoms: C_17  and  C_19
REMARK                            x       y       z     vdW  Elec       q    Type
REMARK                         _______ _______ _______ _____ _____    ______ ____
ROOT
ATOM      1  C   UNL     1      46.236   7.685  12.102  0.00  0.00    +0.000 C 
ENDROOT
BRANCH   1   2
ATOM      2  N   UNL     1      46.029   8.339  13.406  0.00  0.00    +0.000 NA
ATOM      3  H   UNL     1      45.603   7.658  14.033  0.00  0.00    +0.000 HD
ATOM      4  H   UNL     1      45.298   9.039  13.254  0.00  0.00    +0.000 HD
ENDBRANCH   1   2
BRANCH   1   5
ATOM      5  C   UNL     1      44.860   7.186  11.567  0.00  0.00    +0.000 C 
ATOM      6  O   UNL     1      44.072   7.976  11.033  0.00  0.00    +0.000 OA
BRANCH   5   7
ATOM      7  C   UNL     1      44.546   5.747  11.559  0.00  0.00    +0.000 A 
ATOM      8  C   UNL     1      43.973   5.164  12.684  0.00  0.00    +0.000 A 
ATOM      9  S   UNL     1      43.562   3.523  12.465  0.00  0.00    +0.000 S 
ATOM     10  C   UNL     1      44.166   3.529  10.876  0.00  0.00    +0.000 A 
ATOM     11  N   UNL     1      44.078   2.419  10.088  0.00  0.00    +0.000 NA
ATOM     12  C   UNL     1      44.545   2.581   8.893  0.00  0.00    +0.000 A 
ATOM     13  N   UNL     1      45.124   3.733   8.428  0.00  0.00    +0.000 N 
ATOM     14  C   UNL     1      45.403   4.796   9.250  0.00  0.00    +0.000 A 
ATOM     15  O   UNL     1      46.196   5.666   8.920  0.00  0.00    +0.000 OA
ATOM     16  C   UNL     1      44.735   4.742  10.539  0.00  0.00    +0.000 A 
ATOM     17  H   UNL     1      45.551   3.755   7.513  0.00  0.00    +0.000 HD
ENDBRANCH   5   7
ENDBRANCH   1   5
BRANCH   1  18
ATOM     18  O   UNL     1      47.076   6.545  12.235  0.00  0.00    +0.000 OA
BRANCH  18  19
ATOM     19  C   UNL     1      47.608   6.273  13.457  0.00  0.00    +0.000 A 
ATOM     20  C   UNL     1      48.620   7.137  13.859  0.00  0.00    +0.000 A 
ATOM     21  C   UNL     1      49.279   6.916  15.062  0.00  0.00    +0.000 A 
ATOM     22  C   UNL     1      48.885   5.843  15.856  0.00  0.00    +0.000 A 
ATOM     23  N   UNL     1      47.873   5.007  15.502  0.00  0.00    +0.000 NA
ATOM     24  C   UNL     1      47.254   5.248  14.325  0.00  0.00    +0.000 A 
BRANCH  22  25
ATOM     25  C   UNL     1      49.598   5.569  17.166  0.00  0.00    +0.000 C 
BRANCH  25  26
ATOM     26  N   UNL     1      48.700   5.282  18.317  0.00  0.00    +0.000 NA
ATOM     27  C   UNL     1      49.455   4.575  19.370  0.00  0.00    +0.000 C 
ATOM     28  C   UNL     1      48.715   4.478  20.704  0.00  0.00    +0.000 C 
ATOM     29  C   UNL     1      48.259   5.849  21.174  0.00  0.00    +0.000 C 
ATOM     30  C   UNL     1      47.371   6.468  20.108  0.00  0.00    +0.000 C 
ATOM     31  C   UNL     1      48.092   6.545  18.762  0.00  0.00    +0.000 C 
ENDBRANCH  25  26
ENDBRANCH  22  25
ENDBRANCH  18  19
ENDBRANCH   1  18
TORSDOF 7
ENDMDL
MODEL 8
REMARK VINA RESULT:    -6.674      2.823      8.777
REMARK INTER + INTRA:          -9.689
REMARK INTER:                  -8.854
REMARK INTRA:                  -0.836
REMARK UNBOUND:                -0.479
REMARK  Name = 
REMARK  7 active torsions:
REMARK  status: ('A' for Active; 'I' for Inactive)
REMARK    1  A    between atoms: N_1  and  C_2
REMARK    2  A    between atoms: C_2  and  O_3
REMARK    3  A    between atoms: C_2  and  C_17
REMARK    4  A    between atoms: O_3  and  C_4
REMARK    5  A    between atoms: C_7  and  C_8
REMARK    6  A    between atoms: C_8  and  N_9
REMARK    7  A    between atoms: C_17  and  C_19
REMARK                            x       y       z     vdW  Elec       q    Type
REMARK                         _______ _______ _______ _____ _____    ______ ____
ROOT
ATOM      1  C   UNL     1      47.341   6.712  12.292  0.00  0.00    +0.000 C 
ENDROOT
BRANCH   1   2
ATOM      2  N   UNL     1      48.043   7.682  11.435  0.00  0.00    +0.000 NA
ATOM      3  H   UNL     1      48.640   8.253  12.031  0.00  0.00    +0.000 HD
ATOM      4  H   UNL     1      47.325   8.329  11.099  0.00  0.00    +0.000 HD
ENDBRANCH   1   2
BRANCH   1   5
ATOM      5  C   UNL     1      45.871   6.572  11.792  0.00  0.00    +0.000 C 
ATOM      6  O   UNL     1      45.222   7.574  11.471  0.00  0.00    +0.000 OA
BRANCH   5   7
ATOM      7  C   UNL     1      45.292   5.238  11.559  0.00  0.00    +0.000 A 
ATOM      8  C   UNL     1      44.763   4.523  12.628  0.00  0.00    +0.000 A 
ATOM      9  S   UNL     1      44.025   3.056  12.167  0.00  0.00    +0.000 S 
ATOM     10  C   UNL     1      44.417   3.312  10.533  0.00  0.00    +0.000 A 
ATOM     11  N   UNL     1      44.024   2.427   9.571  0.00  0.00    +0.000 NA
ATOM     12  C   UNL     1      44.360   2.769   8.370  0.00  0.00    +0.000 A 
ATOM     13  N   UNL     1      45.085   3.887   8.048  0.00  0.00    +0.000 N 
ATOM     14  C   UNL     1      45.660   4.688   9.003  0.00  0.00    +0.000 A 
ATOM     15  O   UNL     1      46.557   5.470   8.723  0.00  0.00    +0.000 OA
ATOM     16  C   UNL     1      45.159   4.462  10.348  0.00  0.00    +0.000 A 
ATOM     17  H   UNL     1      45.391   4.040   7.098  0.00  0.00    +0.000 HD
ENDBRANCH   5   7
ENDBRANCH   1   5
BRANCH   1  18
ATOM     18  O   UNL     1      47.288   7.170  13.637  0.00  0.00    +0.000 OA
BRANCH  18  19
ATOM     19  C   UNL     1      47.754   6.350  14.618  0.00  0.00    +0.000 A 
ATOM     20  C   UNL     1      48.753   6.900  15.413  0.00  0.00    +0.000 A 
ATOM     21  C   UNL     1      49.347   6.129  16.406  0.00  0.00    +0.000 A 
ATOM     22  C   UNL     1      48.901   4.825  16.600  0.00  0.00    +0.000 A 
ATOM     23  N   UNL     1      47.900   4.278  15.860  0.00  0.00    +0.000 NA
ATOM     24  C   UNL     1      47.345   5.054  14.902  0.00  0.00    +0.000 A 
BRANCH  22  25
ATOM     25  C   UNL     1      49.543   3.957  17.665  0.00  0.00    +0.000 C 
BRANCH  25  26
ATOM     26  N   UNL     1      50.849   3.359  17.279  0.00  0.00    +0.000 NA
ATOM     27  C   UNL     1      51.927   3.953  18.093  0.00  0.00    +0.000 C 
ATOM     28  C   UNL     1      53.264   3.221  17.982  0.00  0.00    +0.000 C 
ATOM     29  C   UNL     1      53.098   1.740  18.279  0.00  0.00    +0.000 C 
ATOM     30  C   UNL     1      52.079   1.153  17.317  0.00  0.00    +0.000 C 
ATOM     31  C   UNL     1      50.746   1.896  17.401  0.00  0.00    +0.000 C 
ENDBRANCH  25  26
ENDBRANCH  22  25
ENDBRANCH  18  19
ENDBRANCH   1  18
TORSDOF 7
ENDMDL
MODEL 9
REMARK VINA RESULT:    -6.263      3.486      9.487
REMARK INTER + INTRA:          -9.121
REMARK INTER:                  -8.559
REMARK INTRA:                  -0.563
REMARK UNBOUND:                -0.479
REMARK  Name = 
REMARK  7 active torsions:
REMARK  status: ('A' for Active; 'I' for Inactive)
REMARK    1  A    between atoms: N_1  and  C_2
REMARK    2  A    between atoms: C_2  and  O_3
REMARK    3  A    between atoms: C_2  and  C_17
REMARK    4  A    between atoms: O_3  and  C_4
REMARK    5  A    between atoms: C_7  and  C_8
REMARK    6  A    between atoms: C_8  and  N_9
REMARK    7  A    between atoms: C_17  and  C_19
REMARK                            x       y       z     vdW  Elec       q    Type
REMARK                         _______ _______ _______ _____ _____    ______ ____
ROOT
ATOM      1  C   UNL     1      47.190   4.483  16.021  0.00  0.00    +0.000 C 
ENDROOT
BRANCH   1   2
ATOM      2  N   UNL     1      46.774   3.273  16.750  0.00  0.00    +0.000 NA
ATOM      3  H   UNL     1      45.931   2.914  16.305  0.00  0.00    +0.000 HD
ATOM      4  H   UNL     1      46.460   3.595  17.669  0.00  0.00    +0.000 HD
ENDBRANCH   1   2
BRANCH   1   5
ATOM      5  C   UNL     1      46.961   4.252  14.496  0.00  0.00    +0.000 C 
ATOM      6  O   UNL     1      47.166   3.141  13.994  0.00  0.00    +0.000 OA
BRANCH   5   7
ATOM      7  C   UNL     1      46.360   5.313  13.669  0.00  0.00    +0.000 A 
ATOM      8  C   UNL     1      47.051   6.503  13.471  0.00  0.00    +0.000 A 
ATOM      9  S   UNL     1      46.273   7.572  12.393  0.00  0.00    +0.000 S 
ATOM     10  C   UNL     1      44.974   6.495  12.181  0.00  0.00    +0.000 A 
ATOM     11  N   UNL     1      43.955   6.786  11.323  0.00  0.00    +0.000 NA
ATOM     12  C   UNL     1      43.056   5.860  11.237  0.00  0.00    +0.000 A 
ATOM     13  N   UNL     1      43.062   4.693  11.955  0.00  0.00    +0.000 N 
ATOM     14  C   UNL     1      43.963   4.459  12.964  0.00  0.00    +0.000 A 
ATOM     15  O   UNL     1      43.769   3.591  13.802  0.00  0.00    +0.000 OA
ATOM     16  C   UNL     1      45.096   5.369  12.973  0.00  0.00    +0.000 A 
ATOM     17  H   UNL     1      42.278   4.059  11.905  0.00  0.00    +0.000 HD
ENDBRANCH   5   7
ENDBRANCH   1   5
BRANCH   1  18
ATOM     18  O   UNL     1      48.577   4.734  16.206  0.00  0.00    +0.000 OA
BRANCH  18  19
ATOM     19  C   UNL     1      48.947   5.687  17.105  0.00  0.00    +0.000 A 
ATOM     20  C   UNL     1      48.969   6.984  16.605  0.00  0.00    +0.000 A 
ATOM     21  C   UNL     1      49.393   8.029  17.418  0.00  0.00    +0.000 A 
ATOM     22  C   UNL     1      49.760   7.752  18.731  0.00  0.00    +0.000 A 
ATOM     23  N   UNL     1      49.711   6.497  19.253  0.00  0.00    +0.000 NA
ATOM     24  C   UNL     1      49.296   5.503  18.436  0.00  0.00    +0.000 A 
BRANCH  22  25
ATOM     25  C   UNL     1      50.241   8.871  19.634  0.00  0.00    +0.000 C 
BRANCH  25  26
ATOM     26  N   UNL     1      49.160   9.696  20.235  0.00  0.00    +0.000 NA
ATOM     27  C   UNL     1      48.617  10.619  19.220  0.00  0.00    +0.000 C 
ATOM     28  C   UNL     1      47.322  11.314  19.641  0.00  0.00    +0.000 C 
ATOM     29  C   UNL     1      46.281  10.300  20.082  0.00  0.00    +0.000 C 
ATOM     30  C   UNL     1      46.846   9.473  21.225  0.00  0.00    +0.000 C 
ATOM     31  C   UNL     1      48.156   8.795  20.822  0.00  0.00    +0.000 C 
ENDBRANCH  25  26
ENDBRANCH  22  25
ENDBRANCH  18  19
ENDBRANCH   1  18
TORSDOF 7
ENDMDL
