MODEL 1
REMARK VINA RESULT:    -7.858      0.000      0.000
REMARK INTER + INTRA:         -12.464
REMARK INTER:                 -11.303
REMARK INTRA:                  -1.161
REMARK UNBOUND:                -1.161
REMARK  Name = 
REMARK  9 active torsions:
REMARK  status: ('A' for Active; 'I' for Inactive)
REMARK    1  A    between atoms: C_1  and  N_2
REMARK    2  A    between atoms: C_4  and  C_5
REMARK    3  A    between atoms: N_7  and  C_8
REMARK    4  A    between atoms: C_8  and  C_9
REMARK    5  A    between atoms: C_12  and  C_13
REMARK    6  A    between atoms: C_13  and  N_14
REMARK    7  A    between atoms: N_14  and  C_15
REMARK    8  A    between atoms: C_15  and  C_16
REMARK    9  A    between atoms: C_26  and  O_27
REMARK                            x       y       z     vdW  Elec       q    Type
REMARK                         _______ _______ _______ _____ _____    ______ ____
ROOT
ATOM      1  C   UNL     1      48.066   6.785  13.556  0.00  0.00    +0.000 C 
ENDROOT
BRANCH   1   2
ATOM      2  C   UNL     1      46.848   6.142  12.948  0.00  0.00    +0.000 A 
ATOM      3  C   UNL     1      46.124   5.188  13.676  0.00  0.00    +0.000 A 
ATOM      4  C   UNL     1      44.983   4.589  13.132  0.00  0.00    +0.000 A 
ATOM      5  C   UNL     1      44.542   4.931  11.846  0.00  0.00    +0.000 A 
ATOM      6  C   UNL     1      45.279   5.870  11.113  0.00  0.00    +0.000 A 
ATOM      7  C   UNL     1      46.422   6.465  11.653  0.00  0.00    +0.000 A 
BRANCH   5   8
ATOM      8  C   UNL     1      43.305   4.311  11.237  0.00  0.00    +0.000 C 
BRANCH   8   9
ATOM      9  N   UNL     1      43.574   3.816   9.890  0.00  0.00    +0.000 NA
ATOM     10  H   UNL     1      44.119   4.523   9.393  0.00  0.00    +0.000 HD
BRANCH   9  11
ATOM     11  C   UNL     1      44.367   2.581   9.925  0.00  0.00    +0.000 C 
BRANCH  11  12
ATOM     12  C   UNL     1      45.286   2.469   8.721  0.00  0.00    +0.000 A 
ATOM     13  C   UNL     1      45.426   3.539   7.834  0.00  0.00    +0.000 A 
ATOM     14  C   UNL     1      46.298   3.416   6.752  0.00  0.00    +0.000 A 
ATOM     15  C   UNL     1      46.995   2.229   6.579  0.00  0.00    +0.000 A 
ATOM     16 CL   UNL     1      48.071   2.029   5.257  0.00  0.00    +0.000 Cl
ATOM     17  C   UNL     1      46.796   1.210   7.497  0.00  0.00    +0.000 A 
ATOM     18  N   UNL     1      45.964   1.302   8.564  0.00  0.00    +0.000 NA
ENDBRANCH  11  12
ENDBRANCH   9  11
ENDBRANCH   8   9
ENDBRANCH   5   8
ENDBRANCH   1   2
BRANCH   1  21
ATOM     19  C   UNL     1      49.244   6.690  15.703  0.00  0.00    +0.000 C 
ATOM     20  O   UNL     1      50.349   6.793  15.176  0.00  0.00    +0.000 OA
ATOM     21  N   UNL     1      48.070   6.676  14.990  0.00  0.00    +0.000 N 
ATOM     22  H   UNL     1      47.185   6.622  15.471  0.00  0.00    +0.000 HD
BRANCH  19  26
ATOM     23  C   UNL     1      49.465   5.013  20.419  0.00  0.00    +0.000 C 
ATOM     24  N   UNL     1      49.188   5.838  19.266  0.00  0.00    +0.000 N 
ATOM     25  C   UNL     1      49.524   5.533  17.971  0.00  0.00    +0.000 A 
ATOM     26  C   UNL     1      49.099   6.570  17.149  0.00  0.00    +0.000 A 
ATOM     27  C   UNL     1      48.469   7.535  18.009  0.00  0.00    +0.000 A 
ATOM     28  C   UNL     1      47.837   8.775  17.867  0.00  0.00    +0.000 A 
ATOM     29  N   UNL     1      47.353   9.418  18.943  0.00  0.00    +0.000 NA
ATOM     30  C   UNL     1      47.503   8.827  20.140  0.00  0.00    +0.000 A 
ATOM     31  N   UNL     1      48.085   7.646  20.417  0.00  0.00    +0.000 NA
ATOM     32  C   UNL     1      48.549   7.047  19.307  0.00  0.00    +0.000 A 
BRANCH  28  33
ATOM     33  O   UNL     1      47.658   9.421  16.669  0.00  0.00    +0.000 OA
ATOM     34  H   UNL     1      46.697   9.532  16.528  0.00  0.00    +0.000 HD
ENDBRANCH  28  33
ENDBRANCH  19  26
ENDBRANCH   1  21
TORSDOF 8
ENDMDL
MODEL 2
REMARK VINA RESULT:    -7.785      1.234      2.260
REMARK INTER + INTRA:         -12.359
REMARK INTER:                 -11.330
REMARK INTRA:                  -1.029
REMARK UNBOUND:                -1.161
REMARK  Name = 
REMARK  9 active torsions:
REMARK  status: ('A' for Active; 'I' for Inactive)
REMARK    1  A    between atoms: C_1  and  N_2
REMARK    2  A    between atoms: C_4  and  C_5
REMARK    3  A    between atoms: N_7  and  C_8
REMARK    4  A    between atoms: C_8  and  C_9
REMARK    5  A    between atoms: C_12  and  C_13
REMARK    6  A    between atoms: C_13  and  N_14
REMARK    7  A    between atoms: N_14  and  C_15
REMARK    8  A    between atoms: C_15  and  C_16
REMARK    9  A    between atoms: C_26  and  O_27
REMARK                            x       y       z     vdW  Elec       q    Type
REMARK                         _______ _______ _______ _____ _____    ______ ____
ROOT
ATOM      1  C   UNL     1      48.371   6.320  14.029  0.00  0.00    +0.000 C 
ENDROOT
BRANCH   1   2
ATOM      2  C   UNL     1      47.092   6.049  13.282  0.00  0.00    +0.000 A 
ATOM      3  C   UNL     1      46.187   5.097  13.770  0.00  0.00    +0.000 A 
ATOM      4  C   UNL     1      44.988   4.839  13.096  0.00  0.00    +0.000 A 
ATOM      5  C   UNL     1      44.670   5.529  11.918  0.00  0.00    +0.000 A 
ATOM      6  C   UNL     1      45.587   6.465  11.422  0.00  0.00    +0.000 A 
ATOM      7  C   UNL     1      46.787   6.719  12.091  0.00  0.00    +0.000 A 
BRANCH   5   8
ATOM      8  C   UNL     1      43.376   5.283  11.176  0.00  0.00    +0.000 C 
BRANCH   8   9
ATOM      9  N   UNL     1      43.624   4.647   9.885  0.00  0.00    +0.000 NA
ATOM     10  H   UNL     1      44.326   5.199   9.386  0.00  0.00    +0.000 HD
BRANCH   9  11
ATOM     11  C   UNL     1      44.158   3.290  10.054  0.00  0.00    +0.000 C 
BRANCH  11  12
ATOM     12  C   UNL     1      45.135   2.929   8.948  0.00  0.00    +0.000 A 
ATOM     13  C   UNL     1      45.592   3.904   8.059  0.00  0.00    +0.000 A 
ATOM     14  C   UNL     1      46.508   3.547   7.070  0.00  0.00    +0.000 A 
ATOM     15  C   UNL     1      46.934   2.229   6.988  0.00  0.00    +0.000 A 
ATOM     16 CL   UNL     1      48.054   1.743   5.783  0.00  0.00    +0.000 Cl
ATOM     17  C   UNL     1      46.428   1.318   7.902  0.00  0.00    +0.000 A 
ATOM     18  N   UNL     1      45.545   1.635   8.880  0.00  0.00    +0.000 NA
ENDBRANCH  11  12
ENDBRANCH   9  11
ENDBRANCH   8   9
ENDBRANCH   5   8
ENDBRANCH   1   2
BRANCH   1  21
ATOM     19  C   UNL     1      48.897   6.273  16.422  0.00  0.00    +0.000 C 
ATOM     20  O   UNL     1      49.833   5.493  16.268  0.00  0.00    +0.000 OA
ATOM     21  N   UNL     1      48.124   6.732  15.384  0.00  0.00    +0.000 N 
ATOM     22  H   UNL     1      47.385   7.398  15.557  0.00  0.00    +0.000 HD
BRANCH  19  26
ATOM     23  C   UNL     1      47.440   9.236  20.191  0.00  0.00    +0.000 C 
ATOM     24  N   UNL     1      47.881   8.081  19.443  0.00  0.00    +0.000 N 
ATOM     25  C   UNL     1      48.137   8.058  18.095  0.00  0.00    +0.000 A 
ATOM     26  C   UNL     1      48.532   6.773  17.743  0.00  0.00    +0.000 A 
ATOM     27  C   UNL     1      48.513   5.998  18.953  0.00  0.00    +0.000 A 
ATOM     28  C   UNL     1      48.787   4.680  19.330  0.00  0.00    +0.000 A 
ATOM     29  N   UNL     1      48.649   4.295  20.610  0.00  0.00    +0.000 NA
ATOM     30  C   UNL     1      48.241   5.219  21.496  0.00  0.00    +0.000 A 
ATOM     31  N   UNL     1      47.946   6.513  21.272  0.00  0.00    +0.000 NA
ATOM     32  C   UNL     1      48.103   6.842  19.979  0.00  0.00    +0.000 A 
BRANCH  28  33
ATOM     33  O   UNL     1      49.206   3.698  18.466  0.00  0.00    +0.000 OA
ATOM     34  H   UNL     1      49.885   4.084  17.879  0.00  0.00    +0.000 HD
ENDBRANCH  28  33
ENDBRANCH  19  26
ENDBRANCH   1  21
TORSDOF 8
ENDMDL
MODEL 3
REMARK VINA RESULT:    -7.297      3.641      5.612
REMARK INTER + INTRA:         -11.657
REMARK INTER:                 -10.859
REMARK INTRA:                  -0.798
REMARK UNBOUND:                -1.161
REMARK  Name = 
REMARK  9 active torsions:
REMARK  status: ('A' for Active; 'I' for Inactive)
REMARK    1  A    between atoms: C_1  and  N_2
REMARK    2  A    between atoms: C_4  and  C_5
REMARK    3  A    between atoms: N_7  and  C_8
REMARK    4  A    between atoms: C_8  and  C_9
REMARK    5  A    between atoms: C_12  and  C_13
REMARK    6  A    between atoms: C_13  and  N_14
REMARK    7  A    between atoms: N_14  and  C_15
REMARK    8  A    between atoms: C_15  and  C_16
REMARK    9  A    between atoms: C_26  and  O_27
REMARK                            x       y       z     vdW  Elec       q    Type
REMARK                         _______ _______ _______ _____ _____    ______ ____
ROOT
ATOM      1  C   UNL     1      47.942   6.463  13.646  0.00  0.00    +0.000 C 
ENDROOT
BRANCH   1   2
ATOM      2  C   UNL     1      46.806   5.548  13.271  0.00  0.00    +0.000 A 
ATOM      3  C   UNL     1      46.995   4.159  13.280  0.00  0.00    +0.000 A 
ATOM      4  C   UNL     1      45.948   3.294  12.945  0.00  0.00    +0.000 A 
ATOM      5  C   UNL     1      44.689   3.800  12.593  0.00  0.00    +0.000 A 
ATOM      6  C   UNL     1      44.510   5.189  12.565  0.00  0.00    +0.000 A 
ATOM      7  C   UNL     1      45.556   6.055  12.894  0.00  0.00    +0.000 A 
BRANCH   5   8
ATOM      8  C   UNL     1      43.535   2.888  12.241  0.00  0.00    +0.000 C 
BRANCH   8   9
ATOM      9  N   UNL     1      43.626   2.440  10.854  0.00  0.00    +0.000 NA
ATOM     10  H   UNL     1      42.715   2.066  10.578  0.00  0.00    +0.000 HD
BRANCH   9  11
ATOM     11  C   UNL     1      43.945   3.555   9.954  0.00  0.00    +0.000 C 
BRANCH  11  12
ATOM     12  C   UNL     1      44.998   3.167   8.930  0.00  0.00    +0.000 A 
ATOM     13  C   UNL     1      45.475   1.856   8.865  0.00  0.00    +0.000 A 
ATOM     14  C   UNL     1      46.423   1.524   7.898  0.00  0.00    +0.000 A 
ATOM     15  C   UNL     1      46.877   2.508   7.032  0.00  0.00    +0.000 A 
ATOM     16 CL   UNL     1      48.049   2.148   5.832  0.00  0.00    +0.000 Cl
ATOM     17  C   UNL     1      46.362   3.788   7.164  0.00  0.00    +0.000 A 
ATOM     18  N   UNL     1      45.432   4.140   8.087  0.00  0.00    +0.000 NA
ENDBRANCH  11  12
ENDBRANCH   9  11
ENDBRANCH   8   9
ENDBRANCH   5   8
ENDBRANCH   1   2
BRANCH   1  21
ATOM     19  C   UNL     1      47.805   8.881  13.276  0.00  0.00    +0.000 C 
ATOM     20  O   UNL     1      47.553   9.114  14.456  0.00  0.00    +0.000 OA
ATOM     21  N   UNL     1      48.010   7.614  12.788  0.00  0.00    +0.000 N 
ATOM     22  H   UNL     1      48.246   7.477  11.816  0.00  0.00    +0.000 HD
BRANCH  19  26
ATOM     23  C   UNL     1      49.578  12.253  10.022  0.00  0.00    +0.000 C 
ATOM     24  N   UNL     1      48.675  11.468  10.832  0.00  0.00    +0.000 N 
ATOM     25  C   UNL     1      49.048  10.479  11.706  0.00  0.00    +0.000 A 
ATOM     26  C   UNL     1      47.903   9.954  12.293  0.00  0.00    +0.000 A 
ATOM     27  C   UNL     1      46.794  10.680  11.736  0.00  0.00    +0.000 A 
ATOM     28  C   UNL     1      45.401  10.684  11.868  0.00  0.00    +0.000 A 
ATOM     29  N   UNL     1      44.652  11.539  11.152  0.00  0.00    +0.000 NA
ATOM     30  C   UNL     1      45.292  12.376  10.317  0.00  0.00    +0.000 A 
ATOM     31  N   UNL     1      46.615  12.479  10.095  0.00  0.00    +0.000 NA
ATOM     32  C   UNL     1      47.313  11.603  10.837  0.00  0.00    +0.000 A 
BRANCH  28  33
ATOM     33  O   UNL     1      44.700   9.852  12.705  0.00  0.00    +0.000 OA
ATOM     34  H   UNL     1      43.967  10.367  13.096  0.00  0.00    +0.000 HD
ENDBRANCH  28  33
ENDBRANCH  19  26
ENDBRANCH   1  21
TORSDOF 8
ENDMDL
MODEL 4
REMARK VINA RESULT:    -7.180      3.054      8.758
REMARK INTER + INTRA:         -11.489
REMARK INTER:                 -10.064
REMARK INTRA:                  -1.425
REMARK UNBOUND:                -1.161
REMARK  Name = 
REMARK  9 active torsions:
REMARK  status: ('A' for Active; 'I' for Inactive)
REMARK    1  A    between atoms: C_1  and  N_2
REMARK    2  A    between atoms: C_4  and  C_5
REMARK    3  A    between atoms: N_7  and  C_8
REMARK    4  A    between atoms: C_8  and  C_9
REMARK    5  A    between atoms: C_12  and  C_13
REMARK    6  A    between atoms: C_13  and  N_14
REMARK    7  A    between atoms: N_14  and  C_15
REMARK    8  A    between atoms: C_15  and  C_16
REMARK    9  A    between atoms: C_26  and  O_27
REMARK                            x       y       z     vdW  Elec       q    Type
REMARK                         _______ _______ _______ _____ _____    ______ ____
ROOT
ATOM      1  C   UNL     1      48.528   8.076  11.952  0.00  0.00    +0.000 C 
ENDROOT
BRANCH   1   2
ATOM      2  C   UNL     1      48.531   8.040  13.457  0.00  0.00    +0.000 A 
ATOM      3  C   UNL     1      48.885   6.861  14.127  0.00  0.00    +0.000 A 
ATOM      4  C   UNL     1      48.905   6.811  15.525  0.00  0.00    +0.000 A 
ATOM      5  C   UNL     1      48.570   7.942  16.283  0.00  0.00    +0.000 A 
ATOM      6  C   UNL     1      48.197   9.113  15.611  0.00  0.00    +0.000 A 
ATOM      7  C   UNL     1      48.171   9.162  14.215  0.00  0.00    +0.000 A 
BRANCH   5   8
ATOM      8  C   UNL     1      48.597   7.922  17.795  0.00  0.00    +0.000 C 
BRANCH   8   9
ATOM      9  N   UNL     1      47.331   7.435  18.336  0.00  0.00    +0.000 NA
ATOM     10  H   UNL     1      46.770   7.074  17.561  0.00  0.00    +0.000 HD
BRANCH   9  11
ATOM     11  C   UNL     1      47.546   6.335  19.284  0.00  0.00    +0.000 C 
BRANCH  11  12
ATOM     12  C   UNL     1      48.169   5.125  18.610  0.00  0.00    +0.000 A 
ATOM     13  C   UNL     1      47.406   4.308  17.772  0.00  0.00    +0.000 A 
ATOM     14  C   UNL     1      48.013   3.220  17.147  0.00  0.00    +0.000 A 
ATOM     15  C   UNL     1      49.357   2.969  17.381  0.00  0.00    +0.000 A 
ATOM     16 CL   UNL     1      50.143   1.636  16.639  0.00  0.00    +0.000 Cl
ATOM     17  C   UNL     1      50.045   3.821  18.231  0.00  0.00    +0.000 A 
ATOM     18  N   UNL     1      49.486   4.892  18.846  0.00  0.00    +0.000 NA
ENDBRANCH  11  12
ENDBRANCH   9  11
ENDBRANCH   8   9
ENDBRANCH   5   8
ENDBRANCH   1   2
BRANCH   1  21
ATOM     19  C   UNL     1      46.398   7.001  11.392  0.00  0.00    +0.000 C 
ATOM     20  O   UNL     1      45.734   7.921  11.864  0.00  0.00    +0.000 OA
ATOM     21  N   UNL     1      47.771   6.990  11.391  0.00  0.00    +0.000 N 
ATOM     22  H   UNL     1      48.272   6.226  10.962  0.00  0.00    +0.000 HD
BRANCH  19  26
ATOM     23  C   UNL     1      44.867   3.530   8.119  0.00  0.00    +0.000 C 
ATOM     24  N   UNL     1      45.068   4.271   9.344  0.00  0.00    +0.000 N 
ATOM     25  C   UNL     1      45.795   5.427   9.463  0.00  0.00    +0.000 A 
ATOM     26  C   UNL     1      45.762   5.834  10.791  0.00  0.00    +0.000 A 
ATOM     27  C   UNL     1      44.963   4.865  11.491  0.00  0.00    +0.000 A 
ATOM     28  C   UNL     1      44.522   4.655  12.802  0.00  0.00    +0.000 A 
ATOM     29  N   UNL     1      43.759   3.590  13.100  0.00  0.00    +0.000 NA
ATOM     30  C   UNL     1      43.445   2.751  12.099  0.00  0.00    +0.000 A 
ATOM     31  N   UNL     1      43.797   2.834  10.803  0.00  0.00    +0.000 NA
ATOM     32  C   UNL     1      44.556   3.915  10.562  0.00  0.00    +0.000 A 
BRANCH  28  33
ATOM     33  O   UNL     1      44.815   5.480  13.859  0.00  0.00    +0.000 OA
ATOM     34  H   UNL     1      45.148   6.325  13.498  0.00  0.00    +0.000 HD
ENDBRANCH  28  33
ENDBRANCH  19  26
ENDBRANCH   1  21
TORSDOF 8
ENDMDL
MODEL 5
REMARK VINA RESULT:    -6.983      3.500      5.761
REMARK INTER + INTRA:         -11.205
REMARK INTER:                 -10.073
REMARK INTRA:                  -1.132
REMARK UNBOUND:                -1.161
REMARK  Name = 
REMARK  9 active torsions:
REMARK  status: ('A' for Active; 'I' for Inactive)
REMARK    1  A    between atoms: C_1  and  N_2
REMARK    2  A    between atoms: C_4  and  C_5
REMARK    3  A    between atoms: N_7  and  C_8
REMARK    4  A    between atoms: C_8  and  C_9
REMARK    5  A    between atoms: C_12  and  C_13
REMARK    6  A    between atoms: C_13  and  N_14
REMARK    7  A    between atoms: N_14  and  C_15
REMARK    8  A    between atoms: C_15  and  C_16
REMARK    9  A    between atoms: C_26  and  O_27
REMARK                            x       y       z     vdW  Elec       q    Type
REMARK                         _______ _______ _______ _____ _____    ______ ____
ROOT
ATOM      1  C   UNL     1      48.168   6.579  13.944  0.00  0.00    +0.000 C 
ENDROOT
BRANCH   1   2
ATOM      2  C   UNL     1      46.913   5.901  13.462  0.00  0.00    +0.000 A 
ATOM      3  C   UNL     1      46.854   4.502  13.401  0.00  0.00    +0.000 A 
ATOM      4  C   UNL     1      45.693   3.854  12.967  0.00  0.00    +0.000 A 
ATOM      5  C   UNL     1      44.565   4.593  12.583  0.00  0.00    +0.000 A 
ATOM      6  C   UNL     1      44.634   5.991  12.627  0.00  0.00    +0.000 A 
ATOM      7  C   UNL     1      45.795   6.640  13.055  0.00  0.00    +0.000 A 
BRANCH   5   8
ATOM      8  C   UNL     1      43.291   3.920  12.124  0.00  0.00    +0.000 C 
BRANCH   8   9
ATOM      9  N   UNL     1      43.506   3.182  10.883  0.00  0.00    +0.000 NA
ATOM     10  H   UNL     1      42.627   2.729  10.623  0.00  0.00    +0.000 HD
BRANCH   9  11
ATOM     11  C   UNL     1      43.887   4.082   9.788  0.00  0.00    +0.000 C 
BRANCH  11  12
ATOM     12  C   UNL     1      44.947   3.461   8.894  0.00  0.00    +0.000 A 
ATOM     13  C   UNL     1      45.246   2.100   8.988  0.00  0.00    +0.000 A 
ATOM     14  C   UNL     1      46.205   1.554   8.136  0.00  0.00    +0.000 A 
ATOM     15  C   UNL     1      46.847   2.380   7.224  0.00  0.00    +0.000 A 
ATOM     16 CL   UNL     1      48.040   1.753   6.162  0.00  0.00    +0.000 Cl
ATOM     17  C   UNL     1      46.502   3.722   7.197  0.00  0.00    +0.000 A 
ATOM     18  N   UNL     1      45.567   4.281   8.005  0.00  0.00    +0.000 NA
ENDBRANCH  11  12
ENDBRANCH   9  11
ENDBRANCH   8   9
ENDBRANCH   5   8
ENDBRANCH   1   2
BRANCH   1  21
ATOM     19  C   UNL     1      48.672   8.855  13.190  0.00  0.00    +0.000 C 
ATOM     20  O   UNL     1      48.220   9.364  14.213  0.00  0.00    +0.000 OA
ATOM     21  N   UNL     1      48.687   7.500  12.970  0.00  0.00    +0.000 N 
ATOM     22  H   UNL     1      49.099   7.128  12.127  0.00  0.00    +0.000 HD
BRANCH  19  26
ATOM     23  C   UNL     1      49.221  12.210   9.509  0.00  0.00    +0.000 C 
ATOM     24  N   UNL     1      49.497  11.165  10.469  0.00  0.00    +0.000 N 
ATOM     25  C   UNL     1      48.593  10.647  11.361  0.00  0.00    +0.000 A 
ATOM     26  C   UNL     1      49.230   9.670  12.117  0.00  0.00    +0.000 A 
ATOM     27  C   UNL     1      50.583   9.605  11.637  0.00  0.00    +0.000 A 
ATOM     28  C   UNL     1      51.739   8.873  11.925  0.00  0.00    +0.000 A 
ATOM     29  N   UNL     1      52.875   9.097  11.243  0.00  0.00    +0.000 NA
ATOM     30  C   UNL     1      52.849  10.041  10.288  0.00  0.00    +0.000 A 
ATOM     31  N   UNL     1      51.815  10.813   9.909  0.00  0.00    +0.000 NA
ATOM     32  C   UNL     1      50.708  10.546  10.622  0.00  0.00    +0.000 A 
BRANCH  28  33
ATOM     33  O   UNL     1      51.818   7.899  12.889  0.00  0.00    +0.000 OA
ATOM     34  H   UNL     1      52.636   8.051  13.404  0.00  0.00    +0.000 HD
ENDBRANCH  28  33
ENDBRANCH  19  26
ENDBRANCH   1  21
TORSDOF 8
ENDMDL
MODEL 6
REMARK VINA RESULT:    -6.969      4.611     10.272
REMARK INTER + INTRA:         -11.186
REMARK INTER:                  -9.848
REMARK INTRA:                  -1.339
REMARK UNBOUND:                -1.161
REMARK  Name = 
REMARK  9 active torsions:
REMARK  status: ('A' for Active; 'I' for Inactive)
REMARK    1  A    between atoms: C_1  and  N_2
REMARK    2  A    between atoms: C_4  and  C_5
REMARK    3  A    between atoms: N_7  and  C_8
REMARK    4  A    between atoms: C_8  and  C_9
REMARK    5  A    between atoms: C_12  and  C_13
REMARK    6  A    between atoms: C_13  and  N_14
REMARK    7  A    between atoms: N_14  and  C_15
REMARK    8  A    between atoms: C_15  and  C_16
REMARK    9  A    between atoms: C_26  and  O_27
REMARK                            x       y       z     vdW  Elec       q    Type
REMARK                         _______ _______ _______ _____ _____    ______ ____
ROOT
ATOM      1  C   UNL     1      47.388   3.394  16.727  0.00  0.00    +0.000 C 
ENDROOT
BRANCH   1   2
ATOM      2  C   UNL     1      48.822   3.731  17.042  0.00  0.00    +0.000 A 
ATOM      3  C   UNL     1      49.246   5.066  17.024  0.00  0.00    +0.000 A 
ATOM      4  C   UNL     1      50.571   5.399  17.326  0.00  0.00    +0.000 A 
ATOM      5  C   UNL     1      51.500   4.402  17.652  0.00  0.00    +0.000 A 
ATOM      6  C   UNL     1      51.078   3.066  17.650  0.00  0.00    +0.000 A 
ATOM      7  C   UNL     1      49.756   2.732  17.343  0.00  0.00    +0.000 A 
BRANCH   5   8
ATOM      8  C   UNL     1      52.935   4.733  17.998  0.00  0.00    +0.000 C 
BRANCH   8   9
ATOM      9  N   UNL     1      53.035   6.055  18.610  0.00  0.00    +0.000 NA
ATOM     10  H   UNL     1      52.240   6.615  18.294  0.00  0.00    +0.000 HD
BRANCH   9  11
ATOM     11  C   UNL     1      52.969   5.969  20.074  0.00  0.00    +0.000 C 
BRANCH  11  12
ATOM     12  C   UNL     1      51.543   6.091  20.581  0.00  0.00    +0.000 A 
ATOM     13  C   UNL     1      50.898   4.994  21.158  0.00  0.00    +0.000 A 
ATOM     14  C   UNL     1      49.597   5.144  21.637  0.00  0.00    +0.000 A 
ATOM     15  C   UNL     1      48.972   6.377  21.519  0.00  0.00    +0.000 A 
ATOM     16 CL   UNL     1      47.369   6.606  22.088  0.00  0.00    +0.000 Cl
ATOM     17  C   UNL     1      49.674   7.416  20.928  0.00  0.00    +0.000 A 
ATOM     18  N   UNL     1      50.943   7.304  20.461  0.00  0.00    +0.000 NA
ENDBRANCH  11  12
ENDBRANCH   9  11
ENDBRANCH   8   9
ENDBRANCH   5   8
ENDBRANCH   1   2
BRANCH   1  21
ATOM     19  C   UNL     1      46.804   4.118  14.460  0.00  0.00    +0.000 C 
ATOM     20  O   UNL     1      47.295   3.118  13.943  0.00  0.00    +0.000 OA
ATOM     21  N   UNL     1      46.804   4.340  15.815  0.00  0.00    +0.000 N 
ATOM     22  H   UNL     1      46.359   5.163  16.194  0.00  0.00    +0.000 HD
BRANCH  19  26
ATOM     23  C   UNL     1      45.723   8.513  12.310  0.00  0.00    +0.000 C 
ATOM     24  N   UNL     1      45.678   7.117  12.682  0.00  0.00    +0.000 N 
ATOM     25  C   UNL     1      46.532   6.502  13.561  0.00  0.00    +0.000 A 
ATOM     26  C   UNL     1      46.178   5.161  13.655  0.00  0.00    +0.000 A 
ATOM     27  C   UNL     1      45.047   4.980  12.786  0.00  0.00    +0.000 A 
ATOM     28  C   UNL     1      44.206   3.930  12.405  0.00  0.00    +0.000 A 
ATOM     29  N   UNL     1      43.211   4.140  11.526  0.00  0.00    +0.000 NA
ATOM     30  C   UNL     1      43.064   5.384  11.040  0.00  0.00    +0.000 A 
ATOM     31  N   UNL     1      43.795   6.478  11.321  0.00  0.00    +0.000 NA
ATOM     32  C   UNL     1      44.773   6.211  12.202  0.00  0.00    +0.000 A 
BRANCH  28  33
ATOM     33  O   UNL     1      44.312   2.643  12.871  0.00  0.00    +0.000 OA
ATOM     34  H   UNL     1      43.554   2.475  13.465  0.00  0.00    +0.000 HD
ENDBRANCH  28  33
ENDBRANCH  19  26
ENDBRANCH   1  21
TORSDOF 8
ENDMDL
MODEL 7
REMARK VINA RESULT:    -6.811      4.520      9.021
REMARK INTER + INTRA:         -10.958
REMARK INTER:                  -9.630
REMARK INTRA:                  -1.328
REMARK UNBOUND:                -1.161
REMARK  Name = 
REMARK  9 active torsions:
REMARK  status: ('A' for Active; 'I' for Inactive)
REMARK    1  A    between atoms: C_1  and  N_2
REMARK    2  A    between atoms: C_4  and  C_5
REMARK    3  A    between atoms: N_7  and  C_8
REMARK    4  A    between atoms: C_8  and  C_9
REMARK    5  A    between atoms: C_12  and  C_13
REMARK    6  A    between atoms: C_13  and  N_14
REMARK    7  A    between atoms: N_14  and  C_15
REMARK    8  A    between atoms: C_15  and  C_16
REMARK    9  A    between atoms: C_26  and  O_27
REMARK                            x       y       z     vdW  Elec       q    Type
REMARK                         _______ _______ _______ _____ _____    ______ ____
ROOT
ATOM      1  C   UNL     1      47.274   3.371  16.909  0.00  0.00    +0.000 C 
ENDROOT
BRANCH   1   2
ATOM      2  C   UNL     1      48.743   3.399  17.240  0.00  0.00    +0.000 A 
ATOM      3  C   UNL     1      49.537   2.271  16.992  0.00  0.00    +0.000 A 
ATOM      4  C   UNL     1      50.905   2.282  17.281  0.00  0.00    +0.000 A 
ATOM      5  C   UNL     1      51.509   3.423  17.826  0.00  0.00    +0.000 A 
ATOM      6  C   UNL     1      50.710   4.542  18.091  0.00  0.00    +0.000 A 
ATOM      7  C   UNL     1      49.342   4.531  17.808  0.00  0.00    +0.000 A 
BRANCH   5   8
ATOM      8  C   UNL     1      52.989   3.470  18.136  0.00  0.00    +0.000 C 
BRANCH   8   9
ATOM      9  N   UNL     1      53.488   4.842  18.104  0.00  0.00    +0.000 NA
ATOM     10  H   UNL     1      53.963   5.030  18.989  0.00  0.00    +0.000 HD
BRANCH   9  11
ATOM     11  C   UNL     1      54.464   5.028  17.023  0.00  0.00    +0.000 C 
BRANCH  11  12
ATOM     12  C   UNL     1      54.028   6.115  16.055  0.00  0.00    +0.000 A 
ATOM     13  C   UNL     1      52.797   6.756  16.215  0.00  0.00    +0.000 A 
ATOM     14  C   UNL     1      52.437   7.767  15.325  0.00  0.00    +0.000 A 
ATOM     15  C   UNL     1      53.304   8.103  14.296  0.00  0.00    +0.000 A 
ATOM     16 CL   UNL     1      52.898   9.335  13.173  0.00  0.00    +0.000 Cl
ATOM     17  C   UNL     1      54.504   7.415  14.198  0.00  0.00    +0.000 A 
ATOM     18  N   UNL     1      54.888   6.434  15.053  0.00  0.00    +0.000 NA
ENDBRANCH  11  12
ENDBRANCH   9  11
ENDBRANCH   8   9
ENDBRANCH   5   8
ENDBRANCH   1   2
BRANCH   1  21
ATOM     19  C   UNL     1      46.909   4.159  14.618  0.00  0.00    +0.000 C 
ATOM     20  O   UNL     1      47.202   3.071  14.127  0.00  0.00    +0.000 OA
ATOM     21  N   UNL     1      46.917   4.399  15.970  0.00  0.00    +0.000 N 
ATOM     22  H   UNL     1      46.637   5.301  16.326  0.00  0.00    +0.000 HD
BRANCH  19  26
ATOM     23  C   UNL     1      46.898   8.563  12.230  0.00  0.00    +0.000 C 
ATOM     24  N   UNL     1      46.503   7.257  12.705  0.00  0.00    +0.000 N 
ATOM     25  C   UNL     1      47.227   6.474  13.568  0.00  0.00    +0.000 A 
ATOM     26  C   UNL     1      46.527   5.292  13.783  0.00  0.00    +0.000 A 
ATOM     27  C   UNL     1      45.320   5.390  13.008  0.00  0.00    +0.000 A 
ATOM     28  C   UNL     1      44.194   4.599  12.762  0.00  0.00    +0.000 A 
ATOM     29  N   UNL     1      43.224   5.033  11.939  0.00  0.00    +0.000 NA
ATOM     30  C   UNL     1      43.384   6.242  11.374  0.00  0.00    +0.000 A 
ATOM     31  N   UNL     1      44.408   7.101  11.524  0.00  0.00    +0.000 NA
ATOM     32  C   UNL     1      45.346   6.617  12.355  0.00  0.00    +0.000 A 
BRANCH  28  33
ATOM     33  O   UNL     1      43.982   3.359  13.312  0.00  0.00    +0.000 OA
ATOM     34  H   UNL     1      44.782   2.819  13.153  0.00  0.00    +0.000 HD
ENDBRANCH  28  33
ENDBRANCH  19  26
ENDBRANCH   1  21
TORSDOF 8
ENDMDL
MODEL 8
REMARK VINA RESULT:    -6.799      3.694      9.501
REMARK INTER + INTRA:         -10.942
REMARK INTER:                  -9.336
REMARK INTRA:                  -1.605
REMARK UNBOUND:                -1.161
REMARK  Name = 
REMARK  9 active torsions:
REMARK  status: ('A' for Active; 'I' for Inactive)
REMARK    1  A    between atoms: C_1  and  N_2
REMARK    2  A    between atoms: C_4  and  C_5
REMARK    3  A    between atoms: N_7  and  C_8
REMARK    4  A    between atoms: C_8  and  C_9
REMARK    5  A    between atoms: C_12  and  C_13
REMARK    6  A    between atoms: C_13  and  N_14
REMARK    7  A    between atoms: N_14  and  C_15
REMARK    8  A    between atoms: C_15  and  C_16
REMARK    9  A    between atoms: C_26  and  O_27
REMARK                            x       y       z     vdW  Elec       q    Type
REMARK                         _______ _______ _______ _____ _____    ______ ____
ROOT
ATOM      1  C   UNL     1      47.457   3.611  16.667  0.00  0.00    +0.000 C 
ENDROOT
BRANCH   1   2
ATOM      2  C   UNL     1      47.843   4.351  17.920  0.00  0.00    +0.000 A 
ATOM      3  C   UNL     1      49.074   4.090  18.536  0.00  0.00    +0.000 A 
ATOM      4  C   UNL     1      49.454   4.776  19.694  0.00  0.00    +0.000 A 
ATOM      5  C   UNL     1      48.609   5.739  20.262  0.00  0.00    +0.000 A 
ATOM      6  C   UNL     1      47.370   5.984  19.655  0.00  0.00    +0.000 A 
ATOM      7  C   UNL     1      46.987   5.295  18.502  0.00  0.00    +0.000 A 
BRANCH   5   8
ATOM      8  C   UNL     1      48.999   6.508  21.505  0.00  0.00    +0.000 C 
BRANCH   8   9
ATOM      9  N   UNL     1      48.820   7.944  21.311  0.00  0.00    +0.000 NA
ATOM     10  H   UNL     1      48.833   8.395  22.228  0.00  0.00    +0.000 HD
BRANCH   9  11
ATOM     11  C   UNL     1      49.914   8.514  20.514  0.00  0.00    +0.000 C 
BRANCH  11  12
ATOM     12  C   UNL     1      49.518   8.684  19.057  0.00  0.00    +0.000 A 
ATOM     13  C   UNL     1      50.261   8.070  18.045  0.00  0.00    +0.000 A 
ATOM     14  C   UNL     1      49.858   8.223  16.719  0.00  0.00    +0.000 A 
ATOM     15  C   UNL     1      48.736   8.990  16.438  0.00  0.00    +0.000 A 
ATOM     16 CL   UNL     1      48.209   9.213  14.820  0.00  0.00    +0.000 Cl
ATOM     17  C   UNL     1      48.057   9.574  17.496  0.00  0.00    +0.000 A 
ATOM     18  N   UNL     1      48.418   9.435  18.796  0.00  0.00    +0.000 NA
ENDBRANCH  11  12
ENDBRANCH   9  11
ENDBRANCH   8   9
ENDBRANCH   5   8
ENDBRANCH   1   2
BRANCH   1  21
ATOM     19  C   UNL     1      46.820   4.171  14.369  0.00  0.00    +0.000 C 
ATOM     20  O   UNL     1      47.349   3.164  13.906  0.00  0.00    +0.000 OA
ATOM     21  N   UNL     1      46.823   4.474  15.708  0.00  0.00    +0.000 N 
ATOM     22  H   UNL     1      46.347   5.298  16.043  0.00  0.00    +0.000 HD
BRANCH  19  26
ATOM     23  C   UNL     1      45.430   8.410  12.086  0.00  0.00    +0.000 C 
ATOM     24  N   UNL     1      45.505   7.021  12.478  0.00  0.00    +0.000 N 
ATOM     25  C   UNL     1      46.362   6.505  13.416  0.00  0.00    +0.000 A 
ATOM     26  C   UNL     1      46.141   5.136  13.511  0.00  0.00    +0.000 A 
ATOM     27  C   UNL     1      45.089   4.831  12.580  0.00  0.00    +0.000 A 
ATOM     28  C   UNL     1      44.383   3.697  12.166  0.00  0.00    +0.000 A 
ATOM     29  N   UNL     1      43.427   3.795  11.227  0.00  0.00    +0.000 NA
ATOM     30  C   UNL     1      43.184   5.012  10.713  0.00  0.00    +0.000 A 
ATOM     31  N   UNL     1      43.782   6.178  11.018  0.00  0.00    +0.000 NA
ATOM     32  C   UNL     1      44.726   6.021  11.960  0.00  0.00    +0.000 A 
BRANCH  28  33
ATOM     33  O   UNL     1      44.592   2.433  12.659  0.00  0.00    +0.000 OA
ATOM     34  H   UNL     1      44.469   2.464  13.629  0.00  0.00    +0.000 HD
ENDBRANCH  28  33
ENDBRANCH  19  26
ENDBRANCH   1  21
TORSDOF 8
ENDMDL
MODEL 9
REMARK VINA RESULT:    -6.491      4.509      8.756
REMARK INTER + INTRA:         -10.499
REMARK INTER:                  -8.807
REMARK INTRA:                  -1.692
REMARK UNBOUND:                -1.161
REMARK  Name = 
REMARK  9 active torsions:
REMARK  status: ('A' for Active; 'I' for Inactive)
REMARK    1  A    between atoms: C_1  and  N_2
REMARK    2  A    between atoms: C_4  and  C_5
REMARK    3  A    between atoms: N_7  and  C_8
REMARK    4  A    between atoms: C_8  and  C_9
REMARK    5  A    between atoms: C_12  and  C_13
REMARK    6  A    between atoms: C_13  and  N_14
REMARK    7  A    between atoms: N_14  and  C_15
REMARK    8  A    between atoms: C_15  and  C_16
REMARK    9  A    between atoms: C_26  and  O_27
REMARK                            x       y       z     vdW  Elec       q    Type
REMARK                         _______ _______ _______ _____ _____    ______ ____
ROOT
ATOM      1  C   UNL     1      47.293   3.481  16.975  0.00  0.00    +0.000 C 
ENDROOT
BRANCH   1   2
ATOM      2  C   UNL     1      48.769   3.391  17.261  0.00  0.00    +0.000 A 
ATOM      3  C   UNL     1      49.468   2.213  16.965  0.00  0.00    +0.000 A 
ATOM      4  C   UNL     1      50.841   2.115  17.213  0.00  0.00    +0.000 A 
ATOM      5  C   UNL     1      51.545   3.195  17.764  0.00  0.00    +0.000 A 
ATOM      6  C   UNL     1      50.840   4.364  18.077  0.00  0.00    +0.000 A 
ATOM      7  C   UNL     1      49.467   4.461  17.836  0.00  0.00    +0.000 A 
BRANCH   5   8
ATOM      8  C   UNL     1      53.032   3.124  18.029  0.00  0.00    +0.000 C 
BRANCH   8   9
ATOM      9  N   UNL     1      53.577   4.448  18.317  0.00  0.00    +0.000 NA
ATOM     10  H   UNL     1      54.023   4.417  19.236  0.00  0.00    +0.000 HD
BRANCH   9  11
ATOM     11  C   UNL     1      54.599   4.828  17.334  0.00  0.00    +0.000 C 
BRANCH  11  12
ATOM     12  C   UNL     1      54.117   5.947  16.427  0.00  0.00    +0.000 A 
ATOM     13  C   UNL     1      54.764   6.206  15.216  0.00  0.00    +0.000 A 
ATOM     14  C   UNL     1      54.282   7.223  14.392  0.00  0.00    +0.000 A 
ATOM     15  C   UNL     1      53.179   7.959  14.802  0.00  0.00    +0.000 A 
ATOM     16 CL   UNL     1      52.558   9.225  13.824  0.00  0.00    +0.000 Cl
ATOM     17  C   UNL     1      52.598   7.647  16.021  0.00  0.00    +0.000 A 
ATOM     18  N   UNL     1      53.036   6.658  16.839  0.00  0.00    +0.000 NA
ENDBRANCH  11  12
ENDBRANCH   9  11
ENDBRANCH   8   9
ENDBRANCH   5   8
ENDBRANCH   1   2
BRANCH   1  21
ATOM     19  C   UNL     1      47.032   4.243  14.661  0.00  0.00    +0.000 C 
ATOM     20  O   UNL     1      47.317   3.142  14.197  0.00  0.00    +0.000 OA
ATOM     21  N   UNL     1      46.996   4.503  16.009  0.00  0.00    +0.000 N 
ATOM     22  H   UNL     1      46.725   5.416  16.342  0.00  0.00    +0.000 HD
BRANCH  19  26
ATOM     23  C   UNL     1      44.732   7.296  11.422  0.00  0.00    +0.000 C 
ATOM     24  N   UNL     1      45.696   6.754  12.351  0.00  0.00    +0.000 N 
ATOM     25  C   UNL     1      45.598   5.538  12.979  0.00  0.00    +0.000 A 
ATOM     26  C   UNL     1      46.709   5.373  13.797  0.00  0.00    +0.000 A 
ATOM     27  C   UNL     1      47.510   6.556  13.635  0.00  0.00    +0.000 A 
ATOM     28  C   UNL     1      48.720   7.050  14.132  0.00  0.00    +0.000 A 
ATOM     29  N   UNL     1      49.176   8.252  13.742  0.00  0.00    +0.000 NA
ATOM     30  C   UNL     1      48.428   8.947  12.868  0.00  0.00    +0.000 A 
ATOM     31  N   UNL     1      47.254   8.592  12.313  0.00  0.00    +0.000 NA
ATOM     32  C   UNL     1      46.848   7.384  12.737  0.00  0.00    +0.000 A 
BRANCH  28  33
ATOM     33  O   UNL     1      49.521   6.382  15.025  0.00  0.00    +0.000 OA
ATOM     34  H   UNL     1      48.960   6.088  15.770  0.00  0.00    +0.000 HD
ENDBRANCH  28  33
ENDBRANCH  19  26
ENDBRANCH   1  21
TORSDOF 8
ENDMDL
