MODEL 1
REMARK VINA RESULT:    -7.512      0.000      0.000
REMARK INTER + INTRA:         -10.423
REMARK INTER:                  -9.708
REMARK INTRA:                  -0.714
REMARK UNBOUND:                -0.714
REMARK  Name = 
REMARK  5 active torsions:
REMARK  status: ('A' for Active; 'I' for Inactive)
REMARK    1  A    between atoms: C_2  and  C_3
REMARK    2  A    between atoms: C_6  and  O_7
REMARK    3  A    between atoms: O_7  and  C_8
REMARK    4  A    between atoms: C_8  and  C_9
REMARK    5  A    between atoms: C_13  and  C_14
REMARK                            x       y       z     vdW  Elec       q    Type
REMARK                         _______ _______ _______ _____ _____    ______ ____
ROOT
ATOM      1  C   UNL     1      44.828   5.039  11.598  0.00  0.00    +0.000 A 
ATOM      2  C   UNL     1      44.680   4.156  12.659  0.00  0.00    +0.000 A 
ATOM      3  N   UNL     1      45.534   4.080  13.700  0.00  0.00    +0.000 NA
ATOM      4  C   UNL     1      46.596   4.923  13.679  0.00  0.00    +0.000 A 
ATOM      5  C   UNL     1      46.871   5.848  12.669  0.00  0.00    +0.000 A 
ATOM      6  C   UNL     1      45.949   5.875  11.612  0.00  0.00    +0.000 A 
ENDROOT
BRANCH   5   7
ATOM      7  C   UNL     1      48.035   6.757  12.705  0.00  0.00    +0.000 A 
ATOM      8  C   UNL     1      48.472   7.445  11.556  0.00  0.00    +0.000 A 
ATOM      9  C   UNL     1      49.600   8.275  11.583  0.00  0.00    +0.000 A 
ATOM     10  C   UNL     1      50.323   8.426  12.761  0.00  0.00    +0.000 A 
ATOM     11  C   UNL     1      49.905   7.760  13.902  0.00  0.00    +0.000 A 
ATOM     12  F   UNL     1      50.602   7.891  15.038  0.00  0.00    +0.000 F 
ATOM     13  C   UNL     1      48.776   6.946  13.887  0.00  0.00    +0.000 A 
ENDBRANCH   5   7
BRANCH   1  14
ATOM     14  C   UNL     1      43.846   5.034  10.458  0.00  0.00    +0.000 C 
BRANCH  14  15
ATOM     15  O   UNL     1      43.615   3.694  10.007  0.00  0.00    +0.000 OA
BRANCH  15  19
ATOM     16  C   UNL     1      46.496   2.334   7.494  0.00  0.00    +0.000 A 
ATOM     17  C   UNL     1      46.018   3.631   7.378  0.00  0.00    +0.000 A 
ATOM     18  N   UNL     1      45.050   4.125   8.187  0.00  0.00    +0.000 NA
ATOM     19  C   UNL     1      44.578   3.269   9.121  0.00  0.00    +0.000 A 
ATOM     20  C   UNL     1      45.044   1.965   9.229  0.00  0.00    +0.000 A 
ATOM     21  N   UNL     1      46.015   1.467   8.420  0.00  0.00    +0.000 NA
BRANCH  16  23
ATOM     22  N   UNL     1      48.353   1.480   5.901  0.00  0.00    +0.000 NA
ATOM     23  C   UNL     1      47.543   1.872   6.637  0.00  0.00    +0.000 C 
ENDBRANCH  16  23
ENDBRANCH  15  19
ENDBRANCH  14  15
ENDBRANCH   1  14
TORSDOF 5
ENDMDL
MODEL 2
REMARK VINA RESULT:    -7.434      2.027      2.301
REMARK INTER + INTRA:         -10.321
REMARK INTER:                  -9.752
REMARK INTRA:                  -0.570
REMARK UNBOUND:                -0.714
REMARK  Name = 
REMARK  5 active torsions:
REMARK  status: ('A' for Active; 'I' for Inactive)
REMARK    1  A    between atoms: C_2  and  C_3
REMARK    2  A    between atoms: C_6  and  O_7
REMARK    3  A    between atoms: O_7  and  C_8
REMARK    4  A    between atoms: C_8  and  C_9
REMARK    5  A    between atoms: C_13  and  C_14
REMARK                            x       y       z     vdW  Elec       q    Type
REMARK                         _______ _______ _______ _____ _____    ______ ____
ROOT
ATOM      1  C   UNL     1      44.973   3.905  12.036  0.00  0.00    +0.000 A 
ATOM      2  C   UNL     1      45.781   3.232  12.943  0.00  0.00    +0.000 A 
ATOM      3  N   UNL     1      46.784   3.814  13.633  0.00  0.00    +0.000 NA
ATOM      4  C   UNL     1      46.997   5.133  13.402  0.00  0.00    +0.000 A 
ATOM      5  C   UNL     1      46.270   5.922  12.508  0.00  0.00    +0.000 A 
ATOM      6  C   UNL     1      45.245   5.259  11.817  0.00  0.00    +0.000 A 
ENDROOT
BRANCH   5   7
ATOM      7  C   UNL     1      46.533   7.362  12.307  0.00  0.00    +0.000 A 
ATOM      8  C   UNL     1      47.843   7.862  12.168  0.00  0.00    +0.000 A 
ATOM      9  C   UNL     1      48.093   9.232  12.018  0.00  0.00    +0.000 A 
ATOM     10  C   UNL     1      47.035  10.135  12.016  0.00  0.00    +0.000 A 
ATOM     11  C   UNL     1      45.740   9.661  12.147  0.00  0.00    +0.000 A 
ATOM     12  F   UNL     1      44.716  10.523  12.157  0.00  0.00    +0.000 F 
ATOM     13  C   UNL     1      45.482   8.299  12.281  0.00  0.00    +0.000 A 
ENDBRANCH   5   7
BRANCH   1  14
ATOM     14  C   UNL     1      43.897   3.172  11.282  0.00  0.00    +0.000 C 
BRANCH  14  15
ATOM     15  O   UNL     1      43.723   3.746   9.980  0.00  0.00    +0.000 OA
BRANCH  15  19
ATOM     16  C   UNL     1      46.560   2.348   7.437  0.00  0.00    +0.000 A 
ATOM     17  C   UNL     1      46.214   3.691   7.435  0.00  0.00    +0.000 A 
ATOM     18  N   UNL     1      45.267   4.201   8.258  0.00  0.00    +0.000 NA
ATOM     19  C   UNL     1      44.676   3.311   9.088  0.00  0.00    +0.000 A 
ATOM     20  C   UNL     1      45.009   1.963   9.081  0.00  0.00    +0.000 A 
ATOM     21  N   UNL     1      45.960   1.449   8.258  0.00  0.00    +0.000 NA
BRANCH  16  23
ATOM     22  N   UNL     1      48.388   1.470   5.825  0.00  0.00    +0.000 NA
ATOM     23  C   UNL     1      47.590   1.866   6.572  0.00  0.00    +0.000 C 
ENDBRANCH  16  23
ENDBRANCH  15  19
ENDBRANCH  14  15
ENDBRANCH   1  14
TORSDOF 5
ENDMDL
MODEL 3
REMARK VINA RESULT:    -7.356      3.518      6.798
REMARK INTER + INTRA:         -10.220
REMARK INTER:                  -9.505
REMARK INTRA:                  -0.715
REMARK UNBOUND:                -0.714
REMARK  Name = 
REMARK  5 active torsions:
REMARK  status: ('A' for Active; 'I' for Inactive)
REMARK    1  A    between atoms: C_2  and  C_3
REMARK    2  A    between atoms: C_6  and  O_7
REMARK    3  A    between atoms: O_7  and  C_8
REMARK    4  A    between atoms: C_8  and  C_9
REMARK    5  A    between atoms: C_13  and  C_14
REMARK                            x       y       z     vdW  Elec       q    Type
REMARK                         _______ _______ _______ _____ _____    ______ ____
ROOT
ATOM      1  C   UNL     1      44.114   5.025  11.186  0.00  0.00    +0.000 A 
ATOM      2  C   UNL     1      43.292   4.087  11.795  0.00  0.00    +0.000 A 
ATOM      3  N   UNL     1      43.205   2.797  11.408  0.00  0.00    +0.000 NA
ATOM      4  C   UNL     1      43.973   2.424  10.354  0.00  0.00    +0.000 A 
ATOM      5  C   UNL     1      44.830   3.268   9.644  0.00  0.00    +0.000 A 
ATOM      6  C   UNL     1      44.872   4.597  10.091  0.00  0.00    +0.000 A 
ENDROOT
BRANCH   5   7
ATOM      7  C   UNL     1      45.659   2.805   8.512  0.00  0.00    +0.000 A 
ATOM      8  C   UNL     1      46.087   3.686   7.499  0.00  0.00    +0.000 A 
ATOM      9  C   UNL     1      46.838   3.237   6.406  0.00  0.00    +0.000 A 
ATOM     10  C   UNL     1      47.169   1.891   6.297  0.00  0.00    +0.000 A 
ATOM     11  C   UNL     1      46.760   1.010   7.285  0.00  0.00    +0.000 A 
ATOM     12  F   UNL     1      47.065  -0.289   7.183  0.00  0.00    +0.000 F 
ATOM     13  C   UNL     1      46.027   1.452   8.383  0.00  0.00    +0.000 A 
ENDBRANCH   5   7
BRANCH   1  14
ATOM     14  C   UNL     1      44.125   6.452  11.659  0.00  0.00    +0.000 C 
BRANCH  14  15
ATOM     15  O   UNL     1      44.789   6.552  12.925  0.00  0.00    +0.000 OA
BRANCH  15  19
ATOM     16  C   UNL     1      48.709   7.566  12.650  0.00  0.00    +0.000 A 
ATOM     17  C   UNL     1      47.725   8.438  12.210  0.00  0.00    +0.000 A 
ATOM     18  N   UNL     1      46.405   8.139  12.272  0.00  0.00    +0.000 NA
ATOM     19  C   UNL     1      46.106   6.928  12.794  0.00  0.00    +0.000 A 
ATOM     20  C   UNL     1      47.090   6.046  13.222  0.00  0.00    +0.000 A 
ATOM     21  N   UNL     1      48.414   6.344  13.163  0.00  0.00    +0.000 NA
BRANCH  16  23
ATOM     22  N   UNL     1      51.189   8.307  12.544  0.00  0.00    +0.000 NA
ATOM     23  C   UNL     1      50.086   7.944  12.594  0.00  0.00    +0.000 C 
ENDBRANCH  16  23
ENDBRANCH  15  19
ENDBRANCH  14  15
ENDBRANCH   1  14
TORSDOF 5
ENDMDL
MODEL 4
REMARK VINA RESULT:    -7.141      2.382      3.258
REMARK INTER + INTRA:          -9.943
REMARK INTER:                  -9.468
REMARK INTRA:                  -0.475
REMARK UNBOUND:                -0.714
REMARK  Name = 
REMARK  5 active torsions:
REMARK  status: ('A' for Active; 'I' for Inactive)
REMARK    1  A    between atoms: C_2  and  C_3
REMARK    2  A    between atoms: C_6  and  O_7
REMARK    3  A    between atoms: O_7  and  C_8
REMARK    4  A    between atoms: C_8  and  C_9
REMARK    5  A    between atoms: C_13  and  C_14
REMARK                            x       y       z     vdW  Elec       q    Type
REMARK                         _______ _______ _______ _____ _____    ______ ____
ROOT
ATOM      1  C   UNL     1      45.489   4.858  12.031  0.00  0.00    +0.000 A 
ATOM      2  C   UNL     1      45.884   6.055  11.448  0.00  0.00    +0.000 A 
ATOM      3  N   UNL     1      46.746   6.922  12.019  0.00  0.00    +0.000 NA
ATOM      4  C   UNL     1      47.234   6.583  13.239  0.00  0.00    +0.000 A 
ATOM      5  C   UNL     1      46.908   5.419  13.941  0.00  0.00    +0.000 A 
ATOM      6  C   UNL     1      46.004   4.562  13.297  0.00  0.00    +0.000 A 
ENDROOT
BRANCH   5   7
ATOM      7  C   UNL     1      47.483   5.089  15.261  0.00  0.00    +0.000 A 
ATOM      8  C   UNL     1      48.483   5.886  15.853  0.00  0.00    +0.000 A 
ATOM      9  C   UNL     1      49.055   5.548  17.086  0.00  0.00    +0.000 A 
ATOM     10  C   UNL     1      48.646   4.396  17.749  0.00  0.00    +0.000 A 
ATOM     11  C   UNL     1      47.662   3.602  17.183  0.00  0.00    +0.000 A 
ATOM     12  F   UNL     1      47.270   2.486  17.810  0.00  0.00    +0.000 F 
ATOM     13  C   UNL     1      47.077   3.940  15.966  0.00  0.00    +0.000 A 
ENDBRANCH   5   7
BRANCH   1  14
ATOM     14  C   UNL     1      44.497   3.964  11.340  0.00  0.00    +0.000 C 
BRANCH  14  15
ATOM     15  O   UNL     1      44.255   4.426  10.005  0.00  0.00    +0.000 OA
BRANCH  15  19
ATOM     16  C   UNL     1      46.609   2.425   7.374  0.00  0.00    +0.000 A 
ATOM     17  C   UNL     1      46.459   3.800   7.278  0.00  0.00    +0.000 A 
ATOM     18  N   UNL     1      45.677   4.509   8.127  0.00  0.00    +0.000 NA
ATOM     19  C   UNL     1      45.047   3.786   9.081  0.00  0.00    +0.000 A 
ATOM     20  C   UNL     1      45.182   2.406   9.170  0.00  0.00    +0.000 A 
ATOM     21  N   UNL     1      45.968   1.693   8.321  0.00  0.00    +0.000 NA
BRANCH  16  23
ATOM     22  N   UNL     1      48.146   1.185   5.698  0.00  0.00    +0.000 NA
ATOM     23  C   UNL     1      47.473   1.727   6.475  0.00  0.00    +0.000 C 
ENDBRANCH  16  23
ENDBRANCH  15  19
ENDBRANCH  14  15
ENDBRANCH   1  14
TORSDOF 5
ENDMDL
MODEL 5
REMARK VINA RESULT:    -6.945      3.783      7.508
REMARK INTER + INTRA:          -9.689
REMARK INTER:                  -9.107
REMARK INTRA:                  -0.582
REMARK UNBOUND:                -0.714
REMARK  Name = 
REMARK  5 active torsions:
REMARK  status: ('A' for Active; 'I' for Inactive)
REMARK    1  A    between atoms: C_2  and  C_3
REMARK    2  A    between atoms: C_6  and  O_7
REMARK    3  A    between atoms: O_7  and  C_8
REMARK    4  A    between atoms: C_8  and  C_9
REMARK    5  A    between atoms: C_13  and  C_14
REMARK                            x       y       z     vdW  Elec       q    Type
REMARK                         _______ _______ _______ _____ _____    ______ ____
ROOT
ATOM      1  C   UNL     1      45.078   5.894  11.741  0.00  0.00    +0.000 A 
ATOM      2  C   UNL     1      43.689   5.888  11.748  0.00  0.00    +0.000 A 
ATOM      3  N   UNL     1      42.935   5.180  10.882  0.00  0.00    +0.000 NA
ATOM      4  C   UNL     1      43.599   4.446   9.954  0.00  0.00    +0.000 A 
ATOM      5  C   UNL     1      44.988   4.375   9.827  0.00  0.00    +0.000 A 
ATOM      6  C   UNL     1      45.716   5.137  10.752  0.00  0.00    +0.000 A 
ENDROOT
BRANCH   5   7
ATOM      7  C   UNL     1      45.662   3.544   8.808  0.00  0.00    +0.000 A 
ATOM      8  C   UNL     1      46.292   4.116   7.686  0.00  0.00    +0.000 A 
ATOM      9  C   UNL     1      46.894   3.324   6.700  0.00  0.00    +0.000 A 
ATOM     10  C   UNL     1      46.868   1.938   6.811  0.00  0.00    +0.000 A 
ATOM     11  C   UNL     1      46.256   1.358   7.910  0.00  0.00    +0.000 A 
ATOM     12  F   UNL     1      46.216   0.024   8.020  0.00  0.00    +0.000 F 
ATOM     13  C   UNL     1      45.669   2.140   8.902  0.00  0.00    +0.000 A 
ENDBRANCH   5   7
BRANCH   1  14
ATOM     14  C   UNL     1      45.843   6.740  12.721  0.00  0.00    +0.000 C 
BRANCH  14  15
ATOM     15  O   UNL     1      47.194   6.275  12.831  0.00  0.00    +0.000 OA
BRANCH  15  19
ATOM     16  C   UNL     1      48.193   5.022  16.559  0.00  0.00    +0.000 A 
ATOM     17  C   UNL     1      47.292   4.298  15.793  0.00  0.00    +0.000 A 
ATOM     18  N   UNL     1      46.921   4.683  14.548  0.00  0.00    +0.000 NA
ATOM     19  C   UNL     1      47.489   5.824  14.097  0.00  0.00    +0.000 A 
ATOM     20  C   UNL     1      48.380   6.559  14.868  0.00  0.00    +0.000 A 
ATOM     21  N   UNL     1      48.755   6.175  16.116  0.00  0.00    +0.000 NA
BRANCH  16  23
ATOM     22  N   UNL     1      48.870   4.121  18.892  0.00  0.00    +0.000 NA
ATOM     23  C   UNL     1      48.578   4.555  17.854  0.00  0.00    +0.000 C 
ENDBRANCH  16  23
ENDBRANCH  15  19
ENDBRANCH  14  15
ENDBRANCH   1  14
TORSDOF 5
ENDMDL
MODEL 6
REMARK VINA RESULT:    -6.852      1.284      1.740
REMARK INTER + INTRA:          -9.570
REMARK INTER:                  -8.967
REMARK INTRA:                  -0.603
REMARK UNBOUND:                -0.714
REMARK  Name = 
REMARK  5 active torsions:
REMARK  status: ('A' for Active; 'I' for Inactive)
REMARK    1  A    between atoms: C_2  and  C_3
REMARK    2  A    between atoms: C_6  and  O_7
REMARK    3  A    between atoms: O_7  and  C_8
REMARK    4  A    between atoms: C_8  and  C_9
REMARK    5  A    between atoms: C_13  and  C_14
REMARK                            x       y       z     vdW  Elec       q    Type
REMARK                         _______ _______ _______ _____ _____    ______ ____
ROOT
ATOM      1  C   UNL     1      44.704   5.004  11.463  0.00  0.00    +0.000 A 
ATOM      2  C   UNL     1      43.758   6.002  11.275  0.00  0.00    +0.000 A 
ATOM      3  N   UNL     1      44.005   7.317  11.450  0.00  0.00    +0.000 NA
ATOM      4  C   UNL     1      45.260   7.654  11.841  0.00  0.00    +0.000 A 
ATOM      5  C   UNL     1      46.299   6.751  12.079  0.00  0.00    +0.000 A 
ATOM      6  C   UNL     1      45.978   5.399  11.885  0.00  0.00    +0.000 A 
ENDROOT
BRANCH   5   7
ATOM      7  C   UNL     1      47.654   7.174  12.487  0.00  0.00    +0.000 A 
ATOM      8  C   UNL     1      48.508   7.870  11.610  0.00  0.00    +0.000 A 
ATOM      9  C   UNL     1      49.807   8.234  11.985  0.00  0.00    +0.000 A 
ATOM     10  C   UNL     1      50.286   7.898  13.247  0.00  0.00    +0.000 A 
ATOM     11  C   UNL     1      49.459   7.216  14.125  0.00  0.00    +0.000 A 
ATOM     12  F   UNL     1      49.915   6.879  15.338  0.00  0.00    +0.000 F 
ATOM     13  C   UNL     1      48.160   6.865  13.764  0.00  0.00    +0.000 A 
ENDBRANCH   5   7
BRANCH   1  14
ATOM     14  C   UNL     1      44.335   3.557  11.278  0.00  0.00    +0.000 C 
BRANCH  14  15
ATOM     15  O   UNL     1      43.798   3.344   9.967  0.00  0.00    +0.000 OA
BRANCH  15  19
ATOM     16  C   UNL     1      46.607   2.371   7.204  0.00  0.00    +0.000 A 
ATOM     17  C   UNL     1      46.163   1.427   8.118  0.00  0.00    +0.000 A 
ATOM     18  N   UNL     1      45.235   1.708   9.064  0.00  0.00    +0.000 NA
ATOM     19  C   UNL     1      44.766   2.977   9.061  0.00  0.00    +0.000 A 
ATOM     20  C   UNL     1      45.220   3.929   8.157  0.00  0.00    +0.000 A 
ATOM     21  N   UNL     1      46.149   3.649   7.206  0.00  0.00    +0.000 NA
BRANCH  16  23
ATOM     22  N   UNL     1      48.305   1.678   5.374  0.00  0.00    +0.000 NA
ATOM     23  C   UNL     1      47.563   2.014   6.203  0.00  0.00    +0.000 C 
ENDBRANCH  16  23
ENDBRANCH  15  19
ENDBRANCH  14  15
ENDBRANCH   1  14
TORSDOF 5
ENDMDL
MODEL 7
REMARK VINA RESULT:    -6.844      3.498      7.429
REMARK INTER + INTRA:          -9.559
REMARK INTER:                  -9.019
REMARK INTRA:                  -0.541
REMARK UNBOUND:                -0.714
REMARK  Name = 
REMARK  5 active torsions:
REMARK  status: ('A' for Active; 'I' for Inactive)
REMARK    1  A    between atoms: C_2  and  C_3
REMARK    2  A    between atoms: C_6  and  O_7
REMARK    3  A    between atoms: O_7  and  C_8
REMARK    4  A    between atoms: C_8  and  C_9
REMARK    5  A    between atoms: C_13  and  C_14
REMARK                            x       y       z     vdW  Elec       q    Type
REMARK                         _______ _______ _______ _____ _____    ______ ____
ROOT
ATOM      1  C   UNL     1      44.741   4.848  11.286  0.00  0.00    +0.000 A 
ATOM      2  C   UNL     1      43.686   4.096  11.785  0.00  0.00    +0.000 A 
ATOM      3  N   UNL     1      43.280   2.923  11.254  0.00  0.00    +0.000 NA
ATOM      4  C   UNL     1      43.956   2.481  10.164  0.00  0.00    +0.000 A 
ATOM      5  C   UNL     1      45.023   3.145   9.554  0.00  0.00    +0.000 A 
ATOM      6  C   UNL     1      45.394   4.361  10.149  0.00  0.00    +0.000 A 
ENDROOT
BRANCH   5   7
ATOM      7  C   UNL     1      45.737   2.610   8.377  0.00  0.00    +0.000 A 
ATOM      8  C   UNL     1      46.235   1.292   8.350  0.00  0.00    +0.000 A 
ATOM      9  C   UNL     1      46.946   0.800   7.249  0.00  0.00    +0.000 A 
ATOM     10  C   UNL     1      47.187   1.622   6.153  0.00  0.00    +0.000 A 
ATOM     11  C   UNL     1      46.702   2.920   6.161  0.00  0.00    +0.000 A 
ATOM     12  F   UNL     1      46.938   3.721   5.115  0.00  0.00    +0.000 F 
ATOM     13  C   UNL     1      45.980   3.411   7.245  0.00  0.00    +0.000 A 
ENDBRANCH   5   7
BRANCH   1  14
ATOM     14  C   UNL     1      45.107   6.163  11.918  0.00  0.00    +0.000 C 
BRANCH  14  15
ATOM     15  O   UNL     1      46.503   6.431  11.735  0.00  0.00    +0.000 OA
BRANCH  15  19
ATOM     16  C   UNL     1      48.427   6.504  15.307  0.00  0.00    +0.000 A 
ATOM     17  C   UNL     1      48.356   7.646  14.524  0.00  0.00    +0.000 A 
ATOM     18  N   UNL     1      47.733   7.667  13.321  0.00  0.00    +0.000 NA
ATOM     19  C   UNL     1      47.182   6.496  12.929  0.00  0.00    +0.000 A 
ATOM     20  C   UNL     1      47.265   5.346  13.705  0.00  0.00    +0.000 A 
ATOM     21  N   UNL     1      47.888   5.323  14.912  0.00  0.00    +0.000 NA
BRANCH  16  23
ATOM     22  N   UNL     1      49.536   6.554  17.648  0.00  0.00    +0.000 NA
ATOM     23  C   UNL     1      49.067   6.544  16.585  0.00  0.00    +0.000 C 
ENDBRANCH  16  23
ENDBRANCH  15  19
ENDBRANCH  14  15
ENDBRANCH   1  14
TORSDOF 5
ENDMDL
MODEL 8
REMARK VINA RESULT:    -6.296      4.249      8.155
REMARK INTER + INTRA:          -8.851
REMARK INTER:                  -8.248
REMARK INTRA:                  -0.603
REMARK UNBOUND:                -0.714
REMARK  Name = 
REMARK  5 active torsions:
REMARK  status: ('A' for Active; 'I' for Inactive)
REMARK    1  A    between atoms: C_2  and  C_3
REMARK    2  A    between atoms: C_6  and  O_7
REMARK    3  A    between atoms: O_7  and  C_8
REMARK    4  A    between atoms: C_8  and  C_9
REMARK    5  A    between atoms: C_13  and  C_14
REMARK                            x       y       z     vdW  Elec       q    Type
REMARK                         _______ _______ _______ _____ _____    ______ ____
ROOT
ATOM      1  C   UNL     1      46.947   7.391  12.990  0.00  0.00    +0.000 A 
ATOM      2  C   UNL     1      46.083   8.475  12.905  0.00  0.00    +0.000 A 
ATOM      3  N   UNL     1      44.983   8.502  12.125  0.00  0.00    +0.000 NA
ATOM      4  C   UNL     1      44.734   7.393  11.384  0.00  0.00    +0.000 A 
ATOM      5  C   UNL     1      45.527   6.243  11.364  0.00  0.00    +0.000 A 
ATOM      6  C   UNL     1      46.659   6.279  12.191  0.00  0.00    +0.000 A 
ENDROOT
BRANCH   5   7
ATOM      7  C   UNL     1      45.200   5.054  10.550  0.00  0.00    +0.000 A 
ATOM      8  C   UNL     1      44.544   3.937  11.103  0.00  0.00    +0.000 A 
ATOM      9  C   UNL     1      44.272   2.795  10.340  0.00  0.00    +0.000 A 
ATOM     10  C   UNL     1      44.661   2.742   9.006  0.00  0.00    +0.000 A 
ATOM     11  C   UNL     1      45.303   3.833   8.444  0.00  0.00    +0.000 A 
ATOM     12  F   UNL     1      45.691   3.787   7.163  0.00  0.00    +0.000 F 
ATOM     13  C   UNL     1      45.564   4.978   9.193  0.00  0.00    +0.000 A 
ENDBRANCH   5   7
BRANCH   1  14
ATOM     14  C   UNL     1      48.172   7.457  13.859  0.00  0.00    +0.000 C 
BRANCH  14  15
ATOM     15  O   UNL     1      48.628   6.137  14.177  0.00  0.00    +0.000 OA
BRANCH  15  19
ATOM     16  C   UNL     1      48.424   5.401  18.162  0.00  0.00    +0.000 A 
ATOM     17  C   UNL     1      47.920   4.485  17.252  0.00  0.00    +0.000 A 
ATOM     18  N   UNL     1      47.957   4.691  15.914  0.00  0.00    +0.000 NA
ATOM     19  C   UNL     1      48.520   5.856  15.519  0.00  0.00    +0.000 A 
ATOM     20  C   UNL     1      49.012   6.783  16.429  0.00  0.00    +0.000 A 
ATOM     21  N   UNL     1      48.978   6.578  17.772  0.00  0.00    +0.000 NA
BRANCH  16  23
ATOM     22  N   UNL     1      48.412   4.928  20.710  0.00  0.00    +0.000 NA
ATOM     23  C   UNL     1      48.392   5.120  19.564  0.00  0.00    +0.000 C 
ENDBRANCH  16  23
ENDBRANCH  15  19
ENDBRANCH  14  15
ENDBRANCH   1  14
TORSDOF 5
ENDMDL
MODEL 9
REMARK VINA RESULT:    -6.176      4.594      7.952
REMARK INTER + INTRA:          -8.696
REMARK INTER:                  -8.046
REMARK INTRA:                  -0.649
REMARK UNBOUND:                -0.714
REMARK  Name = 
REMARK  5 active torsions:
REMARK  status: ('A' for Active; 'I' for Inactive)
REMARK    1  A    between atoms: C_2  and  C_3
REMARK    2  A    between atoms: C_6  and  O_7
REMARK    3  A    between atoms: O_7  and  C_8
REMARK    4  A    between atoms: C_8  and  C_9
REMARK    5  A    between atoms: C_13  and  C_14
REMARK                            x       y       z     vdW  Elec       q    Type
REMARK                         _______ _______ _______ _____ _____    ______ ____
ROOT
ATOM      1  C   UNL     1      48.341   6.733  14.297  0.00  0.00    +0.000 A 
ATOM      2  C   UNL     1      48.942   7.568  13.365  0.00  0.00    +0.000 A 
ATOM      3  N   UNL     1      48.508   7.715  12.095  0.00  0.00    +0.000 NA
ATOM      4  C   UNL     1      47.424   6.984  11.734  0.00  0.00    +0.000 A 
ATOM      5  C   UNL     1      46.736   6.098  12.567  0.00  0.00    +0.000 A 
ATOM      6  C   UNL     1      47.239   5.985  13.872  0.00  0.00    +0.000 A 
ENDROOT
BRANCH   5   7
ATOM      7  C   UNL     1      45.547   5.339  12.127  0.00  0.00    +0.000 A 
ATOM      8  C   UNL     1      44.746   4.624  13.039  0.00  0.00    +0.000 A 
ATOM      9  C   UNL     1      43.644   3.872  12.614  0.00  0.00    +0.000 A 
ATOM     10  C   UNL     1      43.325   3.810  11.262  0.00  0.00    +0.000 A 
ATOM     11  C   UNL     1      44.099   4.509  10.351  0.00  0.00    +0.000 A 
ATOM     12  F   UNL     1      43.806   4.446   9.046  0.00  0.00    +0.000 F 
ATOM     13  C   UNL     1      45.188   5.272  10.768  0.00  0.00    +0.000 A 
ENDBRANCH   5   7
BRANCH   1  14
ATOM     14  C   UNL     1      48.911   6.603  15.684  0.00  0.00    +0.000 C 
BRANCH  14  15
ATOM     15  O   UNL     1      48.211   5.588  16.415  0.00  0.00    +0.000 OA
BRANCH  15  19
ATOM     16  C   UNL     1      50.735   2.569  17.403  0.00  0.00    +0.000 A 
ATOM     17  C   UNL     1      49.477   2.293  16.891  0.00  0.00    +0.000 A 
ATOM     18  N   UNL     1      48.596   3.267  16.556  0.00  0.00    +0.000 NA
ATOM     19  C   UNL     1      49.026   4.534  16.755  0.00  0.00    +0.000 A 
ATOM     20  C   UNL     1      50.281   4.813  17.282  0.00  0.00    +0.000 A 
ATOM     21  N   UNL     1      51.166   3.838  17.617  0.00  0.00    +0.000 NA
BRANCH  16  23
ATOM     22  N   UNL     1      52.338   0.623  18.000  0.00  0.00    +0.000 NA
ATOM     23  C   UNL     1      51.640   1.505  17.708  0.00  0.00    +0.000 C 
ENDBRANCH  16  23
ENDBRANCH  15  19
ENDBRANCH  14  15
ENDBRANCH   1  14
TORSDOF 5
ENDMDL
