MODEL 1
REMARK VINA RESULT:    -6.808      0.000      0.000
REMARK INTER + INTRA:         -11.436
REMARK INTER:                  -9.594
REMARK INTRA:                  -1.842
REMARK UNBOUND:                -1.842
REMARK  Name = 
REMARK  12 active torsions:
REMARK  status: ('A' for Active; 'I' for Inactive)
REMARK    1  A    between atoms: C_1  and  C_2
REMARK    2  A    between atoms: C_4  and  C_5
REMARK    3  A    between atoms: C_7  and  O_8
REMARK    4  A    between atoms: O_8  and  C_9
REMARK    5  A    between atoms: C_9  and  C_10
REMARK    6  A    between atoms: C_10  and  C_11
REMARK    7  A    between atoms: C_10  and  C_12
REMARK    8  A    between atoms: C_16  and  O_17
REMARK    9  A    between atoms: O_17  and  C_18
REMARK   10  A    between atoms: N_20  and  S_21
REMARK   11  A    between atoms: S_21  and  C_22
REMARK   12  A    between atoms: C_26  and  C_27
REMARK                            x       y       z     vdW  Elec       q    Type
REMARK                         _______ _______ _______ _____ _____    ______ ____
ROOT
ATOM      1  C   UNL     1      49.160   5.319  16.999  0.00  0.00    +0.000 A 
ATOM      2  C   UNL     1      49.231   4.297  17.957  0.00  0.00    +0.000 A 
ATOM      3  C   UNL     1      48.373   3.194  17.893  0.00  0.00    +0.000 A 
ATOM      4  C   UNL     1      47.398   3.112  16.896  0.00  0.00    +0.000 A 
ATOM      5  C   UNL     1      47.250   4.161  15.995  0.00  0.00    +0.000 A 
ATOM      6  C   UNL     1      48.127   5.248  16.057  0.00  0.00    +0.000 A 
ENDROOT
BRANCH   1   7
ATOM      7  C   UNL     1      50.195   6.443  17.000  0.00  0.00    +0.000 C 
ATOM      8  C   UNL     1      51.543   5.894  17.501  0.00  0.00    +0.000 C 
BRANCH   7   9
ATOM      9  C   UNL     1      50.449   7.131  15.638  0.00  0.00    +0.000 C 
BRANCH   9  10
ATOM     10  O   UNL     1      49.521   8.207  15.454  0.00  0.00    +0.000 OA
BRANCH  10  17
ATOM     11  C   UNL     1      47.119  10.726  11.939  0.00  0.00    +0.000 C 
ATOM     12  C   UNL     1      48.225   9.812  12.376  0.00  0.00    +0.000 A 
ATOM     13  C   UNL     1      49.102   9.239  11.446  0.00  0.00    +0.000 A 
ATOM     14  C   UNL     1      50.110   8.360  11.862  0.00  0.00    +0.000 A 
ATOM     15  C   UNL     1      51.052   7.744  10.869  0.00  0.00    +0.000 C 
ATOM     16  C   UNL     1      50.232   8.060  13.225  0.00  0.00    +0.000 A 
ATOM     17  C   UNL     1      49.366   8.629  14.161  0.00  0.00    +0.000 A 
ATOM     18  C   UNL     1      48.370   9.508  13.736  0.00  0.00    +0.000 A 
ENDBRANCH  10  17
ENDBRANCH   9  10
ENDBRANCH   7   9
ENDBRANCH   1   7
BRANCH   5  19
ATOM     19  O   UNL     1      46.298   4.292  15.033  0.00  0.00    +0.000 OA
BRANCH  19  20
ATOM     20  C   UNL     1      46.674   4.531  13.674  0.00  0.00    +0.000 C 
ATOM     21  C   UNL     1      45.762   3.641  12.802  0.00  0.00    +0.000 C 
ATOM     22  N   UNL     1      44.523   4.434  12.643  0.00  0.00    +0.000 NA
ATOM     23  C   UNL     1      44.743   5.819  13.093  0.00  0.00    +0.000 C 
ATOM     24  C   UNL     1      46.265   5.945  13.239  0.00  0.00    +0.000 C 
ATOM     25  C   UNL     1      46.926   6.362  11.925  0.00  0.00    +0.000 C 
BRANCH  22  26
ATOM     26  S   UNL     1      43.397   4.069  11.471  0.00  0.00    +0.000 S 
ATOM     27  C   UNL     1      44.305   4.299   9.955  0.00  0.00    +0.000 C 
ATOM     28  O   UNL     1      43.082   2.663  11.580  0.00  0.00    +0.000 OA
ATOM     29  O   UNL     1      42.366   5.084  11.514  0.00  0.00    +0.000 OA
ENDBRANCH  22  26
ENDBRANCH  19  20
ENDBRANCH   5  19
TORSDOF 7
ENDMDL
MODEL 2
REMARK VINA RESULT:    -6.664      2.818      7.116
REMARK INTER + INTRA:         -11.233
REMARK INTER:                 -10.216
REMARK INTRA:                  -1.016
REMARK UNBOUND:                -1.842
REMARK  Name = 
REMARK  12 active torsions:
REMARK  status: ('A' for Active; 'I' for Inactive)
REMARK    1  A    between atoms: C_1  and  C_2
REMARK    2  A    between atoms: C_4  and  C_5
REMARK    3  A    between atoms: C_7  and  O_8
REMARK    4  A    between atoms: O_8  and  C_9
REMARK    5  A    between atoms: C_9  and  C_10
REMARK    6  A    between atoms: C_10  and  C_11
REMARK    7  A    between atoms: C_10  and  C_12
REMARK    8  A    between atoms: C_16  and  O_17
REMARK    9  A    between atoms: O_17  and  C_18
REMARK   10  A    between atoms: N_20  and  S_21
REMARK   11  A    between atoms: S_21  and  C_22
REMARK   12  A    between atoms: C_26  and  C_27
REMARK                            x       y       z     vdW  Elec       q    Type
REMARK                         _______ _______ _______ _____ _____    ______ ____
ROOT
ATOM      1  C   UNL     1      47.254   8.409  13.038  0.00  0.00    +0.000 A 
ATOM      2  C   UNL     1      48.034   9.208  12.189  0.00  0.00    +0.000 A 
ATOM      3  C   UNL     1      49.430   9.146  12.230  0.00  0.00    +0.000 A 
ATOM      4  C   UNL     1      50.076   8.317  13.151  0.00  0.00    +0.000 A 
ATOM      5  C   UNL     1      49.321   7.590  14.064  0.00  0.00    +0.000 A 
ATOM      6  C   UNL     1      47.926   7.645  14.000  0.00  0.00    +0.000 A 
ENDROOT
BRANCH   1   7
ATOM      7  C   UNL     1      45.734   8.383  12.882  0.00  0.00    +0.000 C 
ATOM      8  C   UNL     1      45.299   9.517  11.937  0.00  0.00    +0.000 C 
BRANCH   7   9
ATOM      9  C   UNL     1      45.131   7.066  12.339  0.00  0.00    +0.000 C 
BRANCH   9  10
ATOM     10  O   UNL     1      45.764   6.713  11.103  0.00  0.00    +0.000 OA
BRANCH  10  17
ATOM     11  C   UNL     1      45.476   3.446   7.399  0.00  0.00    +0.000 C 
ATOM     12  C   UNL     1      45.193   3.855   8.814  0.00  0.00    +0.000 A 
ATOM     13  C   UNL     1      44.426   3.046   9.663  0.00  0.00    +0.000 A 
ATOM     14  C   UNL     1      44.139   3.454  10.971  0.00  0.00    +0.000 A 
ATOM     15  C   UNL     1      43.318   2.591  11.884  0.00  0.00    +0.000 C 
ATOM     16  C   UNL     1      44.633   4.685  11.424  0.00  0.00    +0.000 A 
ATOM     17  C   UNL     1      45.402   5.497  10.589  0.00  0.00    +0.000 A 
ATOM     18  C   UNL     1      45.685   5.078   9.289  0.00  0.00    +0.000 A 
ENDBRANCH  10  17
ENDBRANCH   9  10
ENDBRANCH   7   9
ENDBRANCH   1   7
BRANCH   5  19
ATOM     19  O   UNL     1      49.781   6.818  15.085  0.00  0.00    +0.000 OA
BRANCH  19  20
ATOM     20  C   UNL     1      48.967   6.585  16.237  0.00  0.00    +0.000 C 
ATOM     21  C   UNL     1      48.475   5.125  16.139  0.00  0.00    +0.000 C 
ATOM     22  N   UNL     1      49.584   4.327  16.709  0.00  0.00    +0.000 NA
ATOM     23  C   UNL     1      50.545   5.209  17.396  0.00  0.00    +0.000 C 
ATOM     24  C   UNL     1      49.824   6.558  17.510  0.00  0.00    +0.000 C 
ATOM     25  C   UNL     1      48.978   6.641  18.781  0.00  0.00    +0.000 C 
BRANCH  22  26
ATOM     26  S   UNL     1      49.370   2.743  17.177  0.00  0.00    +0.000 S 
ATOM     27  C   UNL     1      51.023   2.215  17.579  0.00  0.00    +0.000 C 
ATOM     28  O   UNL     1      48.602   2.741  18.401  0.00  0.00    +0.000 OA
ATOM     29  O   UNL     1      48.948   1.990  16.014  0.00  0.00    +0.000 OA
ENDBRANCH  22  26
ENDBRANCH  19  20
ENDBRANCH   5  19
TORSDOF 7
ENDMDL
MODEL 3
REMARK VINA RESULT:    -6.253      3.152      4.376
REMARK INTER + INTRA:         -10.654
REMARK INTER:                  -9.620
REMARK INTRA:                  -1.033
REMARK UNBOUND:                -1.842
REMARK  Name = 
REMARK  12 active torsions:
REMARK  status: ('A' for Active; 'I' for Inactive)
REMARK    1  A    between atoms: C_1  and  C_2
REMARK    2  A    between atoms: C_4  and  C_5
REMARK    3  A    between atoms: C_7  and  O_8
REMARK    4  A    between atoms: O_8  and  C_9
REMARK    5  A    between atoms: C_9  and  C_10
REMARK    6  A    between atoms: C_10  and  C_11
REMARK    7  A    between atoms: C_10  and  C_12
REMARK    8  A    between atoms: C_16  and  O_17
REMARK    9  A    between atoms: O_17  and  C_18
REMARK   10  A    between atoms: N_20  and  S_21
REMARK   11  A    between atoms: S_21  and  C_22
REMARK   12  A    between atoms: C_26  and  C_27
REMARK                            x       y       z     vdW  Elec       q    Type
REMARK                         _______ _______ _______ _____ _____    ______ ____
ROOT
ATOM      1  C   UNL     1      49.367   5.239  17.258  0.00  0.00    +0.000 A 
ATOM      2  C   UNL     1      49.682   4.037  17.910  0.00  0.00    +0.000 A 
ATOM      3  C   UNL     1      49.033   2.846  17.568  0.00  0.00    +0.000 A 
ATOM      4  C   UNL     1      48.026   2.840  16.601  0.00  0.00    +0.000 A 
ATOM      5  C   UNL     1      47.635   4.037  16.012  0.00  0.00    +0.000 A 
ATOM      6  C   UNL     1      48.304   5.218  16.347  0.00  0.00    +0.000 A 
ENDROOT
BRANCH   1   7
ATOM      7  C   UNL     1      50.182   6.500  17.541  0.00  0.00    +0.000 C 
ATOM      8  C   UNL     1      51.222   6.697  16.424  0.00  0.00    +0.000 C 
BRANCH   7   9
ATOM      9  C   UNL     1      49.375   7.814  17.665  0.00  0.00    +0.000 C 
BRANCH   9  10
ATOM     10  O   UNL     1      48.658   7.832  18.905  0.00  0.00    +0.000 OA
BRANCH  10  17
ATOM     11  C   UNL     1      47.436  12.514  17.876  0.00  0.00    +0.000 C 
ATOM     12  C   UNL     1      47.344  11.293  18.742  0.00  0.00    +0.000 A 
ATOM     13  C   UNL     1      46.626  11.310  19.946  0.00  0.00    +0.000 A 
ATOM     14  C   UNL     1      46.576  10.174  20.763  0.00  0.00    +0.000 A 
ATOM     15  C   UNL     1      45.808  10.188  22.053  0.00  0.00    +0.000 C 
ATOM     16  C   UNL     1      47.253   9.015  20.361  0.00  0.00    +0.000 A 
ATOM     17  C   UNL     1      47.967   8.985  19.162  0.00  0.00    +0.000 A 
ATOM     18  C   UNL     1      48.007  10.121  18.353  0.00  0.00    +0.000 A 
ENDBRANCH  10  17
ENDBRANCH   9  10
ENDBRANCH   7   9
ENDBRANCH   1   7
BRANCH   5  19
ATOM     19  O   UNL     1      46.614   4.229  15.134  0.00  0.00    +0.000 OA
BRANCH  19  20
ATOM     20  C   UNL     1      46.889   4.486  13.754  0.00  0.00    +0.000 C 
ATOM     21  C   UNL     1      46.122   3.417  12.946  0.00  0.00    +0.000 C 
ATOM     22  N   UNL     1      44.754   3.967  12.820  0.00  0.00    +0.000 NA
ATOM     23  C   UNL     1      44.735   5.384  13.224  0.00  0.00    +0.000 C 
ATOM     24  C   UNL     1      46.213   5.787  13.301  0.00  0.00    +0.000 C 
ATOM     25  C   UNL     1      46.737   6.273  11.949  0.00  0.00    +0.000 C 
BRANCH  22  26
ATOM     26  S   UNL     1      43.669   3.365  11.708  0.00  0.00    +0.000 S 
ATOM     27  C   UNL     1      44.694   3.022  10.292  0.00  0.00    +0.000 C 
ATOM     28  O   UNL     1      43.177   2.101  12.206  0.00  0.00    +0.000 OA
ATOM     29  O   UNL     1      42.770   4.438  11.340  0.00  0.00    +0.000 OA
ENDBRANCH  22  26
ENDBRANCH  19  20
ENDBRANCH   5  19
TORSDOF 7
ENDMDL
MODEL 4
REMARK VINA RESULT:    -6.155      1.531      2.390
REMARK INTER + INTRA:         -10.516
REMARK INTER:                  -8.854
REMARK INTRA:                  -1.662
REMARK UNBOUND:                -1.842
REMARK  Name = 
REMARK  12 active torsions:
REMARK  status: ('A' for Active; 'I' for Inactive)
REMARK    1  A    between atoms: C_1  and  C_2
REMARK    2  A    between atoms: C_4  and  C_5
REMARK    3  A    between atoms: C_7  and  O_8
REMARK    4  A    between atoms: O_8  and  C_9
REMARK    5  A    between atoms: C_9  and  C_10
REMARK    6  A    between atoms: C_10  and  C_11
REMARK    7  A    between atoms: C_10  and  C_12
REMARK    8  A    between atoms: C_16  and  O_17
REMARK    9  A    between atoms: O_17  and  C_18
REMARK   10  A    between atoms: N_20  and  S_21
REMARK   11  A    between atoms: S_21  and  C_22
REMARK   12  A    between atoms: C_26  and  C_27
REMARK                            x       y       z     vdW  Elec       q    Type
REMARK                         _______ _______ _______ _____ _____    ______ ____
ROOT
ATOM      1  C   UNL     1      48.435   4.626  17.963  0.00  0.00    +0.000 A 
ATOM      2  C   UNL     1      49.168   3.431  18.010  0.00  0.00    +0.000 A 
ATOM      3  C   UNL     1      49.051   2.479  16.992  0.00  0.00    +0.000 A 
ATOM      4  C   UNL     1      48.166   2.682  15.930  0.00  0.00    +0.000 A 
ATOM      5  C   UNL     1      47.362   3.816  15.917  0.00  0.00    +0.000 A 
ATOM      6  C   UNL     1      47.503   4.770  16.929  0.00  0.00    +0.000 A 
ENDROOT
BRANCH   1   7
ATOM      7  C   UNL     1      48.680   5.716  19.006  0.00  0.00    +0.000 C 
ATOM      8  C   UNL     1      48.721   5.081  20.407  0.00  0.00    +0.000 C 
BRANCH   7   9
ATOM      9  C   UNL     1      49.978   6.541  18.830  0.00  0.00    +0.000 C 
BRANCH   9  10
ATOM     10  O   UNL     1      50.300   6.654  17.439  0.00  0.00    +0.000 OA
BRANCH  10  17
ATOM     11  C   UNL     1      48.210  11.137  17.536  0.00  0.00    +0.000 C 
ATOM     12  C   UNL     1      48.788   9.974  16.786  0.00  0.00    +0.000 A 
ATOM     13  C   UNL     1      48.775   9.936  15.386  0.00  0.00    +0.000 A 
ATOM     14  C   UNL     1      49.286   8.829  14.697  0.00  0.00    +0.000 A 
ATOM     15  C   UNL     1      49.275   8.783  13.197  0.00  0.00    +0.000 C 
ATOM     16  C   UNL     1      49.815   7.756  15.428  0.00  0.00    +0.000 A 
ATOM     17  C   UNL     1      49.837   7.785  16.823  0.00  0.00    +0.000 A 
ATOM     18  C   UNL     1      49.330   8.895  17.499  0.00  0.00    +0.000 A 
ENDBRANCH  10  17
ENDBRANCH   9  10
ENDBRANCH   7   9
ENDBRANCH   1   7
BRANCH   5  19
ATOM     19  O   UNL     1      46.384   4.122  15.023  0.00  0.00    +0.000 OA
BRANCH  19  20
ATOM     20  C   UNL     1      46.715   4.417  13.663  0.00  0.00    +0.000 C 
ATOM     21  C   UNL     1      45.837   3.496  12.787  0.00  0.00    +0.000 C 
ATOM     22  N   UNL     1      44.551   4.219  12.674  0.00  0.00    +0.000 NA
ATOM     23  C   UNL     1      44.700   5.604  13.156  0.00  0.00    +0.000 C 
ATOM     24  C   UNL     1      46.215   5.814  13.274  0.00  0.00    +0.000 C 
ATOM     25  C   UNL     1      46.822   6.302  11.958  0.00  0.00    +0.000 C 
BRANCH  22  26
ATOM     26  S   UNL     1      43.423   3.818  11.517  0.00  0.00    +0.000 S 
ATOM     27  C   UNL     1      44.354   3.904  10.000  0.00  0.00    +0.000 C 
ATOM     28  O   UNL     1      43.048   2.437  11.721  0.00  0.00    +0.000 OA
ATOM     29  O   UNL     1      42.434   4.875  11.475  0.00  0.00    +0.000 OA
ENDBRANCH  22  26
ENDBRANCH  19  20
ENDBRANCH   5  19
TORSDOF 7
ENDMDL
MODEL 5
REMARK VINA RESULT:    -6.084      1.792      5.333
REMARK INTER + INTRA:         -10.415
REMARK INTER:                  -8.945
REMARK INTRA:                  -1.470
REMARK UNBOUND:                -1.842
REMARK  Name = 
REMARK  12 active torsions:
REMARK  status: ('A' for Active; 'I' for Inactive)
REMARK    1  A    between atoms: C_1  and  C_2
REMARK    2  A    between atoms: C_4  and  C_5
REMARK    3  A    between atoms: C_7  and  O_8
REMARK    4  A    between atoms: O_8  and  C_9
REMARK    5  A    between atoms: C_9  and  C_10
REMARK    6  A    between atoms: C_10  and  C_11
REMARK    7  A    between atoms: C_10  and  C_12
REMARK    8  A    between atoms: C_16  and  O_17
REMARK    9  A    between atoms: O_17  and  C_18
REMARK   10  A    between atoms: N_20  and  S_21
REMARK   11  A    between atoms: S_21  and  C_22
REMARK   12  A    between atoms: C_26  and  C_27
REMARK                            x       y       z     vdW  Elec       q    Type
REMARK                         _______ _______ _______ _____ _____    ______ ____
ROOT
ATOM      1  C   UNL     1      50.009   8.256  14.370  0.00  0.00    +0.000 A 
ATOM      2  C   UNL     1      51.005   8.628  13.455  0.00  0.00    +0.000 A 
ATOM      3  C   UNL     1      50.876   8.327  12.095  0.00  0.00    +0.000 A 
ATOM      4  C   UNL     1      49.772   7.609  11.629  0.00  0.00    +0.000 A 
ATOM      5  C   UNL     1      48.823   7.150  12.536  0.00  0.00    +0.000 A 
ATOM      6  C   UNL     1      48.952   7.474  13.889  0.00  0.00    +0.000 A 
ENDROOT
BRANCH   1   7
ATOM      7  C   UNL     1      50.096   8.716  15.825  0.00  0.00    +0.000 C 
ATOM      8  C   UNL     1      49.151   9.912  16.039  0.00  0.00    +0.000 C 
BRANCH   7   9
ATOM      9  C   UNL     1      49.750   7.652  16.893  0.00  0.00    +0.000 C 
BRANCH   9  10
ATOM     10  O   UNL     1      50.831   6.719  17.020  0.00  0.00    +0.000 OA
BRANCH  10  17
ATOM     11  C   UNL     1      51.865   1.914  17.585  0.00  0.00    +0.000 C 
ATOM     12  C   UNL     1      50.882   3.041  17.467  0.00  0.00    +0.000 A 
ATOM     13  C   UNL     1      49.502   2.798  17.432  0.00  0.00    +0.000 A 
ATOM     14  C   UNL     1      48.595   3.854  17.286  0.00  0.00    +0.000 A 
ATOM     15  C   UNL     1      47.117   3.599  17.248  0.00  0.00    +0.000 C 
ATOM     16  C   UNL     1      49.085   5.163  17.178  0.00  0.00    +0.000 A 
ATOM     17  C   UNL     1      50.457   5.417  17.216  0.00  0.00    +0.000 A 
ATOM     18  C   UNL     1      51.351   4.357  17.366  0.00  0.00    +0.000 A 
ENDBRANCH  10  17
ENDBRANCH   9  10
ENDBRANCH   7   9
ENDBRANCH   1   7
BRANCH   5  19
ATOM     19  O   UNL     1      47.749   6.359  12.273  0.00  0.00    +0.000 OA
BRANCH  19  20
ATOM     20  C   UNL     1      46.690   6.833  11.436  0.00  0.00    +0.000 C 
ATOM     21  C   UNL     1      45.893   5.589  10.987  0.00  0.00    +0.000 C 
ATOM     22  N   UNL     1      44.954   5.336  12.103  0.00  0.00    +0.000 NA
ATOM     23  C   UNL     1      44.931   6.488  13.021  0.00  0.00    +0.000 C 
ATOM     24  C   UNL     1      45.653   7.607  12.261  0.00  0.00    +0.000 C 
ATOM     25  C   UNL     1      44.690   8.405  11.380  0.00  0.00    +0.000 C 
BRANCH  22  26
ATOM     26  S   UNL     1      43.630   4.342  11.920  0.00  0.00    +0.000 S 
ATOM     27  C   UNL     1      42.269   5.491  11.871  0.00  0.00    +0.000 C 
ATOM     28  O   UNL     1      43.719   3.717  10.621  0.00  0.00    +0.000 OA
ATOM     29  O   UNL     1      43.491   3.561  13.132  0.00  0.00    +0.000 OA
ENDBRANCH  22  26
ENDBRANCH  19  20
ENDBRANCH   5  19
TORSDOF 7
ENDMDL
MODEL 6
REMARK VINA RESULT:    -5.980      3.144      7.450
REMARK INTER + INTRA:         -10.268
REMARK INTER:                  -9.095
REMARK INTRA:                  -1.174
REMARK UNBOUND:                -1.842
REMARK  Name = 
REMARK  12 active torsions:
REMARK  status: ('A' for Active; 'I' for Inactive)
REMARK    1  A    between atoms: C_1  and  C_2
REMARK    2  A    between atoms: C_4  and  C_5
REMARK    3  A    between atoms: C_7  and  O_8
REMARK    4  A    between atoms: O_8  and  C_9
REMARK    5  A    between atoms: C_9  and  C_10
REMARK    6  A    between atoms: C_10  and  C_11
REMARK    7  A    between atoms: C_10  and  C_12
REMARK    8  A    between atoms: C_16  and  O_17
REMARK    9  A    between atoms: O_17  and  C_18
REMARK   10  A    between atoms: N_20  and  S_21
REMARK   11  A    between atoms: S_21  and  C_22
REMARK   12  A    between atoms: C_26  and  C_27
REMARK                            x       y       z     vdW  Elec       q    Type
REMARK                         _______ _______ _______ _____ _____    ______ ____
ROOT
ATOM      1  C   UNL     1      47.065   8.152  12.909  0.00  0.00    +0.000 A 
ATOM      2  C   UNL     1      48.010   8.845  12.138  0.00  0.00    +0.000 A 
ATOM      3  C   UNL     1      49.377   8.581  12.273  0.00  0.00    +0.000 A 
ATOM      4  C   UNL     1      49.829   7.651  13.213  0.00  0.00    +0.000 A 
ATOM      5  C   UNL     1      48.914   7.025  14.051  0.00  0.00    +0.000 A 
ATOM      6  C   UNL     1      47.549   7.283  13.893  0.00  0.00    +0.000 A 
ENDROOT
BRANCH   1   7
ATOM      7  C   UNL     1      45.572   8.350  12.649  0.00  0.00    +0.000 C 
ATOM      8  C   UNL     1      45.360   9.652  11.857  0.00  0.00    +0.000 C 
BRANCH   7   9
ATOM      9  C   UNL     1      44.864   7.213  11.874  0.00  0.00    +0.000 C 
BRANCH   9  10
ATOM     10  O   UNL     1      45.718   6.727  10.832  0.00  0.00    +0.000 OA
BRANCH  10  17
ATOM     11  C   UNL     1      45.648   3.297   7.267  0.00  0.00    +0.000 C 
ATOM     12  C   UNL     1      45.309   3.756   8.654  0.00  0.00    +0.000 A 
ATOM     13  C   UNL     1      44.543   2.959   9.514  0.00  0.00    +0.000 A 
ATOM     14  C   UNL     1      44.203   3.413  10.795  0.00  0.00    +0.000 A 
ATOM     15  C   UNL     1      43.383   2.563  11.720  0.00  0.00    +0.000 C 
ATOM     16  C   UNL     1      44.643   4.678  11.208  0.00  0.00    +0.000 A 
ATOM     17  C   UNL     1      45.411   5.478  10.361  0.00  0.00    +0.000 A 
ATOM     18  C   UNL     1      45.747   5.014   9.089  0.00  0.00    +0.000 A 
ENDBRANCH  10  17
ENDBRANCH   9  10
ENDBRANCH   7   9
ENDBRANCH   1   7
BRANCH   5  19
ATOM     19  O   UNL     1      49.184   6.177  15.079  0.00  0.00    +0.000 OA
BRANCH  19  20
ATOM     20  C   UNL     1      50.092   6.564  16.115  0.00  0.00    +0.000 C 
ATOM     21  C   UNL     1      49.334   7.567  17.011  0.00  0.00    +0.000 C 
ATOM     22  N   UNL     1      48.567   6.714  17.945  0.00  0.00    +0.000 NA
ATOM     23  C   UNL     1      49.036   5.319  17.864  0.00  0.00    +0.000 C 
ATOM     24  C   UNL     1      50.349   5.395  17.075  0.00  0.00    +0.000 C 
ATOM     25  C   UNL     1      51.546   5.650  17.992  0.00  0.00    +0.000 C 
BRANCH  22  26
ATOM     26  S   UNL     1      47.902   7.328  19.344  0.00  0.00    +0.000 S 
ATOM     27  C   UNL     1      49.327   7.895  20.251  0.00  0.00    +0.000 C 
ATOM     28  O   UNL     1      47.119   8.490  18.990  0.00  0.00    +0.000 OA
ATOM     29  O   UNL     1      47.331   6.224  20.086  0.00  0.00    +0.000 OA
ENDBRANCH  22  26
ENDBRANCH  19  20
ENDBRANCH   5  19
TORSDOF 7
ENDMDL
MODEL 7
REMARK VINA RESULT:    -5.727      3.116      5.980
REMARK INTER + INTRA:          -9.913
REMARK INTER:                  -8.454
REMARK INTRA:                  -1.459
REMARK UNBOUND:                -1.842
REMARK  Name = 
REMARK  12 active torsions:
REMARK  status: ('A' for Active; 'I' for Inactive)
REMARK    1  A    between atoms: C_1  and  C_2
REMARK    2  A    between atoms: C_4  and  C_5
REMARK    3  A    between atoms: C_7  and  O_8
REMARK    4  A    between atoms: O_8  and  C_9
REMARK    5  A    between atoms: C_9  and  C_10
REMARK    6  A    between atoms: C_10  and  C_11
REMARK    7  A    between atoms: C_10  and  C_12
REMARK    8  A    between atoms: C_16  and  O_17
REMARK    9  A    between atoms: O_17  and  C_18
REMARK   10  A    between atoms: N_20  and  S_21
REMARK   11  A    between atoms: S_21  and  C_22
REMARK   12  A    between atoms: C_26  and  C_27
REMARK                            x       y       z     vdW  Elec       q    Type
REMARK                         _______ _______ _______ _____ _____    ______ ____
ROOT
ATOM      1  C   UNL     1      48.625  10.258  11.963  0.00  0.00    +0.000 A 
ATOM      2  C   UNL     1      50.000  10.010  11.836  0.00  0.00    +0.000 A 
ATOM      3  C   UNL     1      50.474   8.717  11.590  0.00  0.00    +0.000 A 
ATOM      4  C   UNL     1      49.588   7.640  11.511  0.00  0.00    +0.000 A 
ATOM      5  C   UNL     1      48.231   7.853  11.729  0.00  0.00    +0.000 A 
ATOM      6  C   UNL     1      47.768   9.152  11.954  0.00  0.00    +0.000 A 
ENDROOT
BRANCH   1   7
ATOM      7  C   UNL     1      48.115  11.693  12.089  0.00  0.00    +0.000 C 
ATOM      8  C   UNL     1      48.873  12.592  11.096  0.00  0.00    +0.000 C 
BRANCH   7   9
ATOM      9  C   UNL     1      46.602  11.898  11.842  0.00  0.00    +0.000 C 
BRANCH   9  10
ATOM     10  O   UNL     1      46.394  12.501  10.559  0.00  0.00    +0.000 OA
BRANCH  10  17
ATOM     11  C   UNL     1      44.146  11.705   6.224  0.00  0.00    +0.000 C 
ATOM     12  C   UNL     1      44.249  11.502   7.707  0.00  0.00    +0.000 A 
ATOM     13  C   UNL     1      43.273  10.784   8.410  0.00  0.00    +0.000 A 
ATOM     14  C   UNL     1      43.361  10.629   9.799  0.00  0.00    +0.000 A 
ATOM     15  C   UNL     1      42.318   9.861  10.556  0.00  0.00    +0.000 C 
ATOM     16  C   UNL     1      44.444  11.202  10.480  0.00  0.00    +0.000 A 
ATOM     17  C   UNL     1      45.425  11.915   9.789  0.00  0.00    +0.000 A 
ATOM     18  C   UNL     1      45.329  12.059   8.405  0.00  0.00    +0.000 A 
ENDBRANCH  10  17
ENDBRANCH   9  10
ENDBRANCH   7   9
ENDBRANCH   1   7
BRANCH   5  19
ATOM     19  O   UNL     1      47.249   6.914  11.789  0.00  0.00    +0.000 OA
BRANCH  19  20
ATOM     20  C   UNL     1      46.707   6.516  13.051  0.00  0.00    +0.000 C 
ATOM     21  C   UNL     1      45.171   6.608  12.919  0.00  0.00    +0.000 C 
ATOM     22  N   UNL     1      44.781   5.322  12.299  0.00  0.00    +0.000 NA
ATOM     23  C   UNL     1      45.912   4.378  12.330  0.00  0.00    +0.000 C 
ATOM     24  C   UNL     1      46.927   5.016  13.287  0.00  0.00    +0.000 C 
ATOM     25  C   UNL     1      46.666   4.612  14.739  0.00  0.00    +0.000 C 
BRANCH  22  26
ATOM     26  S   UNL     1      43.203   4.790  12.311  0.00  0.00    +0.000 S 
ATOM     27  C   UNL     1      43.328   3.145  11.639  0.00  0.00    +0.000 C 
ATOM     28  O   UNL     1      42.786   4.667  13.689  0.00  0.00    +0.000 OA
ATOM     29  O   UNL     1      42.458   5.589  11.360  0.00  0.00    +0.000 OA
ENDBRANCH  22  26
ENDBRANCH  19  20
ENDBRANCH   5  19
TORSDOF 7
ENDMDL
MODEL 8
REMARK VINA RESULT:    -5.723      2.564      6.317
REMARK INTER + INTRA:          -9.907
REMARK INTER:                  -8.700
REMARK INTRA:                  -1.206
REMARK UNBOUND:                -1.842
REMARK  Name = 
REMARK  12 active torsions:
REMARK  status: ('A' for Active; 'I' for Inactive)
REMARK    1  A    between atoms: C_1  and  C_2
REMARK    2  A    between atoms: C_4  and  C_5
REMARK    3  A    between atoms: C_7  and  O_8
REMARK    4  A    between atoms: O_8  and  C_9
REMARK    5  A    between atoms: C_9  and  C_10
REMARK    6  A    between atoms: C_10  and  C_11
REMARK    7  A    between atoms: C_10  and  C_12
REMARK    8  A    between atoms: C_16  and  O_17
REMARK    9  A    between atoms: O_17  and  C_18
REMARK   10  A    between atoms: N_20  and  S_21
REMARK   11  A    between atoms: S_21  and  C_22
REMARK   12  A    between atoms: C_26  and  C_27
REMARK                            x       y       z     vdW  Elec       q    Type
REMARK                         _______ _______ _______ _____ _____    ______ ____
ROOT
ATOM      1  C   UNL     1      49.175   9.252  13.700  0.00  0.00    +0.000 A 
ATOM      2  C   UNL     1      49.219  10.514  14.310  0.00  0.00    +0.000 A 
ATOM      3  C   UNL     1      49.736  10.669  15.600  0.00  0.00    +0.000 A 
ATOM      4  C   UNL     1      50.179   9.559  16.324  0.00  0.00    +0.000 A 
ATOM      5  C   UNL     1      50.055   8.289  15.772  0.00  0.00    +0.000 A 
ATOM      6  C   UNL     1      49.555   8.149  14.475  0.00  0.00    +0.000 A 
ENDROOT
BRANCH   1   7
ATOM      7  C   UNL     1      48.740   9.121  12.241  0.00  0.00    +0.000 C 
ATOM      8  C   UNL     1      49.520   7.973  11.577  0.00  0.00    +0.000 C 
BRANCH   7   9
ATOM      9  C   UNL     1      47.233   8.860  12.005  0.00  0.00    +0.000 C 
BRANCH   9  10
ATOM     10  O   UNL     1      46.781   7.804  12.860  0.00  0.00    +0.000 OA
BRANCH  10  17
ATOM     11  C   UNL     1      45.834   5.006   8.891  0.00  0.00    +0.000 C 
ATOM     12  C   UNL     1      45.574   5.394  10.316  0.00  0.00    +0.000 A 
ATOM     13  C   UNL     1      44.537   4.803  11.051  0.00  0.00    +0.000 A 
ATOM     14  C   UNL     1      44.281   5.198  12.370  0.00  0.00    +0.000 A 
ATOM     15  C   UNL     1      43.172   4.568  13.160  0.00  0.00    +0.000 C 
ATOM     16  C   UNL     1      45.079   6.194  12.949  0.00  0.00    +0.000 A 
ATOM     17  C   UNL     1      46.117   6.786  12.228  0.00  0.00    +0.000 A 
ATOM     18  C   UNL     1      46.366   6.382  10.917  0.00  0.00    +0.000 A 
ENDBRANCH  10  17
ENDBRANCH   9  10
ENDBRANCH   7   9
ENDBRANCH   1   7
BRANCH   5  19
ATOM     19  O   UNL     1      50.339   7.100  16.369  0.00  0.00    +0.000 OA
BRANCH  19  20
ATOM     20  C   UNL     1      49.486   6.585  17.394  0.00  0.00    +0.000 C 
ATOM     21  C   UNL     1      48.456   5.673  16.692  0.00  0.00    +0.000 C 
ATOM     22  N   UNL     1      49.151   4.374  16.559  0.00  0.00    +0.000 NA
ATOM     23  C   UNL     1      50.374   4.364  17.380  0.00  0.00    +0.000 C 
ATOM     24  C   UNL     1      50.246   5.595  18.286  0.00  0.00    +0.000 C 
ATOM     25  C   UNL     1      49.488   5.273  19.574  0.00  0.00    +0.000 C 
BRANCH  22  26
ATOM     26  S   UNL     1      48.320   2.970  16.219  0.00  0.00    +0.000 S 
ATOM     27  C   UNL     1      47.338   2.718  17.684  0.00  0.00    +0.000 C 
ATOM     28  O   UNL     1      47.413   3.245  15.128  0.00  0.00    +0.000 OA
ATOM     29  O   UNL     1      49.282   1.890  16.154  0.00  0.00    +0.000 OA
ENDBRANCH  22  26
ENDBRANCH  19  20
ENDBRANCH   5  19
TORSDOF 7
ENDMDL
MODEL 9
REMARK VINA RESULT:    -5.437      3.679      7.488
REMARK INTER + INTRA:          -9.504
REMARK INTER:                  -8.471
REMARK INTRA:                  -1.033
REMARK UNBOUND:                -1.842
REMARK  Name = 
REMARK  12 active torsions:
REMARK  status: ('A' for Active; 'I' for Inactive)
REMARK    1  A    between atoms: C_1  and  C_2
REMARK    2  A    between atoms: C_4  and  C_5
REMARK    3  A    between atoms: C_7  and  O_8
REMARK    4  A    between atoms: O_8  and  C_9
REMARK    5  A    between atoms: C_9  and  C_10
REMARK    6  A    between atoms: C_10  and  C_11
REMARK    7  A    between atoms: C_10  and  C_12
REMARK    8  A    between atoms: C_16  and  O_17
REMARK    9  A    between atoms: O_17  and  C_18
REMARK   10  A    between atoms: N_20  and  S_21
REMARK   11  A    between atoms: S_21  and  C_22
REMARK   12  A    between atoms: C_26  and  C_27
REMARK                            x       y       z     vdW  Elec       q    Type
REMARK                         _______ _______ _______ _____ _____    ______ ____
ROOT
ATOM      1  C   UNL     1      48.827   7.690  13.413  0.00  0.00    +0.000 A 
ATOM      2  C   UNL     1      50.142   8.139  13.217  0.00  0.00    +0.000 A 
ATOM      3  C   UNL     1      51.094   8.030  14.235  0.00  0.00    +0.000 A 
ATOM      4  C   UNL     1      50.741   7.513  15.484  0.00  0.00    +0.000 A 
ATOM      5  C   UNL     1      49.421   7.151  15.726  0.00  0.00    +0.000 A 
ATOM      6  C   UNL     1      48.483   7.246  14.695  0.00  0.00    +0.000 A 
ENDROOT
BRANCH   1   7
ATOM      7  C   UNL     1      47.839   7.684  12.247  0.00  0.00    +0.000 C 
ATOM      8  C   UNL     1      48.599   7.423  10.935  0.00  0.00    +0.000 C 
BRANCH   7   9
ATOM      9  C   UNL     1      46.693   6.648  12.337  0.00  0.00    +0.000 C 
BRANCH   9  10
ATOM     10  O   UNL     1      45.854   6.747  11.180  0.00  0.00    +0.000 OA
BRANCH  10  17
ATOM     11  C   UNL     1      45.599   3.574   7.392  0.00  0.00    +0.000 C 
ATOM     12  C   UNL     1      45.285   3.956   8.809  0.00  0.00    +0.000 A 
ATOM     13  C   UNL     1      44.477   3.145   9.616  0.00  0.00    +0.000 A 
ATOM     14  C   UNL     1      44.163   3.529  10.926  0.00  0.00    +0.000 A 
ATOM     15  C   UNL     1      43.298   2.664  11.795  0.00  0.00    +0.000 C 
ATOM     16  C   UNL     1      44.670   4.738  11.421  0.00  0.00    +0.000 A 
ATOM     17  C   UNL     1      45.480   5.551  10.627  0.00  0.00    +0.000 A 
ATOM     18  C   UNL     1      45.790   5.157   9.326  0.00  0.00    +0.000 A 
ENDBRANCH  10  17
ENDBRANCH   9  10
ENDBRANCH   7   9
ENDBRANCH   1   7
BRANCH   5  19
ATOM     19  O   UNL     1      48.885   6.728  16.903  0.00  0.00    +0.000 OA
BRANCH  19  20
ATOM     20  C   UNL     1      48.961   5.349  17.275  0.00  0.00    +0.000 C 
ATOM     21  C   UNL     1      49.787   5.291  18.579  0.00  0.00    +0.000 C 
ATOM     22  N   UNL     1      48.801   5.569  19.647  0.00  0.00    +0.000 NA
ATOM     23  C   UNL     1      47.431   5.491  19.109  0.00  0.00    +0.000 C 
ATOM     24  C   UNL     1      47.590   4.835  17.732  0.00  0.00    +0.000 C 
ATOM     25  C   UNL     1      47.543   3.309  17.824  0.00  0.00    +0.000 C 
BRANCH  22  26
ATOM     26  S   UNL     1      49.127   5.234  21.246  0.00  0.00    +0.000 S 
ATOM     27  C   UNL     1      48.841   6.797  22.051  0.00  0.00    +0.000 C 
ATOM     28  O   UNL     1      48.123   4.309  21.719  0.00  0.00    +0.000 OA
ATOM     29  O   UNL     1      50.541   4.944  21.359  0.00  0.00    +0.000 OA
ENDBRANCH  22  26
ENDBRANCH  19  20
ENDBRANCH   5  19
TORSDOF 7
ENDMDL
