MODEL 1
REMARK VINA RESULT:    -8.574      0.000      0.000
REMARK INTER + INTRA:         -12.455
REMARK INTER:                 -11.581
REMARK INTRA:                  -0.874
REMARK UNBOUND:                -0.874
REMARK  Name = 
REMARK  7 active torsions:
REMARK  status: ('A' for Active; 'I' for Inactive)
REMARK    1  A    between atoms: C_1  and  N_2
REMARK    2  A    between atoms: N_2  and  C_3
REMARK    3  A    between atoms: C_3  and  C_4
REMARK    4  A    between atoms: C_7  and  C_8
REMARK    5  A    between atoms: C_8  and  N_9
REMARK    6  A    between atoms: C_10  and  C_12
REMARK    7  A    between atoms: C_24  and  C_26
REMARK                            x       y       z     vdW  Elec       q    Type
REMARK                         _______ _______ _______ _____ _____    ______ ____
ROOT
ATOM      1  C   UNL     1      46.439   4.486  13.321  0.00  0.00    +0.000 A 
ATOM      2  C   UNL     1      46.864   5.719  12.831  0.00  0.00    +0.000 A 
ATOM      3  C   UNL     1      47.738   6.493  13.587  0.00  0.00    +0.000 A 
ATOM      4  C   UNL     1      48.147   6.021  14.832  0.00  0.00    +0.000 A 
ATOM      5  N   UNL     1      47.772   4.810  15.315  0.00  0.00    +0.000 NA
ATOM      6  C   UNL     1      46.939   4.074  14.553  0.00  0.00    +0.000 A 
ENDROOT
BRANCH   1   7
ATOM      7  C   UNL     1      45.463   3.632  12.571  0.00  0.00    +0.000 C 
BRANCH   7   9
ATOM      8  C   UNL     1      43.363   4.993  13.014  0.00  0.00    +0.000 C 
ATOM      9  N   UNL     1      44.228   4.267  12.087  0.00  0.00    +0.000 N 
ATOM     10  C   UNL     1      43.958   4.498  10.725  0.00  0.00    +0.000 C 
ATOM     11  O   UNL     1      43.051   5.250  10.364  0.00  0.00    +0.000 OA
BRANCH  10  12
ATOM     12  C   UNL     1      44.777   3.884   9.650  0.00  0.00    +0.000 A 
ATOM     13  C   UNL     1      44.847   2.517   9.382  0.00  0.00    +0.000 A 
ATOM     14  C   UNL     1      45.690   2.049   8.375  0.00  0.00    +0.000 A 
ATOM     15  C   UNL     1      46.388   2.973   7.618  0.00  0.00    +0.000 A 
ATOM     16  N   UNL     1      46.294   4.306   7.798  0.00  0.00    +0.000 NA
ATOM     17  C   UNL     1      45.486   4.732   8.804  0.00  0.00    +0.000 A 
ENDBRANCH  10  12
ENDBRANCH   7   9
ENDBRANCH   1   7
BRANCH   4  18
ATOM     18  C   UNL     1      49.054   6.853  15.701  0.00  0.00    +0.000 C 
BRANCH  18  19
ATOM     19  N   UNL     1      50.129   6.071  16.260  0.00  0.00    +0.000 N 
ATOM     20  C   UNL     1      50.098   5.573  17.532  0.00  0.00    +0.000 C 
ATOM     21  O   UNL     1      49.143   5.753  18.283  0.00  0.00    +0.000 OA
ATOM     22  H   UNL     1      51.014   6.134  15.763  0.00  0.00    +0.000 HD
BRANCH  20  23
ATOM     23  C   UNL     1      51.238   4.736  17.925  0.00  0.00    +0.000 A 
ATOM     24  C   UNL     1      52.334   5.317  18.549  0.00  0.00    +0.000 A 
ATOM     25  S   UNL     1      53.532   4.196  19.010  0.00  0.00    +0.000 S 
ATOM     26  C   UNL     1      52.653   2.899  18.346  0.00  0.00    +0.000 A 
ATOM     27  N   UNL     1      53.138   1.629  18.391  0.00  0.00    +0.000 NA
ATOM     28  C   UNL     1      52.384   0.748  17.826  0.00  0.00    +0.000 A 
ATOM     29  N   UNL     1      51.185   1.021  17.218  0.00  0.00    +0.000 N 
ATOM     30  C   UNL     1      50.635   2.280  17.187  0.00  0.00    +0.000 A 
ATOM     31  O   UNL     1      49.529   2.474  16.701  0.00  0.00    +0.000 OA
ATOM     32  C   UNL     1      51.456   3.313  17.795  0.00  0.00    +0.000 A 
ATOM     33  H   UNL     1      50.630   0.286  16.805  0.00  0.00    +0.000 HD
ENDBRANCH  20  23
ENDBRANCH  18  19
ENDBRANCH   4  18
TORSDOF 6
ENDMDL
MODEL 2
REMARK VINA RESULT:    -8.007      1.847      3.076
REMARK INTER + INTRA:         -11.690
REMARK INTER:                 -10.661
REMARK INTRA:                  -1.029
REMARK UNBOUND:                -0.874
REMARK  Name = 
REMARK  7 active torsions:
REMARK  status: ('A' for Active; 'I' for Inactive)
REMARK    1  A    between atoms: C_1  and  N_2
REMARK    2  A    between atoms: N_2  and  C_3
REMARK    3  A    between atoms: C_3  and  C_4
REMARK    4  A    between atoms: C_7  and  C_8
REMARK    5  A    between atoms: C_8  and  N_9
REMARK    6  A    between atoms: C_10  and  C_12
REMARK    7  A    between atoms: C_24  and  C_26
REMARK                            x       y       z     vdW  Elec       q    Type
REMARK                         _______ _______ _______ _____ _____    ______ ____
ROOT
ATOM      1  C   UNL     1      47.258   5.526  13.654  0.00  0.00    +0.000 A 
ATOM      2  C   UNL     1      47.916   6.112  14.734  0.00  0.00    +0.000 A 
ATOM      3  C   UNL     1      48.086   5.386  15.909  0.00  0.00    +0.000 A 
ATOM      4  C   UNL     1      47.570   4.095  15.981  0.00  0.00    +0.000 A 
ATOM      5  N   UNL     1      46.955   3.493  14.932  0.00  0.00    +0.000 NA
ATOM      6  C   UNL     1      46.820   4.213  13.801  0.00  0.00    +0.000 A 
ENDROOT
BRANCH   1   7
ATOM      7  C   UNL     1      47.007   6.276  12.382  0.00  0.00    +0.000 C 
BRANCH   7   9
ATOM      8  C   UNL     1      45.731   8.436  12.790  0.00  0.00    +0.000 C 
ATOM      9  N   UNL     1      45.770   7.065  12.286  0.00  0.00    +0.000 N 
ATOM     10  C   UNL     1      44.686   6.709  11.461  0.00  0.00    +0.000 C 
ATOM     11  O   UNL     1      43.780   7.505  11.204  0.00  0.00    +0.000 OA
BRANCH  10  12
ATOM     12  C   UNL     1      44.596   5.374  10.819  0.00  0.00    +0.000 A 
ATOM     13  C   UNL     1      45.275   4.999   9.659  0.00  0.00    +0.000 A 
ATOM     14  C   UNL     1      45.076   3.729   9.118  0.00  0.00    +0.000 A 
ATOM     15  C   UNL     1      44.255   2.846   9.795  0.00  0.00    +0.000 A 
ATOM     16  N   UNL     1      43.637   3.145  10.956  0.00  0.00    +0.000 NA
ATOM     17  C   UNL     1      43.827   4.398  11.446  0.00  0.00    +0.000 A 
ENDBRANCH  10  12
ENDBRANCH   7   9
ENDBRANCH   1   7
BRANCH   4  18
ATOM     18  C   UNL     1      47.691   3.296  17.253  0.00  0.00    +0.000 C 
BRANCH  18  19
ATOM     19  N   UNL     1      49.068   3.092  17.630  0.00  0.00    +0.000 N 
ATOM     20  C   UNL     1      49.899   2.239  16.960  0.00  0.00    +0.000 C 
ATOM     21  O   UNL     1      49.528   1.594  15.983  0.00  0.00    +0.000 OA
ATOM     22  H   UNL     1      49.311   3.403  18.566  0.00  0.00    +0.000 HD
BRANCH  20  23
ATOM     23  C   UNL     1      51.291   2.198  17.425  0.00  0.00    +0.000 A 
ATOM     24  C   UNL     1      51.924   0.973  17.593  0.00  0.00    +0.000 A 
ATOM     25  S   UNL     1      53.558   1.107  18.060  0.00  0.00    +0.000 S 
ATOM     26  C   UNL     1      53.464   2.805  18.105  0.00  0.00    +0.000 A 
ATOM     27  N   UNL     1      54.543   3.557  18.455  0.00  0.00    +0.000 NA
ATOM     28  C   UNL     1      54.325   4.829  18.476  0.00  0.00    +0.000 A 
ATOM     29  N   UNL     1      53.125   5.420  18.177  0.00  0.00    +0.000 N 
ATOM     30  C   UNL     1      52.021   4.705  17.775  0.00  0.00    +0.000 A 
ATOM     31  O   UNL     1      50.988   5.271  17.444  0.00  0.00    +0.000 OA
ATOM     32  C   UNL     1      52.210   3.265  17.753  0.00  0.00    +0.000 A 
ATOM     33  H   UNL     1      53.018   6.423  18.195  0.00  0.00    +0.000 HD
ENDBRANCH  20  23
ENDBRANCH  18  19
ENDBRANCH   4  18
TORSDOF 6
ENDMDL
MODEL 3
REMARK VINA RESULT:    -7.842      3.108      3.714
REMARK INTER + INTRA:         -11.467
REMARK INTER:                 -10.377
REMARK INTRA:                  -1.090
REMARK UNBOUND:                -0.874
REMARK  Name = 
REMARK  7 active torsions:
REMARK  status: ('A' for Active; 'I' for Inactive)
REMARK    1  A    between atoms: C_1  and  N_2
REMARK    2  A    between atoms: N_2  and  C_3
REMARK    3  A    between atoms: C_3  and  C_4
REMARK    4  A    between atoms: C_7  and  C_8
REMARK    5  A    between atoms: C_8  and  N_9
REMARK    6  A    between atoms: C_10  and  C_12
REMARK    7  A    between atoms: C_24  and  C_26
REMARK                            x       y       z     vdW  Elec       q    Type
REMARK                         _______ _______ _______ _____ _____    ______ ____
ROOT
ATOM      1  C   UNL     1      46.377   4.493  13.219  0.00  0.00    +0.000 A 
ATOM      2  C   UNL     1      46.721   5.715  12.643  0.00  0.00    +0.000 A 
ATOM      3  C   UNL     1      47.577   6.575  13.323  0.00  0.00    +0.000 A 
ATOM      4  C   UNL     1      48.049   6.200  14.579  0.00  0.00    +0.000 A 
ATOM      5  N   UNL     1      47.753   5.003  15.144  0.00  0.00    +0.000 NA
ATOM      6  C   UNL     1      46.936   4.182  14.455  0.00  0.00    +0.000 A 
ENDROOT
BRANCH   1   7
ATOM      7  C   UNL     1      45.424   3.548  12.553  0.00  0.00    +0.000 C 
BRANCH   7   9
ATOM      8  C   UNL     1      43.227   4.758  12.961  0.00  0.00    +0.000 C 
ATOM      9  N   UNL     1      44.157   4.097  12.049  0.00  0.00    +0.000 N 
ATOM     10  C   UNL     1      43.895   4.311  10.682  0.00  0.00    +0.000 C 
ATOM     11  O   UNL     1      42.944   4.999  10.306  0.00  0.00    +0.000 OA
BRANCH  10  12
ATOM     12  C   UNL     1      44.774   3.759   9.621  0.00  0.00    +0.000 A 
ATOM     13  C   UNL     1      44.948   2.400   9.355  0.00  0.00    +0.000 A 
ATOM     14  C   UNL     1      45.839   1.996   8.363  0.00  0.00    +0.000 A 
ATOM     15  C   UNL     1      46.480   2.968   7.616  0.00  0.00    +0.000 A 
ATOM     16  N   UNL     1      46.286   4.291   7.794  0.00  0.00    +0.000 NA
ATOM     17  C   UNL     1      45.433   4.657   8.786  0.00  0.00    +0.000 A 
ENDBRANCH  10  12
ENDBRANCH   7   9
ENDBRANCH   1   7
BRANCH   4  18
ATOM     18  C   UNL     1      48.938   7.127  15.367  0.00  0.00    +0.000 C 
BRANCH  18  19
ATOM     19  N   UNL     1      48.523   7.229  16.744  0.00  0.00    +0.000 N 
ATOM     20  C   UNL     1      49.231   7.928  17.680  0.00  0.00    +0.000 C 
ATOM     21  O   UNL     1      50.269   8.525  17.405  0.00  0.00    +0.000 OA
ATOM     22  H   UNL     1      47.833   6.544  17.039  0.00  0.00    +0.000 HD
BRANCH  20  23
ATOM     23  C   UNL     1      48.637   7.996  19.020  0.00  0.00    +0.000 A 
ATOM     24  C   UNL     1      48.283   9.228  19.555  0.00  0.00    +0.000 A 
ATOM     25  S   UNL     1      47.535   9.120  21.083  0.00  0.00    +0.000 S 
ATOM     26  C   UNL     1      47.703   7.427  21.108  0.00  0.00    +0.000 A 
ATOM     27  N   UNL     1      47.269   6.696  22.170  0.00  0.00    +0.000 NA
ATOM     28  C   UNL     1      47.485   5.428  22.072  0.00  0.00    +0.000 A 
ATOM     29  N   UNL     1      48.096   4.821  21.005  0.00  0.00    +0.000 N 
ATOM     30  C   UNL     1      48.511   5.512  19.891  0.00  0.00    +0.000 A 
ATOM     31  O   UNL     1      48.986   4.929  18.926  0.00  0.00    +0.000 OA
ATOM     32  C   UNL     1      48.307   6.949  19.961  0.00  0.00    +0.000 A 
ATOM     33  H   UNL     1      48.224   3.820  20.976  0.00  0.00    +0.000 HD
ENDBRANCH  20  23
ENDBRANCH  18  19
ENDBRANCH   4  18
TORSDOF 6
ENDMDL
MODEL 4
REMARK VINA RESULT:    -7.686      3.588      8.358
REMARK INTER + INTRA:         -11.256
REMARK INTER:                  -9.928
REMARK INTRA:                  -1.328
REMARK UNBOUND:                -0.874
REMARK  Name = 
REMARK  7 active torsions:
REMARK  status: ('A' for Active; 'I' for Inactive)
REMARK    1  A    between atoms: C_1  and  N_2
REMARK    2  A    between atoms: N_2  and  C_3
REMARK    3  A    between atoms: C_3  and  C_4
REMARK    4  A    between atoms: C_7  and  C_8
REMARK    5  A    between atoms: C_8  and  N_9
REMARK    6  A    between atoms: C_10  and  C_12
REMARK    7  A    between atoms: C_24  and  C_26
REMARK                            x       y       z     vdW  Elec       q    Type
REMARK                         _______ _______ _______ _____ _____    ______ ____
ROOT
ATOM      1  C   UNL     1      49.090   7.544  16.248  0.00  0.00    +0.000 A 
ATOM      2  C   UNL     1      48.447   8.697  15.801  0.00  0.00    +0.000 A 
ATOM      3  C   UNL     1      48.188   8.854  14.443  0.00  0.00    +0.000 A 
ATOM      4  C   UNL     1      48.605   7.860  13.561  0.00  0.00    +0.000 A 
ATOM      5  N   UNL     1      49.204   6.716  13.976  0.00  0.00    +0.000 NA
ATOM      6  C   UNL     1      49.426   6.583  15.299  0.00  0.00    +0.000 A 
ENDROOT
BRANCH   1   7
ATOM      7  C   UNL     1      49.435   7.343  17.693  0.00  0.00    +0.000 C 
BRANCH   7   9
ATOM      8  C   UNL     1      47.689   8.195  19.331  0.00  0.00    +0.000 C 
ATOM      9  N   UNL     1      48.331   7.086  18.630  0.00  0.00    +0.000 N 
ATOM     10  C   UNL     1      47.627   5.868  18.681  0.00  0.00    +0.000 C 
ATOM     11  O   UNL     1      46.557   5.765  19.285  0.00  0.00    +0.000 OA
BRANCH  10  12
ATOM     12  C   UNL     1      48.108   4.655  17.975  0.00  0.00    +0.000 A 
ATOM     13  C   UNL     1      49.214   3.894  18.359  0.00  0.00    +0.000 A 
ATOM     14  C   UNL     1      49.603   2.799  17.590  0.00  0.00    +0.000 A 
ATOM     15  C   UNL     1      48.832   2.455  16.494  0.00  0.00    +0.000 A 
ATOM     16  N   UNL     1      47.717   3.121  16.131  0.00  0.00    +0.000 NA
ATOM     17  C   UNL     1      47.376   4.200  16.883  0.00  0.00    +0.000 A 
ENDBRANCH  10  12
ENDBRANCH   7   9
ENDBRANCH   1   7
BRANCH   4  18
ATOM     18  C   UNL     1      48.387   8.017  12.078  0.00  0.00    +0.000 C 
BRANCH  18  19
ATOM     19  N   UNL     1      47.629   6.921  11.527  0.00  0.00    +0.000 N 
ATOM     20  C   UNL     1      46.263   6.923  11.469  0.00  0.00    +0.000 C 
ATOM     21  O   UNL     1      45.591   7.865  11.876  0.00  0.00    +0.000 OA
ATOM     22  H   UNL     1      48.138   6.047  11.432  0.00  0.00    +0.000 HD
BRANCH  20  23
ATOM     23  C   UNL     1      45.645   5.763  10.813  0.00  0.00    +0.000 A 
ATOM     24  C   UNL     1      45.824   5.567   9.450  0.00  0.00    +0.000 A 
ATOM     25  S   UNL     1      45.108   4.135   8.866  0.00  0.00    +0.000 S 
ATOM     26  C   UNL     1      44.489   3.751  10.404  0.00  0.00    +0.000 A 
ATOM     27  N   UNL     1      43.746   2.628  10.599  0.00  0.00    +0.000 NA
ATOM     28  C   UNL     1      43.316   2.474  11.805  0.00  0.00    +0.000 A 
ATOM     29  N   UNL     1      43.561   3.341  12.838  0.00  0.00    +0.000 N 
ATOM     30  C   UNL     1      44.343   4.464  12.699  0.00  0.00    +0.000 A 
ATOM     31  O   UNL     1      44.602   5.177  13.660  0.00  0.00    +0.000 OA
ATOM     32  C   UNL     1      44.837   4.693  11.352  0.00  0.00    +0.000 A 
ATOM     33  H   UNL     1      43.211   3.160  13.767  0.00  0.00    +0.000 HD
ENDBRANCH  20  23
ENDBRANCH  18  19
ENDBRANCH   4  18
TORSDOF 6
ENDMDL
MODEL 5
REMARK VINA RESULT:    -7.483      1.649      2.351
REMARK INTER + INTRA:         -10.982
REMARK INTER:                  -9.890
REMARK INTRA:                  -1.091
REMARK UNBOUND:                -0.874
REMARK  Name = 
REMARK  7 active torsions:
REMARK  status: ('A' for Active; 'I' for Inactive)
REMARK    1  A    between atoms: C_1  and  N_2
REMARK    2  A    between atoms: N_2  and  C_3
REMARK    3  A    between atoms: C_3  and  C_4
REMARK    4  A    between atoms: C_7  and  C_8
REMARK    5  A    between atoms: C_8  and  N_9
REMARK    6  A    between atoms: C_10  and  C_12
REMARK    7  A    between atoms: C_24  and  C_26
REMARK                            x       y       z     vdW  Elec       q    Type
REMARK                         _______ _______ _______ _____ _____    ______ ____
ROOT
ATOM      1  C   UNL     1      47.248   5.754  13.718  0.00  0.00    +0.000 A 
ATOM      2  C   UNL     1      46.687   4.637  14.335  0.00  0.00    +0.000 A 
ATOM      3  C   UNL     1      47.134   4.255  15.596  0.00  0.00    +0.000 A 
ATOM      4  C   UNL     1      48.152   4.989  16.199  0.00  0.00    +0.000 A 
ATOM      5  N   UNL     1      48.690   6.098  15.632  0.00  0.00    +0.000 NA
ATOM      6  C   UNL     1      48.226   6.455  14.418  0.00  0.00    +0.000 A 
ENDROOT
BRANCH   1   7
ATOM      7  C   UNL     1      46.838   6.184  12.342  0.00  0.00    +0.000 C 
BRANCH   7   9
ATOM      8  C   UNL     1      45.466   8.297  12.671  0.00  0.00    +0.000 C 
ATOM      9  N   UNL     1      45.572   6.917  12.203  0.00  0.00    +0.000 N 
ATOM     10  C   UNL     1      44.520   6.495  11.367  0.00  0.00    +0.000 C 
ATOM     11  O   UNL     1      43.587   7.245  11.073  0.00  0.00    +0.000 OA
BRANCH  10  12
ATOM     12  C   UNL     1      44.499   5.142  10.758  0.00  0.00    +0.000 A 
ATOM     13  C   UNL     1      45.189   4.776   9.601  0.00  0.00    +0.000 A 
ATOM     14  C   UNL     1      45.056   3.485   9.093  0.00  0.00    +0.000 A 
ATOM     15  C   UNL     1      44.289   2.575   9.797  0.00  0.00    +0.000 A 
ATOM     16  N   UNL     1      43.664   2.868  10.956  0.00  0.00    +0.000 NA
ATOM     17  C   UNL     1      43.789   4.141  11.414  0.00  0.00    +0.000 A 
ENDBRANCH  10  12
ENDBRANCH   7   9
ENDBRANCH   1   7
BRANCH   4  18
ATOM     18  C   UNL     1      48.695   4.577  17.543  0.00  0.00    +0.000 C 
BRANCH  18  19
ATOM     19  N   UNL     1      50.075   4.166  17.461  0.00  0.00    +0.000 N 
ATOM     20  C   UNL     1      50.936   4.252  18.519  0.00  0.00    +0.000 C 
ATOM     21  O   UNL     1      50.586   4.680  19.615  0.00  0.00    +0.000 OA
ATOM     22  H   UNL     1      50.441   4.062  16.519  0.00  0.00    +0.000 HD
BRANCH  20  23
ATOM     23  C   UNL     1      52.288   3.726  18.294  0.00  0.00    +0.000 A 
ATOM     24  C   UNL     1      53.390   4.534  18.542  0.00  0.00    +0.000 A 
ATOM     25  S   UNL     1      54.882   3.744  18.307  0.00  0.00    +0.000 S 
ATOM     26  C   UNL     1      54.110   2.310  17.816  0.00  0.00    +0.000 A 
ATOM     27  N   UNL     1      54.832   1.215  17.451  0.00  0.00    +0.000 NA
ATOM     28  C   UNL     1      54.121   0.207  17.074  0.00  0.00    +0.000 A 
ATOM     29  N   UNL     1      52.751   0.192  17.028  0.00  0.00    +0.000 N 
ATOM     30  C   UNL     1      51.979   1.256  17.429  0.00  0.00    +0.000 A 
ATOM     31  O   UNL     1      50.757   1.182  17.445  0.00  0.00    +0.000 OA
ATOM     32  C   UNL     1      52.734   2.426  17.846  0.00  0.00    +0.000 A 
ATOM     33  H   UNL     1      52.247  -0.634  16.739  0.00  0.00    +0.000 HD
ENDBRANCH  20  23
ENDBRANCH  18  19
ENDBRANCH   4  18
TORSDOF 6
ENDMDL
MODEL 6
REMARK VINA RESULT:    -7.426      3.496      8.796
REMARK INTER + INTRA:         -10.904
REMARK INTER:                  -9.674
REMARK INTRA:                  -1.230
REMARK UNBOUND:                -0.874
REMARK  Name = 
REMARK  7 active torsions:
REMARK  status: ('A' for Active; 'I' for Inactive)
REMARK    1  A    between atoms: C_1  and  N_2
REMARK    2  A    between atoms: N_2  and  C_3
REMARK    3  A    between atoms: C_3  and  C_4
REMARK    4  A    between atoms: C_7  and  C_8
REMARK    5  A    between atoms: C_8  and  N_9
REMARK    6  A    between atoms: C_10  and  C_12
REMARK    7  A    between atoms: C_24  and  C_26
REMARK                            x       y       z     vdW  Elec       q    Type
REMARK                         _______ _______ _______ _____ _____    ______ ____
ROOT
ATOM      1  C   UNL     1      49.203   7.585  16.334  0.00  0.00    +0.000 A 
ATOM      2  C   UNL     1      48.525   8.732  15.925  0.00  0.00    +0.000 A 
ATOM      3  C   UNL     1      47.948   8.771  14.660  0.00  0.00    +0.000 A 
ATOM      4  C   UNL     1      48.085   7.666  13.824  0.00  0.00    +0.000 A 
ATOM      5  N   UNL     1      48.713   6.528  14.213  0.00  0.00    +0.000 NA
ATOM      6  C   UNL     1      49.248   6.511  15.450  0.00  0.00    +0.000 A 
ENDROOT
BRANCH   1   7
ATOM      7  C   UNL     1      49.884   7.504  17.667  0.00  0.00    +0.000 C 
BRANCH   7   9
ATOM      8  C   UNL     1      48.812   8.717  19.626  0.00  0.00    +0.000 C 
ATOM      9  N   UNL     1      49.036   7.488  18.868  0.00  0.00    +0.000 N 
ATOM     10  C   UNL     1      48.159   6.433  19.183  0.00  0.00    +0.000 C 
ATOM     11  O   UNL     1      47.284   6.554  20.043  0.00  0.00    +0.000 OA
BRANCH  10  12
ATOM     12  C   UNL     1      48.210   5.133  18.469  0.00  0.00    +0.000 A 
ATOM     13  C   UNL     1      49.302   4.263  18.470  0.00  0.00    +0.000 A 
ATOM     14  C   UNL     1      49.254   3.089  17.721  0.00  0.00    +0.000 A 
ATOM     15  C   UNL     1      48.086   2.784  17.046  0.00  0.00    +0.000 A 
ATOM     16  N   UNL     1      46.985   3.562  17.076  0.00  0.00    +0.000 NA
ATOM     17  C   UNL     1      47.068   4.714  17.792  0.00  0.00    +0.000 A 
ENDBRANCH  10  12
ENDBRANCH   7   9
ENDBRANCH   1   7
BRANCH   4  18
ATOM     18  C   UNL     1      47.516   7.690  12.429  0.00  0.00    +0.000 C 
BRANCH  18  19
ATOM     19  N   UNL     1      46.827   6.464  12.108  0.00  0.00    +0.000 N 
ATOM     20  C   UNL     1      45.464   6.367  12.085  0.00  0.00    +0.000 C 
ATOM     21  O   UNL     1      44.734   7.323  12.330  0.00  0.00    +0.000 OA
ATOM     22  H   UNL     1      47.394   5.622  12.162  0.00  0.00    +0.000 HD
BRANCH  20  23
ATOM     23  C   UNL     1      44.918   5.068  11.670  0.00  0.00    +0.000 A 
ATOM     24  C   UNL     1      44.190   4.307  12.576  0.00  0.00    +0.000 A 
ATOM     25  S   UNL     1      43.562   2.870  11.910  0.00  0.00    +0.000 S 
ATOM     26  C   UNL     1      44.283   3.187  10.402  0.00  0.00    +0.000 A 
ATOM     27  N   UNL     1      44.145   2.318   9.363  0.00  0.00    +0.000 NA
ATOM     28  C   UNL     1      44.766   2.667   8.288  0.00  0.00    +0.000 A 
ATOM     29  N   UNL     1      45.515   3.808   8.154  0.00  0.00    +0.000 N 
ATOM     30  C   UNL     1      45.647   4.736   9.160  0.00  0.00    +0.000 A 
ATOM     31  O   UNL     1      46.262   5.779   8.982  0.00  0.00    +0.000 OA
ATOM     32  C   UNL     1      44.980   4.380  10.401  0.00  0.00    +0.000 A 
ATOM     33  H   UNL     1      45.967   4.037   7.281  0.00  0.00    +0.000 HD
ENDBRANCH  20  23
ENDBRANCH  18  19
ENDBRANCH   4  18
TORSDOF 6
ENDMDL
MODEL 7
REMARK VINA RESULT:    -7.351      3.327      5.145
REMARK INTER + INTRA:         -10.803
REMARK INTER:                  -9.771
REMARK INTRA:                  -1.033
REMARK UNBOUND:                -0.874
REMARK  Name = 
REMARK  7 active torsions:
REMARK  status: ('A' for Active; 'I' for Inactive)
REMARK    1  A    between atoms: C_1  and  N_2
REMARK    2  A    between atoms: N_2  and  C_3
REMARK    3  A    between atoms: C_3  and  C_4
REMARK    4  A    between atoms: C_7  and  C_8
REMARK    5  A    between atoms: C_8  and  N_9
REMARK    6  A    between atoms: C_10  and  C_12
REMARK    7  A    between atoms: C_24  and  C_26
REMARK                            x       y       z     vdW  Elec       q    Type
REMARK                         _______ _______ _______ _____ _____    ______ ____
ROOT
ATOM      1  C   UNL     1      46.827   5.269  13.112  0.00  0.00    +0.000 A 
ATOM      2  C   UNL     1      47.614   6.271  13.677  0.00  0.00    +0.000 A 
ATOM      3  C   UNL     1      48.057   6.136  14.989  0.00  0.00    +0.000 A 
ATOM      4  C   UNL     1      47.679   5.008  15.713  0.00  0.00    +0.000 A 
ATOM      5  N   UNL     1      46.940   4.006  15.174  0.00  0.00    +0.000 NA
ATOM      6  C   UNL     1      46.540   4.155  13.895  0.00  0.00    +0.000 A 
ENDROOT
BRANCH   1   7
ATOM      7  C   UNL     1      46.284   5.384  11.720  0.00  0.00    +0.000 C 
BRANCH   7   9
ATOM      8  C   UNL     1      43.936   6.104  12.372  0.00  0.00    +0.000 C 
ATOM      9  N   UNL     1      44.827   5.295  11.544  0.00  0.00    +0.000 N 
ATOM     10  C   UNL     1      44.217   4.709  10.418  0.00  0.00    +0.000 C 
ATOM     11  O   UNL     1      43.020   4.872  10.174  0.00  0.00    +0.000 OA
BRANCH  10  12
ATOM     12  C   UNL     1      44.989   3.903   9.441  0.00  0.00    +0.000 A 
ATOM     13  C   UNL     1      45.716   4.426   8.371  0.00  0.00    +0.000 A 
ATOM     14  C   UNL     1      46.365   3.567   7.486  0.00  0.00    +0.000 A 
ATOM     15  C   UNL     1      46.324   2.207   7.738  0.00  0.00    +0.000 A 
ATOM     16  N   UNL     1      45.693   1.666   8.800  0.00  0.00    +0.000 NA
ATOM     17  C   UNL     1      45.047   2.525   9.631  0.00  0.00    +0.000 A 
ENDBRANCH  10  12
ENDBRANCH   7   9
ENDBRANCH   1   7
BRANCH   4  18
ATOM     18  C   UNL     1      48.098   4.850  17.152  0.00  0.00    +0.000 C 
BRANCH  18  19
ATOM     19  N   UNL     1      47.695   5.977  17.956  0.00  0.00    +0.000 N 
ATOM     20  C   UNL     1      48.505   6.535  18.905  0.00  0.00    +0.000 C 
ATOM     21  O   UNL     1      49.637   6.116  19.129  0.00  0.00    +0.000 OA
ATOM     22  H   UNL     1      46.696   6.163  17.971  0.00  0.00    +0.000 HD
BRANCH  20  23
ATOM     23  C   UNL     1      47.975   7.721  19.588  0.00  0.00    +0.000 A 
ATOM     24  C   UNL     1      47.624   7.643  20.929  0.00  0.00    +0.000 A 
ATOM     25  S   UNL     1      47.103   9.127  21.587  0.00  0.00    +0.000 S 
ATOM     26  C   UNL     1      47.277   9.916  20.090  0.00  0.00    +0.000 A 
ATOM     27  N   UNL     1      46.975  11.235  19.954  0.00  0.00    +0.000 NA
ATOM     28  C   UNL     1      47.126  11.699  18.760  0.00  0.00    +0.000 A 
ATOM     29  N   UNL     1      47.552  10.963  17.685  0.00  0.00    +0.000 N 
ATOM     30  C   UNL     1      47.912   9.639  17.783  0.00  0.00    +0.000 A 
ATOM     31  O   UNL     1      48.358   9.033  16.818  0.00  0.00    +0.000 OA
ATOM     32  C   UNL     1      47.742   9.064  19.106  0.00  0.00    +0.000 A 
ATOM     33  H   UNL     1      47.666  11.385  16.775  0.00  0.00    +0.000 HD
ENDBRANCH  20  23
ENDBRANCH  18  19
ENDBRANCH   4  18
TORSDOF 6
ENDMDL
MODEL 8
REMARK VINA RESULT:    -6.527      3.749      5.683
REMARK INTER + INTRA:          -9.690
REMARK INTER:                  -8.265
REMARK INTRA:                  -1.425
REMARK UNBOUND:                -0.874
REMARK  Name = 
REMARK  7 active torsions:
REMARK  status: ('A' for Active; 'I' for Inactive)
REMARK    1  A    between atoms: C_1  and  N_2
REMARK    2  A    between atoms: N_2  and  C_3
REMARK    3  A    between atoms: C_3  and  C_4
REMARK    4  A    between atoms: C_7  and  C_8
REMARK    5  A    between atoms: C_8  and  N_9
REMARK    6  A    between atoms: C_10  and  C_12
REMARK    7  A    between atoms: C_24  and  C_26
REMARK                            x       y       z     vdW  Elec       q    Type
REMARK                         _______ _______ _______ _____ _____    ______ ____
ROOT
ATOM      1  C   UNL     1      47.659   6.235  13.420  0.00  0.00    +0.000 A 
ATOM      2  C   UNL     1      48.683   7.069  13.868  0.00  0.00    +0.000 A 
ATOM      3  C   UNL     1      49.216   6.877  15.138  0.00  0.00    +0.000 A 
ATOM      4  C   UNL     1      48.692   5.868  15.942  0.00  0.00    +0.000 A 
ATOM      5  N   UNL     1      47.718   5.024  15.516  0.00  0.00    +0.000 NA
ATOM      6  C   UNL     1      47.233   5.222  14.274  0.00  0.00    +0.000 A 
ENDROOT
BRANCH   1   7
ATOM      7  C   UNL     1      47.016   6.424  12.080  0.00  0.00    +0.000 C 
BRANCH   7   9
ATOM      8  C   UNL     1      46.020   8.760  11.972  0.00  0.00    +0.000 C 
ATOM      9  N   UNL     1      45.845   7.309  12.002  0.00  0.00    +0.000 N 
ATOM     10  C   UNL     1      44.559   6.863  11.642  0.00  0.00    +0.000 C 
ATOM     11  O   UNL     1      43.662   7.652  11.338  0.00  0.00    +0.000 OA
BRANCH  10  12
ATOM     12  C   UNL     1      44.225   5.418  11.565  0.00  0.00    +0.000 A 
ATOM     13  C   UNL     1      43.810   4.637  12.644  0.00  0.00    +0.000 A 
ATOM     14  C   UNL     1      43.570   3.276  12.463  0.00  0.00    +0.000 A 
ATOM     15  C   UNL     1      43.686   2.750  11.189  0.00  0.00    +0.000 A 
ATOM     16  N   UNL     1      44.015   3.485  10.108  0.00  0.00    +0.000 NA
ATOM     17  C   UNL     1      44.270   4.803  10.318  0.00  0.00    +0.000 A 
ENDBRANCH  10  12
ENDBRANCH   7   9
ENDBRANCH   1   7
BRANCH   4  18
ATOM     18  C   UNL     1      49.211   5.662  17.341  0.00  0.00    +0.000 C 
BRANCH  18  19
ATOM     19  N   UNL     1      48.835   6.743  18.218  0.00  0.00    +0.000 N 
ATOM     20  C   UNL     1      47.694   6.722  18.971  0.00  0.00    +0.000 C 
ATOM     21  O   UNL     1      46.916   5.772  18.955  0.00  0.00    +0.000 OA
ATOM     22  H   UNL     1      49.313   7.623  18.049  0.00  0.00    +0.000 HD
BRANCH  20  23
ATOM     23  C   UNL     1      47.492   7.868  19.866  0.00  0.00    +0.000 A 
ATOM     24  C   UNL     1      47.320   7.655  21.228  0.00  0.00    +0.000 A 
ATOM     25  S   UNL     1      47.178   9.093  22.131  0.00  0.00    +0.000 S 
ATOM     26  C   UNL     1      47.288  10.051  20.729  0.00  0.00    +0.000 A 
ATOM     27  N   UNL     1      47.219  11.408  20.801  0.00  0.00    +0.000 NA
ATOM     28  C   UNL     1      47.287  12.009  19.661  0.00  0.00    +0.000 A 
ATOM     29  N   UNL     1      47.418  11.375  18.452  0.00  0.00    +0.000 N 
ATOM     30  C   UNL     1      47.536  10.011  18.334  0.00  0.00    +0.000 A 
ATOM     31  O   UNL     1      47.726   9.485  17.245  0.00  0.00    +0.000 OA
ATOM     32  C   UNL     1      47.447   9.286  19.590  0.00  0.00    +0.000 A 
ATOM     33  H   UNL     1      47.482  11.900  17.592  0.00  0.00    +0.000 HD
ENDBRANCH  20  23
ENDBRANCH  18  19
ENDBRANCH   4  18
TORSDOF 6
ENDMDL
MODEL 9
REMARK VINA RESULT:    -6.303      2.425      3.558
REMARK INTER + INTRA:          -9.388
REMARK INTER:                  -8.318
REMARK INTRA:                  -1.070
REMARK UNBOUND:                -0.874
REMARK  Name = 
REMARK  7 active torsions:
REMARK  status: ('A' for Active; 'I' for Inactive)
REMARK    1  A    between atoms: C_1  and  N_2
REMARK    2  A    between atoms: N_2  and  C_3
REMARK    3  A    between atoms: C_3  and  C_4
REMARK    4  A    between atoms: C_7  and  C_8
REMARK    5  A    between atoms: C_8  and  N_9
REMARK    6  A    between atoms: C_10  and  C_12
REMARK    7  A    between atoms: C_24  and  C_26
REMARK                            x       y       z     vdW  Elec       q    Type
REMARK                         _______ _______ _______ _____ _____    ______ ____
ROOT
ATOM      1  C   UNL     1      47.502   5.966  13.583  0.00  0.00    +0.000 A 
ATOM      2  C   UNL     1      46.820   4.768  13.792  0.00  0.00    +0.000 A 
ATOM      3  C   UNL     1      46.964   4.100  15.004  0.00  0.00    +0.000 A 
ATOM      4  C   UNL     1      47.809   4.638  15.971  0.00  0.00    +0.000 A 
ATOM      5  N   UNL     1      48.457   5.819  15.803  0.00  0.00    +0.000 NA
ATOM      6  C   UNL     1      48.285   6.453  14.626  0.00  0.00    +0.000 A 
ENDROOT
BRANCH   1   7
ATOM      7  C   UNL     1      47.421   6.704  12.282  0.00  0.00    +0.000 C 
BRANCH   7   9
ATOM      8  C   UNL     1      46.674   9.133  12.276  0.00  0.00    +0.000 C 
ATOM      9  N   UNL     1      46.362   7.713  12.132  0.00  0.00    +0.000 N 
ATOM     10  C   UNL     1      45.109   7.440  11.551  0.00  0.00    +0.000 C 
ATOM     11  O   UNL     1      44.345   8.344  11.207  0.00  0.00    +0.000 OA
BRANCH  10  12
ATOM     12  C   UNL     1      44.657   6.052  11.280  0.00  0.00    +0.000 A 
ATOM     13  C   UNL     1      43.637   5.396  11.968  0.00  0.00    +0.000 A 
ATOM     14  C   UNL     1      43.330   4.072  11.658  0.00  0.00    +0.000 A 
ATOM     15  C   UNL     1      44.010   3.464  10.618  0.00  0.00    +0.000 A 
ATOM     16  N   UNL     1      44.953   4.086   9.882  0.00  0.00    +0.000 NA
ATOM     17  C   UNL     1      45.250   5.367  10.223  0.00  0.00    +0.000 A 
ENDBRANCH  10  12
ENDBRANCH   7   9
ENDBRANCH   1   7
BRANCH   4  18
ATOM     18  C   UNL     1      48.028   3.919  17.277  0.00  0.00    +0.000 C 
BRANCH  18  19
ATOM     19  N   UNL     1      49.232   4.358  17.937  0.00  0.00    +0.000 N 
ATOM     20  C   UNL     1      50.428   3.712  17.798  0.00  0.00    +0.000 C 
ATOM     21  O   UNL     1      50.558   2.716  17.092  0.00  0.00    +0.000 OA
ATOM     22  H   UNL     1      49.092   5.001  18.711  0.00  0.00    +0.000 HD
BRANCH  20  23
ATOM     23  C   UNL     1      51.575   4.326  18.479  0.00  0.00    +0.000 A 
ATOM     24  C   UNL     1      52.804   4.389  17.835  0.00  0.00    +0.000 A 
ATOM     25  S   UNL     1      54.004   5.203  18.731  0.00  0.00    +0.000 S 
ATOM     26  C   UNL     1      52.939   5.455  20.034  0.00  0.00    +0.000 A 
ATOM     27  N   UNL     1      53.351   6.098  21.160  0.00  0.00    +0.000 NA
ATOM     28  C   UNL     1      52.451   6.195  22.080  0.00  0.00    +0.000 A 
ATOM     29  N   UNL     1      51.174   5.708  21.977  0.00  0.00    +0.000 N 
ATOM     30  C   UNL     1      50.700   5.092  20.843  0.00  0.00    +0.000 A 
ATOM     31  O   UNL     1      49.533   4.735  20.758  0.00  0.00    +0.000 OA
ATOM     32  C   UNL     1      51.682   4.940  19.783  0.00  0.00    +0.000 A 
ATOM     33  H   UNL     1      50.507   5.828  22.725  0.00  0.00    +0.000 HD
ENDBRANCH  20  23
ENDBRANCH  18  19
ENDBRANCH   4  18
TORSDOF 6
ENDMDL
