MODEL 1
REMARK VINA RESULT:    -7.809      0.000      0.000
REMARK INTER + INTRA:         -11.816
REMARK INTER:                 -11.005
REMARK INTRA:                  -0.811
REMARK UNBOUND:                -0.811
REMARK  Name = 
REMARK  8 active torsions:
REMARK  status: ('A' for Active; 'I' for Inactive)
REMARK    1  A    between atoms: C_1  and  C_2
REMARK    2  A    between atoms: C_2  and  O_3
REMARK    3  A    between atoms: O_3  and  C_4
REMARK    4  A    between atoms: C_4  and  C_5
REMARK    5  A    between atoms: C_4  and  C_12
REMARK    6  A    between atoms: C_5  and  C_6
REMARK    7  A    between atoms: C_15  and  C_16
REMARK    8  A    between atoms: C_16  and  N_17
REMARK                            x       y       z     vdW  Elec       q    Type
REMARK                         _______ _______ _______ _____ _____    ______ ____
ROOT
ATOM      1  C   UNL     1      45.465   4.544  11.269  0.00  0.00    +0.000 A 
ATOM      2  C   UNL     1      46.046   5.724  11.754  0.00  0.00    +0.000 A 
ATOM      3  C   UNL     1      46.649   5.748  13.015  0.00  0.00    +0.000 A 
ATOM      4  C   UNL     1      46.677   4.598  13.814  0.00  0.00    +0.000 A 
ATOM      5  C   UNL     1      46.147   3.408  13.308  0.00  0.00    +0.000 A 
ATOM      6  C   UNL     1      45.593   3.373  12.032  0.00  0.00    +0.000 A 
ENDROOT
BRANCH   1   7
ATOM      7  C   UNL     1      44.594   4.585  10.020  0.00  0.00    +0.000 C 
BRANCH   7   8
ATOM      8  O   UNL     1      43.305   5.201  10.255  0.00  0.00    +0.000 OA
BRANCH   8  10
ATOM      9  C   UNL     1      42.523   5.589  12.529  0.00  0.00    +0.000 C 
ATOM     10  C   UNL     1      42.624   4.609  11.377  0.00  0.00    +0.000 C 
ENDBRANCH   8  10
ENDBRANCH   7   8
BRANCH   7  11
ATOM     11  C   UNL     1      44.465   3.234   9.264  0.00  0.00    +0.000 C 
BRANCH  11  12
ATOM     12  C   UNL     1      45.591   2.741   8.390  0.00  0.00    +0.000 A 
ATOM     13  C   UNL     1      46.219   3.609   7.484  0.00  0.00    +0.000 A 
ATOM     14  C   UNL     1      47.238   3.142   6.655  0.00  0.00    +0.000 A 
ATOM     15  C   UNL     1      47.596   1.811   6.748  0.00  0.00    +0.000 A 
ATOM     16  N   UNL     1      46.998   0.934   7.580  0.00  0.00    +0.000 NA
ATOM     17  C   UNL     1      46.013   1.417   8.377  0.00  0.00    +0.000 A 
ENDBRANCH  11  12
ENDBRANCH   7  11
ENDBRANCH   1   7
BRANCH   4  18
ATOM     18  C   UNL     1      47.277   4.627  15.197  0.00  0.00    +0.000 C 
BRANCH  18  19
ATOM     19  N   UNL     1      47.452   3.282  15.712  0.00  0.00    +0.000 N 
ATOM     20  C   UNL     1      48.672   3.129  16.362  0.00  0.00    +0.000 A 
ATOM     21  N   UNL     1      49.217   4.174  17.004  0.00  0.00    +0.000 NA
ATOM     22  C   UNL     1      50.418   3.995  17.577  0.00  0.00    +0.000 A 
ATOM     23  C   UNL     1      51.096   2.802  17.549  0.00  0.00    +0.000 A 
ATOM     24  C   UNL     1      50.454   1.791  16.879  0.00  0.00    +0.000 A 
ATOM     25  N   UNL     1      49.256   1.928  16.276  0.00  0.00    +0.000 NA
ATOM     26  H   UNL     1      47.389   2.538  15.027  0.00  0.00    +0.000 HD
ENDBRANCH  18  19
ENDBRANCH   4  18
TORSDOF 7
ENDMDL
MODEL 2
REMARK VINA RESULT:    -7.613      2.262      7.931
REMARK INTER + INTRA:         -11.539
REMARK INTER:                 -10.472
REMARK INTRA:                  -1.067
REMARK UNBOUND:                -0.811
REMARK  Name = 
REMARK  8 active torsions:
REMARK  status: ('A' for Active; 'I' for Inactive)
REMARK    1  A    between atoms: C_1  and  C_2
REMARK    2  A    between atoms: C_2  and  O_3
REMARK    3  A    between atoms: O_3  and  C_4
REMARK    4  A    between atoms: C_4  and  C_5
REMARK    5  A    between atoms: C_4  and  C_12
REMARK    6  A    between atoms: C_5  and  C_6
REMARK    7  A    between atoms: C_15  and  C_16
REMARK    8  A    between atoms: C_16  and  N_17
REMARK                            x       y       z     vdW  Elec       q    Type
REMARK                         _______ _______ _______ _____ _____    ______ ____
ROOT
ATOM      1  C   UNL     1      46.447   5.093  13.511  0.00  0.00    +0.000 A 
ATOM      2  C   UNL     1      46.156   3.744  13.267  0.00  0.00    +0.000 A 
ATOM      3  C   UNL     1      45.255   3.387  12.260  0.00  0.00    +0.000 A 
ATOM      4  C   UNL     1      44.626   4.369  11.485  0.00  0.00    +0.000 A 
ATOM      5  C   UNL     1      44.958   5.711  11.690  0.00  0.00    +0.000 A 
ATOM      6  C   UNL     1      45.894   6.061  12.659  0.00  0.00    +0.000 A 
ENDROOT
BRANCH   1   7
ATOM      7  C   UNL     1      47.223   5.488  14.761  0.00  0.00    +0.000 C 
BRANCH   7   8
ATOM      8  O   UNL     1      48.607   5.811  14.483  0.00  0.00    +0.000 OA
BRANCH   8  10
ATOM      9  C   UNL     1      50.198   7.345  15.508  0.00  0.00    +0.000 C 
ATOM     10  C   UNL     1      48.898   7.197  14.743  0.00  0.00    +0.000 C 
ENDBRANCH   8  10
ENDBRANCH   7   8
BRANCH   7  11
ATOM     11  C   UNL     1      47.082   4.509  15.959  0.00  0.00    +0.000 C 
BRANCH  11  12
ATOM     12  C   UNL     1      48.268   3.702  16.425  0.00  0.00    +0.000 A 
ATOM     13  C   UNL     1      49.195   4.255  17.323  0.00  0.00    +0.000 A 
ATOM     14  C   UNL     1      50.307   3.518  17.726  0.00  0.00    +0.000 A 
ATOM     15  C   UNL     1      50.468   2.245  17.212  0.00  0.00    +0.000 A 
ATOM     16  N   UNL     1      49.621   1.687  16.324  0.00  0.00    +0.000 NA
ATOM     17  C   UNL     1      48.547   2.426  15.952  0.00  0.00    +0.000 A 
ENDBRANCH  11  12
ENDBRANCH   7  11
ENDBRANCH   1   7
BRANCH   4  18
ATOM     18  C   UNL     1      43.613   3.996  10.432  0.00  0.00    +0.000 C 
BRANCH  18  19
ATOM     19  N   UNL     1      44.017   4.490   9.129  0.00  0.00    +0.000 N 
ATOM     20  C   UNL     1      44.972   3.671   8.537  0.00  0.00    +0.000 A 
ATOM     21  N   UNL     1      44.963   2.353   8.787  0.00  0.00    +0.000 NA
ATOM     22  C   UNL     1      45.933   1.608   8.232  0.00  0.00    +0.000 A 
ATOM     23  C   UNL     1      46.911   2.126   7.421  0.00  0.00    +0.000 A 
ATOM     24  C   UNL     1      46.830   3.481   7.215  0.00  0.00    +0.000 A 
ATOM     25  N   UNL     1      45.885   4.271   7.763  0.00  0.00    +0.000 NA
ATOM     26  H   UNL     1      44.386   5.433   9.112  0.00  0.00    +0.000 HD
ENDBRANCH  18  19
ENDBRANCH   4  18
TORSDOF 7
ENDMDL
MODEL 3
REMARK VINA RESULT:    -7.140      3.434      7.576
REMARK INTER + INTRA:         -10.873
REMARK INTER:                  -9.791
REMARK INTRA:                  -1.082
REMARK UNBOUND:                -0.811
REMARK  Name = 
REMARK  8 active torsions:
REMARK  status: ('A' for Active; 'I' for Inactive)
REMARK    1  A    between atoms: C_1  and  C_2
REMARK    2  A    between atoms: C_2  and  O_3
REMARK    3  A    between atoms: O_3  and  C_4
REMARK    4  A    between atoms: C_4  and  C_5
REMARK    5  A    between atoms: C_4  and  C_12
REMARK    6  A    between atoms: C_5  and  C_6
REMARK    7  A    between atoms: C_15  and  C_16
REMARK    8  A    between atoms: C_16  and  N_17
REMARK                            x       y       z     vdW  Elec       q    Type
REMARK                         _______ _______ _______ _____ _____    ______ ____
ROOT
ATOM      1  C   UNL     1      46.777   5.466  13.211  0.00  0.00    +0.000 A 
ATOM      2  C   UNL     1      46.199   6.376  12.316  0.00  0.00    +0.000 A 
ATOM      3  C   UNL     1      45.196   5.961  11.436  0.00  0.00    +0.000 A 
ATOM      4  C   UNL     1      44.758   4.630  11.431  0.00  0.00    +0.000 A 
ATOM      5  C   UNL     1      45.295   3.736  12.362  0.00  0.00    +0.000 A 
ATOM      6  C   UNL     1      46.257   4.165  13.272  0.00  0.00    +0.000 A 
ENDROOT
BRANCH   1   7
ATOM      7  C   UNL     1      48.032   5.854  13.983  0.00  0.00    +0.000 C 
BRANCH   7   8
ATOM      8  O   UNL     1      48.010   5.398  15.357  0.00  0.00    +0.000 OA
BRANCH   8  10
ATOM      9  C   UNL     1      48.450   6.000  17.676  0.00  0.00    +0.000 C 
ATOM     10  C   UNL     1      48.784   6.252  16.218  0.00  0.00    +0.000 C 
ENDBRANCH   8  10
ENDBRANCH   7   8
BRANCH   7  11
ATOM     11  C   UNL     1      48.435   7.350  13.873  0.00  0.00    +0.000 C 
BRANCH  11  12
ATOM     12  C   UNL     1      49.669   7.751  13.103  0.00  0.00    +0.000 A 
ATOM     13  C   UNL     1      49.776   7.463  11.733  0.00  0.00    +0.000 A 
ATOM     14  C   UNL     1      50.930   7.806  11.032  0.00  0.00    +0.000 A 
ATOM     15  C   UNL     1      51.956   8.423  11.724  0.00  0.00    +0.000 A 
ATOM     16  N   UNL     1      51.909   8.689  13.045  0.00  0.00    +0.000 NA
ATOM     17  C   UNL     1      50.772   8.347  13.700  0.00  0.00    +0.000 A 
ENDBRANCH  11  12
ENDBRANCH   7  11
ENDBRANCH   1   7
BRANCH   4  18
ATOM     18  C   UNL     1      43.714   4.159  10.450  0.00  0.00    +0.000 C 
BRANCH  18  19
ATOM     19  N   UNL     1      44.067   4.544   9.097  0.00  0.00    +0.000 N 
ATOM     20  C   UNL     1      44.988   3.670   8.530  0.00  0.00    +0.000 A 
ATOM     21  N   UNL     1      44.976   2.375   8.882  0.00  0.00    +0.000 NA
ATOM     22  C   UNL     1      45.914   1.577   8.347  0.00  0.00    +0.000 A 
ATOM     23  C   UNL     1      46.861   2.017   7.457  0.00  0.00    +0.000 A 
ATOM     24  C   UNL     1      46.785   3.353   7.151  0.00  0.00    +0.000 A 
ATOM     25  N   UNL     1      45.872   4.196   7.674  0.00  0.00    +0.000 NA
ATOM     26  H   UNL     1      44.444   5.479   8.990  0.00  0.00    +0.000 HD
ENDBRANCH  18  19
ENDBRANCH   4  18
TORSDOF 7
ENDMDL
MODEL 4
REMARK VINA RESULT:    -6.764      3.078      7.770
REMARK INTER + INTRA:         -10.342
REMARK INTER:                  -9.394
REMARK INTRA:                  -0.948
REMARK UNBOUND:                -0.811
REMARK  Name = 
REMARK  8 active torsions:
REMARK  status: ('A' for Active; 'I' for Inactive)
REMARK    1  A    between atoms: C_1  and  C_2
REMARK    2  A    between atoms: C_2  and  O_3
REMARK    3  A    between atoms: O_3  and  C_4
REMARK    4  A    between atoms: C_4  and  C_5
REMARK    5  A    between atoms: C_4  and  C_12
REMARK    6  A    between atoms: C_5  and  C_6
REMARK    7  A    between atoms: C_15  and  C_16
REMARK    8  A    between atoms: C_16  and  N_17
REMARK                            x       y       z     vdW  Elec       q    Type
REMARK                         _______ _______ _______ _____ _____    ______ ____
ROOT
ATOM      1  C   UNL     1      45.706   7.020  12.380  0.00  0.00    +0.000 A 
ATOM      2  C   UNL     1      44.576   6.319  12.825  0.00  0.00    +0.000 A 
ATOM      3  C   UNL     1      44.037   5.286  12.053  0.00  0.00    +0.000 A 
ATOM      4  C   UNL     1      44.610   4.941  10.823  0.00  0.00    +0.000 A 
ATOM      5  C   UNL     1      45.769   5.602  10.405  0.00  0.00    +0.000 A 
ATOM      6  C   UNL     1      46.335   6.595  11.200  0.00  0.00    +0.000 A 
ENDROOT
BRANCH   1   7
ATOM      7  C   UNL     1      46.135   8.297  13.090  0.00  0.00    +0.000 C 
BRANCH   7   8
ATOM      8  O   UNL     1      45.176   9.372  12.941  0.00  0.00    +0.000 OA
BRANCH   8  10
ATOM      9  C   UNL     1      44.102  10.110  10.882  0.00  0.00    +0.000 C 
ATOM     10  C   UNL     1      45.371  10.098  11.713  0.00  0.00    +0.000 C 
ENDBRANCH   8  10
ENDBRANCH   7   8
BRANCH   7  11
ATOM     11  C   UNL     1      47.584   8.765  12.784  0.00  0.00    +0.000 C 
BRANCH  11  12
ATOM     12  C   UNL     1      48.722   8.356  13.687  0.00  0.00    +0.000 A 
ATOM     13  C   UNL     1      49.814   9.215  13.886  0.00  0.00    +0.000 A 
ATOM     14  C   UNL     1      50.879   8.821  14.695  0.00  0.00    +0.000 A 
ATOM     15  C   UNL     1      50.827   7.569  15.279  0.00  0.00    +0.000 A 
ATOM     16  N   UNL     1      49.814   6.700  15.089  0.00  0.00    +0.000 NA
ATOM     17  C   UNL     1      48.790   7.111  14.300  0.00  0.00    +0.000 A 
ENDBRANCH  11  12
ENDBRANCH   7  11
ENDBRANCH   1   7
BRANCH   4  18
ATOM     18  C   UNL     1      44.004   3.865   9.958  0.00  0.00    +0.000 C 
BRANCH  18  19
ATOM     19  N   UNL     1      44.252   4.131   8.554  0.00  0.00    +0.000 N 
ATOM     20  C   UNL     1      45.262   3.324   8.042  0.00  0.00    +0.000 A 
ATOM     21  N   UNL     1      45.439   2.089   8.537  0.00  0.00    +0.000 NA
ATOM     22  C   UNL     1      46.456   1.362   8.047  0.00  0.00    +0.000 A 
ATOM     23  C   UNL     1      47.302   1.815   7.065  0.00  0.00    +0.000 A 
ATOM     24  C   UNL     1      47.035   3.084   6.615  0.00  0.00    +0.000 A 
ATOM     25  N   UNL     1      46.035   3.856   7.088  0.00  0.00    +0.000 NA
ATOM     26  H   UNL     1      44.495   5.087   8.324  0.00  0.00    +0.000 HD
ENDBRANCH  18  19
ENDBRANCH   4  18
TORSDOF 7
ENDMDL
MODEL 5
REMARK VINA RESULT:    -6.759      2.535      8.306
REMARK INTER + INTRA:         -10.335
REMARK INTER:                  -9.419
REMARK INTRA:                  -0.916
REMARK UNBOUND:                -0.811
REMARK  Name = 
REMARK  8 active torsions:
REMARK  status: ('A' for Active; 'I' for Inactive)
REMARK    1  A    between atoms: C_1  and  C_2
REMARK    2  A    between atoms: C_2  and  O_3
REMARK    3  A    between atoms: O_3  and  C_4
REMARK    4  A    between atoms: C_4  and  C_5
REMARK    5  A    between atoms: C_4  and  C_12
REMARK    6  A    between atoms: C_5  and  C_6
REMARK    7  A    between atoms: C_15  and  C_16
REMARK    8  A    between atoms: C_16  and  N_17
REMARK                            x       y       z     vdW  Elec       q    Type
REMARK                         _______ _______ _______ _____ _____    ______ ____
ROOT
ATOM      1  C   UNL     1      46.555   5.579  13.243  0.00  0.00    +0.000 A 
ATOM      2  C   UNL     1      46.267   6.354  12.111  0.00  0.00    +0.000 A 
ATOM      3  C   UNL     1      45.334   5.910  11.170  0.00  0.00    +0.000 A 
ATOM      4  C   UNL     1      44.678   4.684  11.339  0.00  0.00    +0.000 A 
ATOM      5  C   UNL     1      44.924   3.937  12.494  0.00  0.00    +0.000 A 
ATOM      6  C   UNL     1      45.815   4.406  13.456  0.00  0.00    +0.000 A 
ENDROOT
BRANCH   1   7
ATOM      7  C   UNL     1      47.743   5.937  14.126  0.00  0.00    +0.000 C 
BRANCH   7   8
ATOM      8  O   UNL     1      48.925   6.282  13.363  0.00  0.00    +0.000 OA
BRANCH   8  10
ATOM      9  C   UNL     1      48.675   8.705  13.356  0.00  0.00    +0.000 C 
ATOM     10  C   UNL     1      49.508   7.521  13.808  0.00  0.00    +0.000 C 
ENDBRANCH   8  10
ENDBRANCH   7   8
BRANCH   7  11
ATOM     11  C   UNL     1      48.056   4.916  15.254  0.00  0.00    +0.000 C 
BRANCH  11  12
ATOM     12  C   UNL     1      48.382   5.396  16.646  0.00  0.00    +0.000 A 
ATOM     13  C   UNL     1      49.590   6.065  16.901  0.00  0.00    +0.000 A 
ATOM     14  C   UNL     1      49.904   6.479  18.194  0.00  0.00    +0.000 A 
ATOM     15  C   UNL     1      49.001   6.204  19.205  0.00  0.00    +0.000 A 
ATOM     16  N   UNL     1      47.846   5.537  19.011  0.00  0.00    +0.000 NA
ATOM     17  C   UNL     1      47.566   5.149  17.742  0.00  0.00    +0.000 A 
ENDBRANCH  11  12
ENDBRANCH   7  11
ENDBRANCH   1   7
BRANCH   4  18
ATOM     18  C   UNL     1      43.710   4.171  10.303  0.00  0.00    +0.000 C 
BRANCH  18  19
ATOM     19  N   UNL     1      44.131   4.553   8.969  0.00  0.00    +0.000 N 
ATOM     20  C   UNL     1      45.064   3.666   8.443  0.00  0.00    +0.000 A 
ATOM     21  N   UNL     1      45.017   2.371   8.791  0.00  0.00    +0.000 NA
ATOM     22  C   UNL     1      45.966   1.559   8.298  0.00  0.00    +0.000 A 
ATOM     23  C   UNL     1      46.960   1.987   7.454  0.00  0.00    +0.000 A 
ATOM     24  C   UNL     1      46.919   3.325   7.148  0.00  0.00    +0.000 A 
ATOM     25  N   UNL     1      45.995   4.180   7.631  0.00  0.00    +0.000 NA
ATOM     26  H   UNL     1      44.527   5.482   8.883  0.00  0.00    +0.000 HD
ENDBRANCH  18  19
ENDBRANCH   4  18
TORSDOF 7
ENDMDL
MODEL 6
REMARK VINA RESULT:    -6.499      1.960      2.993
REMARK INTER + INTRA:          -9.969
REMARK INTER:                  -9.034
REMARK INTRA:                  -0.935
REMARK UNBOUND:                -0.811
REMARK  Name = 
REMARK  8 active torsions:
REMARK  status: ('A' for Active; 'I' for Inactive)
REMARK    1  A    between atoms: C_1  and  C_2
REMARK    2  A    between atoms: C_2  and  O_3
REMARK    3  A    between atoms: O_3  and  C_4
REMARK    4  A    between atoms: C_4  and  C_5
REMARK    5  A    between atoms: C_4  and  C_12
REMARK    6  A    between atoms: C_5  and  C_6
REMARK    7  A    between atoms: C_15  and  C_16
REMARK    8  A    between atoms: C_16  and  N_17
REMARK                            x       y       z     vdW  Elec       q    Type
REMARK                         _______ _______ _______ _____ _____    ______ ____
ROOT
ATOM      1  C   UNL     1      47.172   5.826  13.229  0.00  0.00    +0.000 A 
ATOM      2  C   UNL     1      48.093   6.567  13.982  0.00  0.00    +0.000 A 
ATOM      3  C   UNL     1      48.412   6.180  15.286  0.00  0.00    +0.000 A 
ATOM      4  C   UNL     1      47.814   5.052  15.862  0.00  0.00    +0.000 A 
ATOM      5  C   UNL     1      46.938   4.281  15.092  0.00  0.00    +0.000 A 
ATOM      6  C   UNL     1      46.661   4.639  13.776  0.00  0.00    +0.000 A 
ENDROOT
BRANCH   1   7
ATOM      7  C   UNL     1      46.639   6.387  11.916  0.00  0.00    +0.000 C 
BRANCH   7   8
ATOM      8  O   UNL     1      46.743   7.828  11.839  0.00  0.00    +0.000 OA
BRANCH   8  10
ATOM      9  C   UNL     1      45.492   9.919  11.896  0.00  0.00    +0.000 C 
ATOM     10  C   UNL     1      45.573   8.480  12.369  0.00  0.00    +0.000 C 
ENDBRANCH   8  10
ENDBRANCH   7   8
BRANCH   7  11
ATOM     11  C   UNL     1      45.226   5.883  11.512  0.00  0.00    +0.000 C 
BRANCH  11  12
ATOM     12  C   UNL     1      45.075   4.750  10.527  0.00  0.00    +0.000 A 
ATOM     13  C   UNL     1      45.476   4.912   9.192  0.00  0.00    +0.000 A 
ATOM     14  C   UNL     1      45.306   3.875   8.277  0.00  0.00    +0.000 A 
ATOM     15  C   UNL     1      44.728   2.700   8.721  0.00  0.00    +0.000 A 
ATOM     16  N   UNL     1      44.299   2.512   9.985  0.00  0.00    +0.000 NA
ATOM     17  C   UNL     1      44.481   3.538  10.854  0.00  0.00    +0.000 A 
ENDBRANCH  11  12
ENDBRANCH   7  11
ENDBRANCH   1   7
BRANCH   4  18
ATOM     18  C   UNL     1      48.112   4.657  17.287  0.00  0.00    +0.000 C 
BRANCH  18  19
ATOM     19  N   UNL     1      48.336   3.228  17.390  0.00  0.00    +0.000 N 
ATOM     20  C   UNL     1      49.682   2.923  17.562  0.00  0.00    +0.000 A 
ATOM     21  N   UNL     1      50.477   3.781  18.220  0.00  0.00    +0.000 NA
ATOM     22  C   UNL     1      51.779   3.470  18.321  0.00  0.00    +0.000 A 
ATOM     23  C   UNL     1      52.322   2.322  17.800  0.00  0.00    +0.000 A 
ATOM     24  C   UNL     1      51.429   1.504  17.154  0.00  0.00    +0.000 A 
ATOM     25  N   UNL     1      50.117   1.782  17.015  0.00  0.00    +0.000 NA
ATOM     26  H   UNL     1      48.006   2.674  16.608  0.00  0.00    +0.000 HD
ENDBRANCH  18  19
ENDBRANCH   4  18
TORSDOF 7
ENDMDL
MODEL 7
REMARK VINA RESULT:    -6.301      4.656      8.062
REMARK INTER + INTRA:          -9.691
REMARK INTER:                  -8.880
REMARK INTRA:                  -0.810
REMARK UNBOUND:                -0.811
REMARK  Name = 
REMARK  8 active torsions:
REMARK  status: ('A' for Active; 'I' for Inactive)
REMARK    1  A    between atoms: C_1  and  C_2
REMARK    2  A    between atoms: C_2  and  O_3
REMARK    3  A    between atoms: O_3  and  C_4
REMARK    4  A    between atoms: C_4  and  C_5
REMARK    5  A    between atoms: C_4  and  C_12
REMARK    6  A    between atoms: C_5  and  C_6
REMARK    7  A    between atoms: C_15  and  C_16
REMARK    8  A    between atoms: C_16  and  N_17
REMARK                            x       y       z     vdW  Elec       q    Type
REMARK                         _______ _______ _______ _____ _____    ______ ____
ROOT
ATOM      1  C   UNL     1      47.156   0.826   5.218  0.00  0.00    +0.000 A 
ATOM      2  C   UNL     1      46.978   2.172   4.869  0.00  0.00    +0.000 A 
ATOM      3  C   UNL     1      46.596   3.108   5.834  0.00  0.00    +0.000 A 
ATOM      4  C   UNL     1      46.380   2.716   7.161  0.00  0.00    +0.000 A 
ATOM      5  C   UNL     1      46.612   1.385   7.522  0.00  0.00    +0.000 A 
ATOM      6  C   UNL     1      47.042   0.466   6.570  0.00  0.00    +0.000 A 
ENDROOT
BRANCH   1   7
ATOM      7  C   UNL     1      47.321  -0.225   4.129  0.00  0.00    +0.000 C 
BRANCH   7   8
ATOM      8  O   UNL     1      47.250   0.333   2.795  0.00  0.00    +0.000 OA
BRANCH   8  10
ATOM      9  C   UNL     1      45.030   0.997   2.043  0.00  0.00    +0.000 C 
ATOM     10  C   UNL     1      46.072  -0.104   2.092  0.00  0.00    +0.000 C 
ENDBRANCH   8  10
ENDBRANCH   7   8
BRANCH   7  11
ATOM     11  C   UNL     1      46.417  -1.479   4.284  0.00  0.00    +0.000 C 
BRANCH  11  12
ATOM     12  C   UNL     1      46.968  -2.854   4.000  0.00  0.00    +0.000 A 
ATOM     13  C   UNL     1      46.772  -3.901   4.914  0.00  0.00    +0.000 A 
ATOM     14  C   UNL     1      47.310  -5.162   4.664  0.00  0.00    +0.000 A 
ATOM     15  C   UNL     1      48.041  -5.342   3.505  0.00  0.00    +0.000 A 
ATOM     16  N   UNL     1      48.282  -4.358   2.615  0.00  0.00    +0.000 NA
ATOM     17  C   UNL     1      47.743  -3.142   2.883  0.00  0.00    +0.000 A 
ENDBRANCH  11  12
ENDBRANCH   7  11
ENDBRANCH   1   7
BRANCH   4  18
ATOM     18  C   UNL     1      45.916   3.708   8.199  0.00  0.00    +0.000 C 
BRANCH  18  19
ATOM     19  N   UNL     1      44.582   3.381   8.665  0.00  0.00    +0.000 N 
ATOM     20  C   UNL     1      44.431   3.630  10.024  0.00  0.00    +0.000 A 
ATOM     21  N   UNL     1      45.120   4.630  10.596  0.00  0.00    +0.000 NA
ATOM     22  C   UNL     1      44.980   4.805  11.920  0.00  0.00    +0.000 A 
ATOM     23  C   UNL     1      44.163   4.026  12.701  0.00  0.00    +0.000 A 
ATOM     24  C   UNL     1      43.492   3.037  12.025  0.00  0.00    +0.000 A 
ATOM     25  N   UNL     1      43.613   2.815  10.700  0.00  0.00    +0.000 NA
ATOM     26  H   UNL     1      44.283   2.425   8.506  0.00  0.00    +0.000 HD
ENDBRANCH  18  19
ENDBRANCH   4  18
TORSDOF 7
ENDMDL
MODEL 8
REMARK VINA RESULT:    -6.116      2.988      4.115
REMARK INTER + INTRA:          -9.430
REMARK INTER:                  -8.441
REMARK INTRA:                  -0.989
REMARK UNBOUND:                -0.811
REMARK  Name = 
REMARK  8 active torsions:
REMARK  status: ('A' for Active; 'I' for Inactive)
REMARK    1  A    between atoms: C_1  and  C_2
REMARK    2  A    between atoms: C_2  and  O_3
REMARK    3  A    between atoms: O_3  and  C_4
REMARK    4  A    between atoms: C_4  and  C_5
REMARK    5  A    between atoms: C_4  and  C_12
REMARK    6  A    between atoms: C_5  and  C_6
REMARK    7  A    between atoms: C_15  and  C_16
REMARK    8  A    between atoms: C_16  and  N_17
REMARK                            x       y       z     vdW  Elec       q    Type
REMARK                         _______ _______ _______ _____ _____    ______ ____
ROOT
ATOM      1  C   UNL     1      47.253   5.734  13.395  0.00  0.00    +0.000 A 
ATOM      2  C   UNL     1      48.115   6.520  14.173  0.00  0.00    +0.000 A 
ATOM      3  C   UNL     1      48.396   6.162  15.494  0.00  0.00    +0.000 A 
ATOM      4  C   UNL     1      47.819   5.019  16.063  0.00  0.00    +0.000 A 
ATOM      5  C   UNL     1      47.005   4.205  15.270  0.00  0.00    +0.000 A 
ATOM      6  C   UNL     1      46.767   4.535  13.939  0.00  0.00    +0.000 A 
ENDROOT
BRANCH   1   7
ATOM      7  C   UNL     1      46.752   6.256  12.055  0.00  0.00    +0.000 C 
BRANCH   7   8
ATOM      8  O   UNL     1      46.952   7.682  11.898  0.00  0.00    +0.000 OA
BRANCH   8  10
ATOM      9  C   UNL     1      45.975   9.912  11.976  0.00  0.00    +0.000 C 
ATOM     10  C   UNL     1      45.730   8.419  12.082  0.00  0.00    +0.000 C 
ENDBRANCH   8  10
ENDBRANCH   7   8
BRANCH   7  11
ATOM     11  C   UNL     1      45.306   5.828  11.682  0.00  0.00    +0.000 C 
BRANCH  11  12
ATOM     12  C   UNL     1      45.073   4.771  10.631  0.00  0.00    +0.000 A 
ATOM     13  C   UNL     1      45.539   4.958   9.320  0.00  0.00    +0.000 A 
ATOM     14  C   UNL     1      45.295   3.994   8.344  0.00  0.00    +0.000 A 
ATOM     15  C   UNL     1      44.579   2.868   8.703  0.00  0.00    +0.000 A 
ATOM     16  N   UNL     1      44.085   2.662   9.941  0.00  0.00    +0.000 NA
ATOM     17  C   UNL     1      44.342   3.615  10.871  0.00  0.00    +0.000 A 
ENDBRANCH  11  12
ENDBRANCH   7  11
ENDBRANCH   1   7
BRANCH   4  18
ATOM     18  C   UNL     1      48.074   4.654  17.504  0.00  0.00    +0.000 C 
BRANCH  18  19
ATOM     19  N   UNL     1      47.040   5.196  18.364  0.00  0.00    +0.000 N 
ATOM     20  C   UNL     1      47.565   6.030  19.346  0.00  0.00    +0.000 A 
ATOM     21  N   UNL     1      48.671   6.744  19.087  0.00  0.00    +0.000 NA
ATOM     22  C   UNL     1      49.170   7.499  20.079  0.00  0.00    +0.000 A 
ATOM     23  C   UNL     1      48.598   7.582  21.324  0.00  0.00    +0.000 A 
ATOM     24  C   UNL     1      47.465   6.825  21.488  0.00  0.00    +0.000 A 
ATOM     25  N   UNL     1      46.936   6.041  20.527  0.00  0.00    +0.000 NA
ATOM     26  H   UNL     1      46.460   4.513  18.837  0.00  0.00    +0.000 HD
ENDBRANCH  18  19
ENDBRANCH   4  18
TORSDOF 7
ENDMDL
MODEL 9
REMARK VINA RESULT:    -5.986      3.868      8.802
REMARK INTER + INTRA:          -9.247
REMARK INTER:                  -8.281
REMARK INTRA:                  -0.966
REMARK UNBOUND:                -0.811
REMARK  Name = 
REMARK  8 active torsions:
REMARK  status: ('A' for Active; 'I' for Inactive)
REMARK    1  A    between atoms: C_1  and  C_2
REMARK    2  A    between atoms: C_2  and  O_3
REMARK    3  A    between atoms: O_3  and  C_4
REMARK    4  A    between atoms: C_4  and  C_5
REMARK    5  A    between atoms: C_4  and  C_12
REMARK    6  A    between atoms: C_5  and  C_6
REMARK    7  A    between atoms: C_15  and  C_16
REMARK    8  A    between atoms: C_16  and  N_17
REMARK                            x       y       z     vdW  Elec       q    Type
REMARK                         _______ _______ _______ _____ _____    ______ ____
ROOT
ATOM      1  C   UNL     1      48.958   5.582  17.117  0.00  0.00    +0.000 A 
ATOM      2  C   UNL     1      49.290   6.602  16.213  0.00  0.00    +0.000 A 
ATOM      3  C   UNL     1      48.661   6.672  14.967  0.00  0.00    +0.000 A 
ATOM      4  C   UNL     1      47.697   5.725  14.600  0.00  0.00    +0.000 A 
ATOM      5  C   UNL     1      47.326   4.742  15.522  0.00  0.00    +0.000 A 
ATOM      6  C   UNL     1      47.916   4.705  16.782  0.00  0.00    +0.000 A 
ENDROOT
BRANCH   1   7
ATOM      7  C   UNL     1      49.815   5.358  18.356  0.00  0.00    +0.000 C 
BRANCH   7   8
ATOM      8  O   UNL     1      49.726   6.448  19.305  0.00  0.00    +0.000 OA
BRANCH   8  10
ATOM      9  C   UNL     1      48.753   4.582  20.532  0.00  0.00    +0.000 C 
ATOM     10  C   UNL     1      49.296   5.997  20.602  0.00  0.00    +0.000 C 
ENDBRANCH   8  10
ENDBRANCH   7   8
BRANCH   7  11
ATOM     11  C   UNL     1      51.288   4.953  18.072  0.00  0.00    +0.000 C 
BRANCH  11  12
ATOM     12  C   UNL     1      51.659   3.500  17.910  0.00  0.00    +0.000 A 
ATOM     13  C   UNL     1      52.967   3.068  18.178  0.00  0.00    +0.000 A 
ATOM     14  C   UNL     1      53.316   1.731  17.997  0.00  0.00    +0.000 A 
ATOM     15  C   UNL     1      52.345   0.859  17.540  0.00  0.00    +0.000 A 
ATOM     16  N   UNL     1      51.086   1.237  17.238  0.00  0.00    +0.000 NA
ATOM     17  C   UNL     1      50.775   2.543  17.428  0.00  0.00    +0.000 A 
ENDBRANCH  11  12
ENDBRANCH   7  11
ENDBRANCH   1   7
BRANCH   4  18
ATOM     18  C   UNL     1      47.052   5.761  13.237  0.00  0.00    +0.000 C 
BRANCH  18  19
ATOM     19  N   UNL     1      45.663   6.167  13.334  0.00  0.00    +0.000 N 
ATOM     20  C   UNL     1      44.807   5.232  12.761  0.00  0.00    +0.000 A 
ATOM     21  N   UNL     1      45.134   3.931  12.785  0.00  0.00    +0.000 NA
ATOM     22  C   UNL     1      44.302   3.069  12.179  0.00  0.00    +0.000 A 
ATOM     23  C   UNL     1      43.142   3.453  11.556  0.00  0.00    +0.000 A 
ATOM     24  C   UNL     1      42.888   4.802  11.592  0.00  0.00    +0.000 A 
ATOM     25  N   UNL     1      43.701   5.706  12.176  0.00  0.00    +0.000 NA
ATOM     26  H   UNL     1      45.438   7.064  12.920  0.00  0.00    +0.000 HD
ENDBRANCH  18  19
ENDBRANCH   4  18
TORSDOF 7
ENDMDL
