MODEL 1
REMARK VINA RESULT:    -8.315      0.000      0.000
REMARK INTER + INTRA:         -12.702
REMARK INTER:                 -11.718
REMARK INTRA:                  -0.984
REMARK UNBOUND:                -0.984
REMARK  Name = 
REMARK  9 active torsions:
REMARK  status: ('A' for Active; 'I' for Inactive)
REMARK    1  A    between atoms: C_1  and  C_2
REMARK    2  A    between atoms: C_6  and  C_7
REMARK    3  A    between atoms: C_7  and  C_8
REMARK    4  A    between atoms: C_7  and  N_9
REMARK    5  A    between atoms: N_9  and  C_10
REMARK    6  A    between atoms: C_10  and  C_11
REMARK    7  A    between atoms: C_14  and  C_15
REMARK    8  A    between atoms: C_15  and  N_16
REMARK    9  A    between atoms: C_17  and  C_19
REMARK                            x       y       z     vdW  Elec       q    Type
REMARK                         _______ _______ _______ _____ _____    ______ ____
ROOT
ATOM      1  C   UNL     1      46.371   4.689  13.333  0.00  0.00    +0.000 A 
ATOM      2  C   UNL     1      46.872   5.910  12.886  0.00  0.00    +0.000 A 
ATOM      3  C   UNL     1      47.735   6.631  13.710  0.00  0.00    +0.000 A 
ATOM      4  C   UNL     1      48.062   6.138  14.974  0.00  0.00    +0.000 A 
ATOM      5  C   UNL     1      47.524   4.909  15.334  0.00  0.00    +0.000 A 
ATOM      6  N   UNL     1      46.687   4.185  14.554  0.00  0.00    +0.000 NA
ENDROOT
BRANCH   1   7
ATOM      7  C   UNL     1      45.410   3.887  12.470  0.00  0.00    +0.000 C 
BRANCH   7   8
ATOM      8  N   UNL     1      44.970   4.608  11.267  0.00  0.00    +0.000 NA
ATOM      9  H   UNL     1      44.354   5.372  11.539  0.00  0.00    +0.000 HD
BRANCH   8  10
ATOM     10  C   UNL     1      44.243   3.762  10.309  0.00  0.00    +0.000 C 
ATOM     11  C   UNL     1      43.644   2.505  10.953  0.00  0.00    +0.000 C 
BRANCH  10  17
ATOM     12  C   UNL     1      46.687   0.189   7.689  0.00  0.00    +0.000 C 
ATOM     13  C   UNL     1      46.362   1.637   7.906  0.00  0.00    +0.000 A 
ATOM     14  C   UNL     1      46.942   2.628   7.106  0.00  0.00    +0.000 A 
ATOM     15  C   UNL     1      46.640   3.971   7.321  0.00  0.00    +0.000 A 
ATOM     16  C   UNL     1      45.761   4.336   8.340  0.00  0.00    +0.000 A 
ATOM     17  C   UNL     1      45.174   3.365   9.167  0.00  0.00    +0.000 A 
ATOM     18  C   UNL     1      45.477   2.013   8.928  0.00  0.00    +0.000 A 
ENDBRANCH  10  17
ENDBRANCH   8  10
ENDBRANCH   7   8
ENDBRANCH   1   7
BRANCH   4  19
ATOM     19  C   UNL     1      48.986   6.883  15.889  0.00  0.00    +0.000 C 
BRANCH  19  20
ATOM     20  N   UNL     1      50.060   6.041  16.348  0.00  0.00    +0.000 N 
ATOM     21  C   UNL     1      50.078   5.545  17.625  0.00  0.00    +0.000 C 
ATOM     22  O   UNL     1      49.165   5.762  18.418  0.00  0.00    +0.000 OA
ATOM     23  H   UNL     1      50.918   6.043  15.803  0.00  0.00    +0.000 HD
BRANCH  21  24
ATOM     24  C   UNL     1      51.214   4.686  17.979  0.00  0.00    +0.000 A 
ATOM     25  C   UNL     1      52.327   5.241  18.599  0.00  0.00    +0.000 A 
ATOM     26  S   UNL     1      53.532   4.100  18.991  0.00  0.00    +0.000 S 
ATOM     27  C   UNL     1      52.632   2.833  18.300  0.00  0.00    +0.000 A 
ATOM     28  N   UNL     1      53.120   1.562  18.276  0.00  0.00    +0.000 NA
ATOM     29  C   UNL     1      52.345   0.706  17.699  0.00  0.00    +0.000 A 
ATOM     30  N   UNL     1      51.128   1.001  17.146  0.00  0.00    +0.000 N 
ATOM     31  C   UNL     1      50.584   2.265  17.167  0.00  0.00    +0.000 A 
ATOM     32  O   UNL     1      49.476   2.490  16.693  0.00  0.00    +0.000 OA
ATOM     33  C   UNL     1      51.421   3.269  17.796  0.00  0.00    +0.000 A 
ATOM     34  H   UNL     1      50.564   0.282  16.717  0.00  0.00    +0.000 HD
ENDBRANCH  21  24
ENDBRANCH  19  20
ENDBRANCH   4  19
TORSDOF 7
ENDMDL
MODEL 2
REMARK VINA RESULT:    -8.173      2.615      3.146
REMARK INTER + INTRA:         -12.502
REMARK INTER:                 -11.526
REMARK INTRA:                  -0.977
REMARK UNBOUND:                -0.984
REMARK  Name = 
REMARK  9 active torsions:
REMARK  status: ('A' for Active; 'I' for Inactive)
REMARK    1  A    between atoms: C_1  and  C_2
REMARK    2  A    between atoms: C_6  and  C_7
REMARK    3  A    between atoms: C_7  and  C_8
REMARK    4  A    between atoms: C_7  and  N_9
REMARK    5  A    between atoms: N_9  and  C_10
REMARK    6  A    between atoms: C_10  and  C_11
REMARK    7  A    between atoms: C_14  and  C_15
REMARK    8  A    between atoms: C_15  and  N_16
REMARK    9  A    between atoms: C_17  and  C_19
REMARK                            x       y       z     vdW  Elec       q    Type
REMARK                         _______ _______ _______ _____ _____    ______ ____
ROOT
ATOM      1  C   UNL     1      45.088   5.698  12.008  0.00  0.00    +0.000 A 
ATOM      2  C   UNL     1      45.996   6.533  11.362  0.00  0.00    +0.000 A 
ATOM      3  C   UNL     1      47.190   6.862  12.004  0.00  0.00    +0.000 A 
ATOM      4  C   UNL     1      47.445   6.377  13.288  0.00  0.00    +0.000 A 
ATOM      5  C   UNL     1      46.488   5.543  13.852  0.00  0.00    +0.000 A 
ATOM      6  N   UNL     1      45.323   5.203  13.252  0.00  0.00    +0.000 NA
ENDROOT
BRANCH   1   7
ATOM      7  C   UNL     1      43.768   5.336  11.347  0.00  0.00    +0.000 C 
BRANCH   7   8
ATOM      8  N   UNL     1      43.908   4.975   9.929  0.00  0.00    +0.000 NA
ATOM      9  H   UNL     1      43.141   5.385   9.400  0.00  0.00    +0.000 HD
BRANCH   8  10
ATOM     10  C   UNL     1      43.896   3.524   9.690  0.00  0.00    +0.000 C 
ATOM     11  C   UNL     1      43.990   2.701  10.981  0.00  0.00    +0.000 C 
BRANCH  10  17
ATOM     12  C   UNL     1      46.929   0.018   7.661  0.00  0.00    +0.000 C 
ATOM     13  C   UNL     1      46.514   1.455   7.780  0.00  0.00    +0.000 A 
ATOM     14  C   UNL     1      47.196   2.457   7.083  0.00  0.00    +0.000 A 
ATOM     15  C   UNL     1      46.809   3.790   7.207  0.00  0.00    +0.000 A 
ATOM     16  C   UNL     1      45.738   4.133   8.033  0.00  0.00    +0.000 A 
ATOM     17  C   UNL     1      45.042   3.150   8.754  0.00  0.00    +0.000 A 
ATOM     18  C   UNL     1      45.436   1.809   8.607  0.00  0.00    +0.000 A 
ENDBRANCH  10  17
ENDBRANCH   8  10
ENDBRANCH   7   8
ENDBRANCH   1   7
BRANCH   4  19
ATOM     19  C   UNL     1      48.716   6.707  14.010  0.00  0.00    +0.000 C 
BRANCH  19  20
ATOM     20  N   UNL     1      48.484   6.895  15.419  0.00  0.00    +0.000 N 
ATOM     21  C   UNL     1      49.466   6.641  16.340  0.00  0.00    +0.000 C 
ATOM     22  O   UNL     1      50.593   6.281  16.006  0.00  0.00    +0.000 OA
ATOM     23  H   UNL     1      47.519   6.961  15.727  0.00  0.00    +0.000 HD
BRANCH  21  24
ATOM     24  C   UNL     1      49.124   6.881  17.747  0.00  0.00    +0.000 A 
ATOM     25  C   UNL     1      48.986   8.185  18.207  0.00  0.00    +0.000 A 
ATOM     26  S   UNL     1      48.534   8.287  19.848  0.00  0.00    +0.000 S 
ATOM     27  C   UNL     1      48.556   6.594  20.015  0.00  0.00    +0.000 A 
ATOM     28  N   UNL     1      48.279   6.007  21.211  0.00  0.00    +0.000 NA
ATOM     29  C   UNL     1      48.357   4.719  21.202  0.00  0.00    +0.000 A 
ATOM     30  N   UNL     1      48.683   3.963  20.107  0.00  0.00    +0.000 N 
ATOM     31  C   UNL     1      48.946   4.511  18.873  0.00  0.00    +0.000 A 
ATOM     32  O   UNL     1      49.202   3.804  17.903  0.00  0.00    +0.000 OA
ATOM     33  C   UNL     1      48.883   5.959  18.831  0.00  0.00    +0.000 A 
ATOM     34  H   UNL     1      48.717   2.956  20.163  0.00  0.00    +0.000 HD
ENDBRANCH  21  24
ENDBRANCH  19  20
ENDBRANCH   4  19
TORSDOF 7
ENDMDL
MODEL 3
REMARK VINA RESULT:    -8.114      2.620      3.038
REMARK INTER + INTRA:         -12.418
REMARK INTER:                 -11.266
REMARK INTRA:                  -1.153
REMARK UNBOUND:                -0.984
REMARK  Name = 
REMARK  9 active torsions:
REMARK  status: ('A' for Active; 'I' for Inactive)
REMARK    1  A    between atoms: C_1  and  C_2
REMARK    2  A    between atoms: C_6  and  C_7
REMARK    3  A    between atoms: C_7  and  C_8
REMARK    4  A    between atoms: C_7  and  N_9
REMARK    5  A    between atoms: N_9  and  C_10
REMARK    6  A    between atoms: C_10  and  C_11
REMARK    7  A    between atoms: C_14  and  C_15
REMARK    8  A    between atoms: C_15  and  N_16
REMARK    9  A    between atoms: C_17  and  C_19
REMARK                            x       y       z     vdW  Elec       q    Type
REMARK                         _______ _______ _______ _____ _____    ______ ____
ROOT
ATOM      1  C   UNL     1      44.931   6.295  11.515  0.00  0.00    +0.000 A 
ATOM      2  C   UNL     1      46.245   5.837  11.593  0.00  0.00    +0.000 A 
ATOM      3  C   UNL     1      47.177   6.576  12.321  0.00  0.00    +0.000 A 
ATOM      4  C   UNL     1      46.792   7.769  12.934  0.00  0.00    +0.000 A 
ATOM      5  C   UNL     1      45.460   8.144  12.812  0.00  0.00    +0.000 A 
ATOM      6  N   UNL     1      44.533   7.446  12.116  0.00  0.00    +0.000 NA
ENDROOT
BRANCH   1   7
ATOM      7  C   UNL     1      43.894   5.526  10.712  0.00  0.00    +0.000 C 
BRANCH   7   8
ATOM      8  N   UNL     1      44.424   4.973   9.457  0.00  0.00    +0.000 NA
ATOM      9  H   UNL     1      43.950   5.412   8.670  0.00  0.00    +0.000 HD
BRANCH   8  10
ATOM     10  C   UNL     1      44.245   3.519   9.336  0.00  0.00    +0.000 C 
ATOM     11  C   UNL     1      44.213   2.803  10.692  0.00  0.00    +0.000 C 
BRANCH  10  17
ATOM     12  C   UNL     1      46.874  -0.475   7.679  0.00  0.00    +0.000 C 
ATOM     13  C   UNL     1      46.636   1.006   7.677  0.00  0.00    +0.000 A 
ATOM     14  C   UNL     1      47.454   1.861   6.932  0.00  0.00    +0.000 A 
ATOM     15  C   UNL     1      47.231   3.237   6.943  0.00  0.00    +0.000 A 
ATOM     16  C   UNL     1      46.190   3.770   7.703  0.00  0.00    +0.000 A 
ATOM     17  C   UNL     1      45.360   2.937   8.471  0.00  0.00    +0.000 A 
ATOM     18  C   UNL     1      45.589   1.551   8.438  0.00  0.00    +0.000 A 
ENDBRANCH  10  17
ENDBRANCH   8  10
ENDBRANCH   7   8
ENDBRANCH   1   7
BRANCH   4  19
ATOM     19  C   UNL     1      47.765   8.591  13.726  0.00  0.00    +0.000 C 
BRANCH  19  20
ATOM     20  N   UNL     1      47.986   8.027  15.032  0.00  0.00    +0.000 N 
ATOM     21  C   UNL     1      49.056   7.207  15.279  0.00  0.00    +0.000 C 
ATOM     22  O   UNL     1      49.890   6.949  14.414  0.00  0.00    +0.000 OA
ATOM     23  H   UNL     1      47.204   8.033  15.680  0.00  0.00    +0.000 HD
BRANCH  21  24
ATOM     24  C   UNL     1      49.191   6.701  16.650  0.00  0.00    +0.000 A 
ATOM     25  C   UNL     1      49.792   7.494  17.619  0.00  0.00    +0.000 A 
ATOM     26  S   UNL     1      49.821   6.780  19.167  0.00  0.00    +0.000 S 
ATOM     27  C   UNL     1      49.077   5.365  18.587  0.00  0.00    +0.000 A 
ATOM     28  N   UNL     1      48.831   4.314  19.416  0.00  0.00    +0.000 NA
ATOM     29  C   UNL     1      48.287   3.296  18.839  0.00  0.00    +0.000 A 
ATOM     30  N   UNL     1      47.964   3.231  17.510  0.00  0.00    +0.000 N 
ATOM     31  C   UNL     1      48.172   4.276  16.639  0.00  0.00    +0.000 A 
ATOM     32  O   UNL     1      47.840   4.199  15.461  0.00  0.00    +0.000 OA
ATOM     33  C   UNL     1      48.792   5.443  17.236  0.00  0.00    +0.000 A 
ATOM     34  H   UNL     1      47.530   2.408  17.121  0.00  0.00    +0.000 HD
ENDBRANCH  21  24
ENDBRANCH  19  20
ENDBRANCH   4  19
TORSDOF 7
ENDMDL
MODEL 4
REMARK VINA RESULT:    -7.762      4.091      8.725
REMARK INTER + INTRA:         -11.923
REMARK INTER:                 -10.154
REMARK INTRA:                  -1.769
REMARK UNBOUND:                -0.984
REMARK  Name = 
REMARK  9 active torsions:
REMARK  status: ('A' for Active; 'I' for Inactive)
REMARK    1  A    between atoms: C_1  and  C_2
REMARK    2  A    between atoms: C_6  and  C_7
REMARK    3  A    between atoms: C_7  and  C_8
REMARK    4  A    between atoms: C_7  and  N_9
REMARK    5  A    between atoms: N_9  and  C_10
REMARK    6  A    between atoms: C_10  and  C_11
REMARK    7  A    between atoms: C_14  and  C_15
REMARK    8  A    between atoms: C_15  and  N_16
REMARK    9  A    between atoms: C_17  and  C_19
REMARK                            x       y       z     vdW  Elec       q    Type
REMARK                         _______ _______ _______ _____ _____    ______ ____
ROOT
ATOM      1  C   UNL     1      48.587   8.003  16.246  0.00  0.00    +0.000 A 
ATOM      2  C   UNL     1      48.879   6.837  15.542  0.00  0.00    +0.000 A 
ATOM      3  C   UNL     1      48.820   6.854  14.149  0.00  0.00    +0.000 A 
ATOM      4  C   UNL     1      48.445   8.021  13.483  0.00  0.00    +0.000 A 
ATOM      5  C   UNL     1      48.180   9.140  14.264  0.00  0.00    +0.000 A 
ATOM      6  N   UNL     1      48.233   9.154  15.616  0.00  0.00    +0.000 NA
ENDROOT
BRANCH   1   7
ATOM      7  C   UNL     1      48.620   8.016  17.765  0.00  0.00    +0.000 C 
BRANCH   7   8
ATOM      8  N   UNL     1      47.563   7.197  18.376  0.00  0.00    +0.000 NA
ATOM      9  H   UNL     1      46.966   7.790  18.950  0.00  0.00    +0.000 HD
BRANCH   8  10
ATOM     10  C   UNL     1      48.078   6.117  19.230  0.00  0.00    +0.000 C 
ATOM     11  C   UNL     1      49.386   6.486  19.942  0.00  0.00    +0.000 C 
BRANCH  10  17
ATOM     12  C   UNL     1      51.124   2.500  17.428  0.00  0.00    +0.000 C 
ATOM     13  C   UNL     1      49.757   3.113  17.516  0.00  0.00    +0.000 A 
ATOM     14  C   UNL     1      48.683   2.571  16.803  0.00  0.00    +0.000 A 
ATOM     15  C   UNL     1      47.419   3.153  16.885  0.00  0.00    +0.000 A 
ATOM     16  C   UNL     1      47.219   4.283  17.677  0.00  0.00    +0.000 A 
ATOM     17  C   UNL     1      48.282   4.856  18.394  0.00  0.00    +0.000 A 
ATOM     18  C   UNL     1      49.547   4.250  18.313  0.00  0.00    +0.000 A 
ENDBRANCH  10  17
ENDBRANCH   8  10
ENDBRANCH   7   8
ENDBRANCH   1   7
BRANCH   4  19
ATOM     19  C   UNL     1      48.370   8.079  11.987  0.00  0.00    +0.000 C 
BRANCH  19  20
ATOM     20  N   UNL     1      47.645   6.956  11.454  0.00  0.00    +0.000 N 
ATOM     21  C   UNL     1      46.276   6.963  11.383  0.00  0.00    +0.000 C 
ATOM     22  O   UNL     1      45.613   7.938  11.732  0.00  0.00    +0.000 OA
ATOM     23  H   UNL     1      48.142   6.073  11.383  0.00  0.00    +0.000 HD
BRANCH  21  24
ATOM     24  C   UNL     1      45.643   5.770  10.809  0.00  0.00    +0.000 A 
ATOM     25  C   UNL     1      45.775   5.509   9.451  0.00  0.00    +0.000 A 
ATOM     26  S   UNL     1      45.026   4.059   8.958  0.00  0.00    +0.000 S 
ATOM     27  C   UNL     1      44.456   3.755  10.531  0.00  0.00    +0.000 A 
ATOM     28  N   UNL     1      43.699   2.656  10.799  0.00  0.00    +0.000 NA
ATOM     29  C   UNL     1      43.312   2.563  12.027  0.00  0.00    +0.000 A 
ATOM     30  N   UNL     1      43.615   3.465  13.013  0.00  0.00    +0.000 N 
ATOM     31  C   UNL     1      44.395   4.576  12.794  0.00  0.00    +0.000 A 
ATOM     32  O   UNL     1      44.676   5.348  13.705  0.00  0.00    +0.000 OA
ATOM     33  C   UNL     1      44.848   4.734  11.425  0.00  0.00    +0.000 A 
ATOM     34  H   UNL     1      43.289   3.329  13.958  0.00  0.00    +0.000 HD
ENDBRANCH  21  24
ENDBRANCH  19  20
ENDBRANCH   4  19
TORSDOF 7
ENDMDL
MODEL 5
REMARK VINA RESULT:    -7.762      3.940      8.932
REMARK INTER + INTRA:         -11.922
REMARK INTER:                 -10.061
REMARK INTRA:                  -1.861
REMARK UNBOUND:                -0.984
REMARK  Name = 
REMARK  9 active torsions:
REMARK  status: ('A' for Active; 'I' for Inactive)
REMARK    1  A    between atoms: C_1  and  C_2
REMARK    2  A    between atoms: C_6  and  C_7
REMARK    3  A    between atoms: C_7  and  C_8
REMARK    4  A    between atoms: C_7  and  N_9
REMARK    5  A    between atoms: N_9  and  C_10
REMARK    6  A    between atoms: C_10  and  C_11
REMARK    7  A    between atoms: C_14  and  C_15
REMARK    8  A    between atoms: C_15  and  N_16
REMARK    9  A    between atoms: C_17  and  C_19
REMARK                            x       y       z     vdW  Elec       q    Type
REMARK                         _______ _______ _______ _____ _____    ______ ____
ROOT
ATOM      1  C   UNL     1      48.981   8.116  16.217  0.00  0.00    +0.000 A 
ATOM      2  C   UNL     1      49.518   7.075  15.464  0.00  0.00    +0.000 A 
ATOM      3  C   UNL     1      49.147   6.944  14.126  0.00  0.00    +0.000 A 
ATOM      4  C   UNL     1      48.226   7.834  13.571  0.00  0.00    +0.000 A 
ATOM      5  C   UNL     1      47.748   8.848  14.393  0.00  0.00    +0.000 A 
ATOM      6  N   UNL     1      48.094   9.001  15.692  0.00  0.00    +0.000 NA
ENDROOT
BRANCH   1   7
ATOM      7  C   UNL     1      49.347   8.275  17.684  0.00  0.00    +0.000 C 
BRANCH   7   8
ATOM      8  N   UNL     1      48.467   7.520  18.588  0.00  0.00    +0.000 NA
ATOM      9  H   UNL     1      48.152   8.131  19.339  0.00  0.00    +0.000 HD
BRANCH   8  10
ATOM     10  C   UNL     1      49.118   6.353  19.200  0.00  0.00    +0.000 C 
ATOM     11  C   UNL     1      50.642   6.498  19.299  0.00  0.00    +0.000 C 
BRANCH  10  17
ATOM     12  C   UNL     1      50.513   1.958  17.114  0.00  0.00    +0.000 C 
ATOM     13  C   UNL     1      49.446   2.976  17.390  0.00  0.00    +0.000 A 
ATOM     14  C   UNL     1      48.152   2.811  16.887  0.00  0.00    +0.000 A 
ATOM     15  C   UNL     1      47.170   3.767  17.142  0.00  0.00    +0.000 A 
ATOM     16  C   UNL     1      47.475   4.898  17.898  0.00  0.00    +0.000 A 
ATOM     17  C   UNL     1      48.769   5.097  18.406  0.00  0.00    +0.000 A 
ATOM     18  C   UNL     1      49.744   4.117  18.152  0.00  0.00    +0.000 A 
ENDBRANCH  10  17
ENDBRANCH   8  10
ENDBRANCH   7   8
ENDBRANCH   1   7
BRANCH   4  19
ATOM     19  C   UNL     1      47.802   7.728  12.137  0.00  0.00    +0.000 C 
BRANCH  19  20
ATOM     20  N   UNL     1      47.067   6.513  11.897  0.00  0.00    +0.000 N 
ATOM     21  C   UNL     1      45.703   6.471  12.020  0.00  0.00    +0.000 C 
ATOM     22  O   UNL     1      45.046   7.471  12.301  0.00  0.00    +0.000 OA
ATOM     23  H   UNL     1      47.593   5.644  11.897  0.00  0.00    +0.000 HD
BRANCH  21  24
ATOM     24  C   UNL     1      45.058   5.184  11.737  0.00  0.00    +0.000 A 
ATOM     25  C   UNL     1      44.370   4.524  12.747  0.00  0.00    +0.000 A 
ATOM     26  S   UNL     1      43.636   3.071  12.239  0.00  0.00    +0.000 S 
ATOM     27  C   UNL     1      44.254   3.247  10.664  0.00  0.00    +0.000 A 
ATOM     28  N   UNL     1      44.012   2.307   9.710  0.00  0.00    +0.000 NA
ATOM     29  C   UNL     1      44.561   2.553   8.569  0.00  0.00    +0.000 A 
ATOM     30  N   UNL     1      45.328   3.654   8.291  0.00  0.00    +0.000 N 
ATOM     31  C   UNL     1      45.579   4.642   9.216  0.00  0.00    +0.000 A 
ATOM     32  O   UNL     1      46.241   5.632   8.927  0.00  0.00    +0.000 OA
ATOM     33  C   UNL     1      44.992   4.408  10.522  0.00  0.00    +0.000 A 
ATOM     34  H   UNL     1      45.722   3.795   7.373  0.00  0.00    +0.000 HD
ENDBRANCH  21  24
ENDBRANCH  19  20
ENDBRANCH   4  19
TORSDOF 7
ENDMDL
MODEL 6
REMARK VINA RESULT:    -7.539      3.254      4.371
REMARK INTER + INTRA:         -11.608
REMARK INTER:                 -10.579
REMARK INTRA:                  -1.029
REMARK UNBOUND:                -0.984
REMARK  Name = 
REMARK  9 active torsions:
REMARK  status: ('A' for Active; 'I' for Inactive)
REMARK    1  A    between atoms: C_1  and  C_2
REMARK    2  A    between atoms: C_6  and  C_7
REMARK    3  A    between atoms: C_7  and  C_8
REMARK    4  A    between atoms: C_7  and  N_9
REMARK    5  A    between atoms: N_9  and  C_10
REMARK    6  A    between atoms: C_10  and  C_11
REMARK    7  A    between atoms: C_14  and  C_15
REMARK    8  A    between atoms: C_15  and  N_16
REMARK    9  A    between atoms: C_17  and  C_19
REMARK                            x       y       z     vdW  Elec       q    Type
REMARK                         _______ _______ _______ _____ _____    ______ ____
ROOT
ATOM      1  C   UNL     1      45.457   6.231  12.048  0.00  0.00    +0.000 A 
ATOM      2  C   UNL     1      45.494   7.590  12.348  0.00  0.00    +0.000 A 
ATOM      3  C   UNL     1      46.541   8.086  13.125  0.00  0.00    +0.000 A 
ATOM      4  C   UNL     1      47.517   7.215  13.611  0.00  0.00    +0.000 A 
ATOM      5  C   UNL     1      47.407   5.876  13.255  0.00  0.00    +0.000 A 
ATOM      6  N   UNL     1      46.405   5.368  12.500  0.00  0.00    +0.000 NA
ENDROOT
BRANCH   1   7
ATOM      7  C   UNL     1      44.319   5.653  11.223  0.00  0.00    +0.000 C 
BRANCH   7   8
ATOM      8  N   UNL     1      44.729   5.257   9.867  0.00  0.00    +0.000 NA
ATOM      9  H   UNL     1      44.319   5.900   9.191  0.00  0.00    +0.000 HD
BRANCH   8  10
ATOM     10  C   UNL     1      44.312   3.896   9.503  0.00  0.00    +0.000 C 
ATOM     11  C   UNL     1      44.090   2.989  10.720  0.00  0.00    +0.000 C 
BRANCH  10  17
ATOM     12  C   UNL     1      46.744  -0.187   7.764  0.00  0.00    +0.000 C 
ATOM     13  C   UNL     1      46.534   1.299   7.742  0.00  0.00    +0.000 A 
ATOM     14  C   UNL     1      47.315   2.120   6.922  0.00  0.00    +0.000 A 
ATOM     15  C   UNL     1      47.118   3.500   6.917  0.00  0.00    +0.000 A 
ATOM     16  C   UNL     1      46.143   4.070   7.734  0.00  0.00    +0.000 A 
ATOM     17  C   UNL     1      45.353   3.272   8.576  0.00  0.00    +0.000 A 
ATOM     18  C   UNL     1      45.553   1.881   8.561  0.00  0.00    +0.000 A 
ENDBRANCH  10  17
ENDBRANCH   8  10
ENDBRANCH   7   8
ENDBRANCH   1   7
BRANCH   4  19
ATOM     19  C   UNL     1      48.658   7.708  14.448  0.00  0.00    +0.000 C 
BRANCH  19  20
ATOM     20  N   UNL     1      48.358   7.613  15.853  0.00  0.00    +0.000 N 
ATOM     21  C   UNL     1      48.992   6.700  16.655  0.00  0.00    +0.000 C 
ATOM     22  O   UNL     1      49.867   5.954  16.222  0.00  0.00    +0.000 OA
ATOM     23  H   UNL     1      47.495   8.042  16.174  0.00  0.00    +0.000 HD
BRANCH  21  24
ATOM     24  C   UNL     1      48.617   6.701  18.074  0.00  0.00    +0.000 A 
ATOM     25  C   UNL     1      48.466   5.495  18.746  0.00  0.00    +0.000 A 
ATOM     26  S   UNL     1      48.082   5.674  20.397  0.00  0.00    +0.000 S 
ATOM     27  C   UNL     1      48.053   7.369  20.261  0.00  0.00    +0.000 A 
ATOM     28  N   UNL     1      47.753   8.151  21.334  0.00  0.00    +0.000 NA
ATOM     29  C   UNL     1      47.742   9.417  21.085  0.00  0.00    +0.000 A 
ATOM     30  N   UNL     1      48.005   9.975  19.862  0.00  0.00    +0.000 N 
ATOM     31  C   UNL     1      48.336   9.226  18.755  0.00  0.00    +0.000 A 
ATOM     32  O   UNL     1      48.600   9.758  17.682  0.00  0.00    +0.000 OA
ATOM     33  C   UNL     1      48.353   7.794  18.980  0.00  0.00    +0.000 A 
ATOM     34  H   UNL     1      47.990  10.975  19.733  0.00  0.00    +0.000 HD
ENDBRANCH  21  24
ENDBRANCH  19  20
ENDBRANCH   4  19
TORSDOF 7
ENDMDL
MODEL 7
REMARK VINA RESULT:    -7.363      1.697      2.590
REMARK INTER + INTRA:         -11.360
REMARK INTER:                 -10.224
REMARK INTRA:                  -1.136
REMARK UNBOUND:                -0.984
REMARK  Name = 
REMARK  9 active torsions:
REMARK  status: ('A' for Active; 'I' for Inactive)
REMARK    1  A    between atoms: C_1  and  C_2
REMARK    2  A    between atoms: C_6  and  C_7
REMARK    3  A    between atoms: C_7  and  C_8
REMARK    4  A    between atoms: C_7  and  N_9
REMARK    5  A    between atoms: N_9  and  C_10
REMARK    6  A    between atoms: C_10  and  C_11
REMARK    7  A    between atoms: C_14  and  C_15
REMARK    8  A    between atoms: C_15  and  N_16
REMARK    9  A    between atoms: C_17  and  C_19
REMARK                            x       y       z     vdW  Elec       q    Type
REMARK                         _______ _______ _______ _____ _____    ______ ____
ROOT
ATOM      1  C   UNL     1      47.528   4.660  15.119  0.00  0.00    +0.000 A 
ATOM      2  C   UNL     1      47.337   3.555  15.946  0.00  0.00    +0.000 A 
ATOM      3  C   UNL     1      47.871   3.573  17.234  0.00  0.00    +0.000 A 
ATOM      4  C   UNL     1      48.608   4.677  17.666  0.00  0.00    +0.000 A 
ATOM      5  C   UNL     1      48.739   5.738  16.778  0.00  0.00    +0.000 A 
ATOM      6  N   UNL     1      48.229   5.751  15.525  0.00  0.00    +0.000 NA
ENDROOT
BRANCH   1   7
ATOM      7  C   UNL     1      46.978   4.666  13.702  0.00  0.00    +0.000 C 
BRANCH   7   8
ATOM      8  N   UNL     1      45.674   3.999  13.582  0.00  0.00    +0.000 NA
ATOM      9  H   UNL     1      45.802   3.085  13.151  0.00  0.00    +0.000 HD
BRANCH   8  10
ATOM     10  C   UNL     1      44.705   4.747  12.768  0.00  0.00    +0.000 C 
ATOM     11  C   UNL     1      43.248   4.381  13.081  0.00  0.00    +0.000 C 
BRANCH  10  17
ATOM     12  C   UNL     1      44.849   1.648   8.770  0.00  0.00    +0.000 C 
ATOM     13  C   UNL     1      45.067   3.012   9.357  0.00  0.00    +0.000 A 
ATOM     14  C   UNL     1      45.575   4.054   8.574  0.00  0.00    +0.000 A 
ATOM     15  C   UNL     1      45.783   5.315   9.131  0.00  0.00    +0.000 A 
ATOM     16  C   UNL     1      45.489   5.543  10.474  0.00  0.00    +0.000 A 
ATOM     17  C   UNL     1      44.990   4.513  11.287  0.00  0.00    +0.000 A 
ATOM     18  C   UNL     1      44.772   3.251  10.708  0.00  0.00    +0.000 A 
ENDBRANCH  10  17
ENDBRANCH   8  10
ENDBRANCH   7   8
ENDBRANCH   1   7
BRANCH   4  19
ATOM     19  C   UNL     1      49.197   4.734  19.043  0.00  0.00    +0.000 C 
BRANCH  19  20
ATOM     20  N   UNL     1      50.396   3.943  19.133  0.00  0.00    +0.000 N 
ATOM     21  C   UNL     1      51.624   4.478  18.842  0.00  0.00    +0.000 C 
ATOM     22  O   UNL     1      51.760   5.659  18.530  0.00  0.00    +0.000 OA
ATOM     23  H   UNL     1      50.286   2.934  19.157  0.00  0.00    +0.000 HD
BRANCH  21  24
ATOM     24  C   UNL     1      52.779   3.584  18.982  0.00  0.00    +0.000 A 
ATOM     25  C   UNL     1      53.869   3.984  19.744  0.00  0.00    +0.000 A 
ATOM     26  S   UNL     1      55.100   2.809  19.848  0.00  0.00    +0.000 S 
ATOM     27  C   UNL     1      54.242   1.743  18.837  0.00  0.00    +0.000 A 
ATOM     28  N   UNL     1      54.763   0.534  18.494  0.00  0.00    +0.000 NA
ATOM     29  C   UNL     1      54.019  -0.161  17.701  0.00  0.00    +0.000 A 
ATOM     30  N   UNL     1      52.800   0.239  17.222  0.00  0.00    +0.000 N 
ATOM     31  C   UNL     1      52.223   1.442  17.560  0.00  0.00    +0.000 A 
ATOM     32  O   UNL     1      51.114   1.756  17.140  0.00  0.00    +0.000 OA
ATOM     33  C   UNL     1      53.025   2.268  18.442  0.00  0.00    +0.000 A 
ATOM     34  H   UNL     1      52.261  -0.357  16.611  0.00  0.00    +0.000 HD
ENDBRANCH  21  24
ENDBRANCH  19  20
ENDBRANCH   4  19
TORSDOF 7
ENDMDL
MODEL 8
REMARK VINA RESULT:    -6.824      4.125      8.617
REMARK INTER + INTRA:         -10.601
REMARK INTER:                  -8.969
REMARK INTRA:                  -1.632
REMARK UNBOUND:                -0.984
REMARK  Name = 
REMARK  9 active torsions:
REMARK  status: ('A' for Active; 'I' for Inactive)
REMARK    1  A    between atoms: C_1  and  C_2
REMARK    2  A    between atoms: C_6  and  C_7
REMARK    3  A    between atoms: C_7  and  C_8
REMARK    4  A    between atoms: C_7  and  N_9
REMARK    5  A    between atoms: N_9  and  C_10
REMARK    6  A    between atoms: C_10  and  C_11
REMARK    7  A    between atoms: C_14  and  C_15
REMARK    8  A    between atoms: C_15  and  N_16
REMARK    9  A    between atoms: C_17  and  C_19
REMARK                            x       y       z     vdW  Elec       q    Type
REMARK                         _______ _______ _______ _____ _____    ______ ____
ROOT
ATOM      1  C   UNL     1      49.069   7.994  18.509  0.00  0.00    +0.000 A 
ATOM      2  C   UNL     1      48.241   9.106  18.381  0.00  0.00    +0.000 A 
ATOM      3  C   UNL     1      47.925   9.573  17.106  0.00  0.00    +0.000 A 
ATOM      4  C   UNL     1      48.461   8.941  15.983  0.00  0.00    +0.000 A 
ATOM      5  C   UNL     1      49.269   7.833  16.203  0.00  0.00    +0.000 A 
ATOM      6  N   UNL     1      49.590   7.356  17.429  0.00  0.00    +0.000 NA
ENDROOT
BRANCH   1   7
ATOM      7  C   UNL     1      49.452   7.471  19.885  0.00  0.00    +0.000 C 
BRANCH   7   8
ATOM      8  N   UNL     1      48.406   6.645  20.503  0.00  0.00    +0.000 NA
ATOM      9  H   UNL     1      48.214   6.992  21.441  0.00  0.00    +0.000 HD
BRANCH   8  10
ATOM     10  C   UNL     1      48.769   5.225  20.614  0.00  0.00    +0.000 C 
ATOM     11  C   UNL     1      50.223   5.010  21.057  0.00  0.00    +0.000 C 
BRANCH  10  17
ATOM     12  C   UNL     1      50.302   2.039  16.994  0.00  0.00    +0.000 C 
ATOM     13  C   UNL     1      49.273   2.994  17.524  0.00  0.00    +0.000 A 
ATOM     14  C   UNL     1      48.124   3.290  16.784  0.00  0.00    +0.000 A 
ATOM     15  C   UNL     1      47.179   4.186  17.282  0.00  0.00    +0.000 A 
ATOM     16  C   UNL     1      47.377   4.797  18.519  0.00  0.00    +0.000 A 
ATOM     17  C   UNL     1      48.528   4.528  19.278  0.00  0.00    +0.000 A 
ATOM     18  C   UNL     1      49.465   3.612  18.770  0.00  0.00    +0.000 A 
ENDBRANCH  10  17
ENDBRANCH   8  10
ENDBRANCH   7   8
ENDBRANCH   1   7
BRANCH   4  19
ATOM     19  C   UNL     1      48.144   9.411  14.595  0.00  0.00    +0.000 C 
BRANCH  19  20
ATOM     20  N   UNL     1      47.056   8.663  14.023  0.00  0.00    +0.000 N 
ATOM     21  C   UNL     1      47.262   7.780  12.995  0.00  0.00    +0.000 C 
ATOM     22  O   UNL     1      48.385   7.561  12.545  0.00  0.00    +0.000 OA
ATOM     23  H   UNL     1      46.114   8.994  14.212  0.00  0.00    +0.000 HD
BRANCH  21  24
ATOM     24  C   UNL     1      46.083   7.062  12.500  0.00  0.00    +0.000 A 
ATOM     25  C   UNL     1      45.067   7.765  11.864  0.00  0.00    +0.000 A 
ATOM     26  S   UNL     1      43.797   6.776  11.303  0.00  0.00    +0.000 S 
ATOM     27  C   UNL     1      44.534   5.380  11.935  0.00  0.00    +0.000 A 
ATOM     28  N   UNL     1      43.938   4.162  11.819  0.00  0.00    +0.000 NA
ATOM     29  C   UNL     1      44.593   3.193  12.365  0.00  0.00    +0.000 A 
ATOM     30  N   UNL     1      45.791   3.329  13.015  0.00  0.00    +0.000 N 
ATOM     31  C   UNL     1      46.443   4.535  13.136  0.00  0.00    +0.000 A 
ATOM     32  O   UNL     1      47.531   4.618  13.694  0.00  0.00    +0.000 OA
ATOM     33  C   UNL     1      45.742   5.660  12.547  0.00  0.00    +0.000 A 
ATOM     34  H   UNL     1      46.260   2.529  13.413  0.00  0.00    +0.000 HD
ENDBRANCH  21  24
ENDBRANCH  19  20
ENDBRANCH   4  19
TORSDOF 7
ENDMDL
MODEL 9
REMARK VINA RESULT:    -6.630      2.630      3.365
REMARK INTER + INTRA:         -10.327
REMARK INTER:                  -9.294
REMARK INTRA:                  -1.033
REMARK UNBOUND:                -0.984
REMARK  Name = 
REMARK  9 active torsions:
REMARK  status: ('A' for Active; 'I' for Inactive)
REMARK    1  A    between atoms: C_1  and  C_2
REMARK    2  A    between atoms: C_6  and  C_7
REMARK    3  A    between atoms: C_7  and  C_8
REMARK    4  A    between atoms: C_7  and  N_9
REMARK    5  A    between atoms: N_9  and  C_10
REMARK    6  A    between atoms: C_10  and  C_11
REMARK    7  A    between atoms: C_14  and  C_15
REMARK    8  A    between atoms: C_15  and  N_16
REMARK    9  A    between atoms: C_17  and  C_19
REMARK                            x       y       z     vdW  Elec       q    Type
REMARK                         _______ _______ _______ _____ _____    ______ ____
ROOT
ATOM      1  C   UNL     1      46.123   7.369  12.502  0.00  0.00    +0.000 A 
ATOM      2  C   UNL     1      46.425   8.472  13.297  0.00  0.00    +0.000 A 
ATOM      3  C   UNL     1      47.718   8.613  13.799  0.00  0.00    +0.000 A 
ATOM      4  C   UNL     1      48.680   7.639  13.524  0.00  0.00    +0.000 A 
ATOM      5  C   UNL     1      48.294   6.577  12.715  0.00  0.00    +0.000 A 
ATOM      6  N   UNL     1      47.048   6.417  12.210  0.00  0.00    +0.000 NA
ENDROOT
BRANCH   1   7
ATOM      7  C   UNL     1      44.718   7.173  11.956  0.00  0.00    +0.000 C 
BRANCH   7   8
ATOM      8  N   UNL     1      44.690   6.469  10.665  0.00  0.00    +0.000 NA
ATOM      9  H   UNL     1      44.356   7.105   9.943  0.00  0.00    +0.000 HD
BRANCH   8  10
ATOM     10  C   UNL     1      43.818   5.286  10.661  0.00  0.00    +0.000 C 
ATOM     11  C   UNL     1      43.504   4.766  12.071  0.00  0.00    +0.000 C 
BRANCH  10  17
ATOM     12  C   UNL     1      46.854   3.841   6.879  0.00  0.00    +0.000 C 
ATOM     13  C   UNL     1      45.924   3.480   7.999  0.00  0.00    +0.000 A 
ATOM     14  C   UNL     1      45.603   2.144   8.259  0.00  0.00    +0.000 A 
ATOM     15  C   UNL     1      44.730   1.818   9.297  0.00  0.00    +0.000 A 
ATOM     16  C   UNL     1      44.168   2.826  10.079  0.00  0.00    +0.000 A 
ATOM     17  C   UNL     1      44.462   4.177   9.834  0.00  0.00    +0.000 A 
ATOM     18  C   UNL     1      45.355   4.488   8.793  0.00  0.00    +0.000 A 
ENDBRANCH  10  17
ENDBRANCH   8  10
ENDBRANCH   7   8
ENDBRANCH   1   7
BRANCH   4  19
ATOM     19  C   UNL     1      50.081   7.754  14.044  0.00  0.00    +0.000 C 
BRANCH  19  20
ATOM     20  N   UNL     1      50.285   6.908  15.191  0.00  0.00    +0.000 N 
ATOM     21  C   UNL     1      50.290   7.422  16.461  0.00  0.00    +0.000 C 
ATOM     22  O   UNL     1      50.083   8.614  16.680  0.00  0.00    +0.000 OA
ATOM     23  H   UNL     1      50.683   5.989  15.025  0.00  0.00    +0.000 HD
BRANCH  21  24
ATOM     24  C   UNL     1      50.494   6.466  17.555  0.00  0.00    +0.000 A 
ATOM     25  C   UNL     1      51.659   5.710  17.598  0.00  0.00    +0.000 A 
ATOM     26  S   UNL     1      51.761   4.689  18.960  0.00  0.00    +0.000 S 
ATOM     27  C   UNL     1      50.231   5.183  19.513  0.00  0.00    +0.000 A 
ATOM     28  N   UNL     1      49.695   4.657  20.648  0.00  0.00    +0.000 NA
ATOM     29  C   UNL     1      48.518   5.101  20.937  0.00  0.00    +0.000 A 
ATOM     30  N   UNL     1      47.829   6.026  20.198  0.00  0.00    +0.000 N 
ATOM     31  C   UNL     1      48.340   6.603  19.058  0.00  0.00    +0.000 A 
ATOM     32  O   UNL     1      47.711   7.453  18.438  0.00  0.00    +0.000 OA
ATOM     33  C   UNL     1      49.658   6.129  18.683  0.00  0.00    +0.000 A 
ATOM     34  H   UNL     1      46.914   6.341  20.484  0.00  0.00    +0.000 HD
ENDBRANCH  21  24
ENDBRANCH  19  20
ENDBRANCH   4  19
TORSDOF 7
ENDMDL
