MODEL 1
REMARK VINA RESULT:    -7.326      0.000      0.000
REMARK INTER + INTRA:          -9.544
REMARK INTER:                  -9.039
REMARK INTRA:                  -0.505
REMARK UNBOUND:                -0.505
REMARK  Name = 
REMARK  4 active torsions:
REMARK  status: ('A' for Active; 'I' for Inactive)
REMARK    1  A    between atoms: C_2  and  C_3
REMARK    2  A    between atoms: N_6  and  C_7
REMARK    3  A    between atoms: C_7  and  C_8
REMARK    4  A    between atoms: C_12  and  C_13
REMARK                            x       y       z     vdW  Elec       q    Type
REMARK                         _______ _______ _______ _____ _____    ______ ____
ROOT
ATOM      1  C   UNL     1      43.764   4.595  10.824  0.00  0.00    +0.000 A 
ATOM      2  C   UNL     1      43.242   3.502  11.503  0.00  0.00    +0.000 A 
ATOM      3  N   UNL     1      43.396   2.216  11.114  0.00  0.00    +0.000 NA
ATOM      4  C   UNL     1      44.119   1.994   9.991  0.00  0.00    +0.000 A 
ATOM      5  C   UNL     1      44.688   2.999   9.219  0.00  0.00    +0.000 A 
ATOM      6  C   UNL     1      44.488   4.322   9.656  0.00  0.00    +0.000 A 
ENDROOT
BRANCH   5   7
ATOM      7  C   UNL     1      45.539   2.730   7.998  0.00  0.00    +0.000 C 
ATOM      8  C   UNL     1      46.368   3.959   7.594  0.00  0.00    +0.000 C 
ATOM      9  C   UNL     1      46.999   3.709   6.224  0.00  0.00    +0.000 C 
ATOM     10  N   UNL     1      47.846   2.514   6.209  0.00  0.00    +0.000 NA
ATOM     11  C   UNL     1      47.146   1.322   6.698  0.00  0.00    +0.000 C 
ATOM     12  C   UNL     1      46.504   1.535   8.075  0.00  0.00    +0.000 C 
ATOM     13  H   UNL     1      48.672   2.679   6.784  0.00  0.00    +0.000 HD
ENDBRANCH   5   7
BRANCH   1  14
ATOM     14  C   UNL     1      43.577   5.998  11.348  0.00  0.00    +0.000 C 
BRANCH  14  18
ATOM     15  C   UNL     1      46.955   5.728  13.607  0.00  0.00    +0.000 A 
ATOM     16  N   UNL     1      45.826   5.840  12.852  0.00  0.00    +0.000 NA
ATOM     17  C   UNL     1      45.831   6.720  11.829  0.00  0.00    +0.000 A 
ATOM     18  N   UNL     1      44.713   6.840  10.986  0.00  0.00    +0.000 N 
ATOM     19  C   UNL     1      46.962   7.488  11.539  0.00  0.00    +0.000 A 
ATOM     20  C   UNL     1      48.111   7.359  12.318  0.00  0.00    +0.000 A 
ATOM     21  C   UNL     1      48.107   6.462  13.374  0.00  0.00    +0.000 A 
ATOM     22  F   UNL     1      49.201   6.320  14.132  0.00  0.00    +0.000 F 
ATOM     23  H   UNL     1      44.454   7.819  10.892  0.00  0.00    +0.000 HD
BRANCH  15  25
ATOM     24  N   UNL     1      46.849   4.020  15.564  0.00  0.00    +0.000 NA
ATOM     25  C   UNL     1      46.897   4.786  14.689  0.00  0.00    +0.000 C 
ENDBRANCH  15  25
ENDBRANCH  14  18
ENDBRANCH   1  14
TORSDOF 4
ENDMDL
MODEL 2
REMARK VINA RESULT:    -7.149      2.858      6.676
REMARK INTER + INTRA:          -9.326
REMARK INTER:                  -8.747
REMARK INTRA:                  -0.579
REMARK UNBOUND:                -0.505
REMARK  Name = 
REMARK  4 active torsions:
REMARK  status: ('A' for Active; 'I' for Inactive)
REMARK    1  A    between atoms: C_2  and  C_3
REMARK    2  A    between atoms: N_6  and  C_7
REMARK    3  A    between atoms: C_7  and  C_8
REMARK    4  A    between atoms: C_12  and  C_13
REMARK                            x       y       z     vdW  Elec       q    Type
REMARK                         _______ _______ _______ _____ _____    ______ ____
ROOT
ATOM      1  C   UNL     1      44.309   4.275  10.882  0.00  0.00    +0.000 A 
ATOM      2  C   UNL     1      43.115   4.575  11.524  0.00  0.00    +0.000 A 
ATOM      3  N   UNL     1      43.008   5.398  12.591  0.00  0.00    +0.000 NA
ATOM      4  C   UNL     1      44.148   5.970  13.046  0.00  0.00    +0.000 A 
ATOM      5  C   UNL     1      45.404   5.748  12.496  0.00  0.00    +0.000 A 
ATOM      6  C   UNL     1      45.467   4.871  11.397  0.00  0.00    +0.000 A 
ENDROOT
BRANCH   5   7
ATOM      7  C   UNL     1      46.660   6.437  12.982  0.00  0.00    +0.000 C 
ATOM      8  C   UNL     1      47.397   5.607  14.043  0.00  0.00    +0.000 C 
ATOM      9  C   UNL     1      48.498   6.462  14.671  0.00  0.00    +0.000 C 
ATOM     10  N   UNL     1      49.455   6.957  13.678  0.00  0.00    +0.000 NA
ATOM     11  C   UNL     1      48.802   7.661  12.570  0.00  0.00    +0.000 C 
ATOM     12  C   UNL     1      47.693   6.830  11.912  0.00  0.00    +0.000 C 
ATOM     13  H   UNL     1      49.994   6.173  13.309  0.00  0.00    +0.000 HD
ENDBRANCH   5   7
BRANCH   1  14
ATOM     14  C   UNL     1      44.335   3.372   9.672  0.00  0.00    +0.000 C 
BRANCH  14  18
ATOM     15  C   UNL     1      46.766   1.187   7.244  0.00  0.00    +0.000 A 
ATOM     16  N   UNL     1      45.968   1.934   8.056  0.00  0.00    +0.000 NA
ATOM     17  C   UNL     1      45.811   3.242   7.765  0.00  0.00    +0.000 A 
ATOM     18  N   UNL     1      44.958   4.048   8.538  0.00  0.00    +0.000 N 
ATOM     19  C   UNL     1      46.436   3.817   6.654  0.00  0.00    +0.000 A 
ATOM     20  C   UNL     1      47.247   3.038   5.829  0.00  0.00    +0.000 A 
ATOM     21  C   UNL     1      47.417   1.696   6.131  0.00  0.00    +0.000 A 
ATOM     22  F   UNL     1      48.188   0.931   5.350  0.00  0.00    +0.000 F 
ATOM     23  H   UNL     1      45.442   4.899   8.814  0.00  0.00    +0.000 HD
BRANCH  15  25
ATOM     24  N   UNL     1      47.023  -1.317   7.893  0.00  0.00    +0.000 NA
ATOM     25  C   UNL     1      46.910  -0.196   7.601  0.00  0.00    +0.000 C 
ENDBRANCH  15  25
ENDBRANCH  14  18
ENDBRANCH   1  14
TORSDOF 4
ENDMDL
MODEL 3
REMARK VINA RESULT:    -7.111      2.985      5.760
REMARK INTER + INTRA:          -9.278
REMARK INTER:                  -8.605
REMARK INTRA:                  -0.674
REMARK UNBOUND:                -0.505
REMARK  Name = 
REMARK  4 active torsions:
REMARK  status: ('A' for Active; 'I' for Inactive)
REMARK    1  A    between atoms: C_2  and  C_3
REMARK    2  A    between atoms: N_6  and  C_7
REMARK    3  A    between atoms: C_7  and  C_8
REMARK    4  A    between atoms: C_12  and  C_13
REMARK                            x       y       z     vdW  Elec       q    Type
REMARK                         _______ _______ _______ _____ _____    ______ ____
ROOT
ATOM      1  C   UNL     1      47.768   7.184  13.874  0.00  0.00    +0.000 A 
ATOM      2  C   UNL     1      47.195   8.406  13.552  0.00  0.00    +0.000 A 
ATOM      3  N   UNL     1      46.104   8.554  12.766  0.00  0.00    +0.000 NA
ATOM      4  C   UNL     1      45.538   7.426  12.277  0.00  0.00    +0.000 A 
ATOM      5  C   UNL     1      46.018   6.145  12.520  0.00  0.00    +0.000 A 
ATOM      6  C   UNL     1      47.164   6.042  13.331  0.00  0.00    +0.000 A 
ENDROOT
BRANCH   5   7
ATOM      7  C   UNL     1      45.342   4.891  12.011  0.00  0.00    +0.000 C 
ATOM      8  C   UNL     1      44.136   4.498  12.877  0.00  0.00    +0.000 C 
ATOM      9  C   UNL     1      43.661   3.102  12.470  0.00  0.00    +0.000 C 
ATOM     10  N   UNL     1      43.298   3.028  11.053  0.00  0.00    +0.000 NA
ATOM     11  C   UNL     1      44.369   3.504  10.172  0.00  0.00    +0.000 C 
ATOM     12  C   UNL     1      44.868   4.904  10.548  0.00  0.00    +0.000 C 
ATOM     13  H   UNL     1      42.457   3.582  10.891  0.00  0.00    +0.000 HD
ENDBRANCH   5   7
BRANCH   1  14
ATOM     14  C   UNL     1      48.966   7.105  14.791  0.00  0.00    +0.000 C 
BRANCH  14  18
ATOM     15  C   UNL     1      48.783   3.855  17.238  0.00  0.00    +0.000 A 
ATOM     16  N   UNL     1      48.825   4.948  16.427  0.00  0.00    +0.000 NA
ATOM     17  C   UNL     1      48.493   6.145  16.956  0.00  0.00    +0.000 A 
ATOM     18  N   UNL     1      48.567   7.314  16.180  0.00  0.00    +0.000 N 
ATOM     19  C   UNL     1      48.128   6.267  18.299  0.00  0.00    +0.000 A 
ATOM     20  C   UNL     1      48.094   5.138  19.118  0.00  0.00    +0.000 A 
ATOM     21  C   UNL     1      48.427   3.908  18.577  0.00  0.00    +0.000 A 
ATOM     22  F   UNL     1      48.404   2.813  19.346  0.00  0.00    +0.000 F 
ATOM     23  H   UNL     1      47.700   7.838  16.257  0.00  0.00    +0.000 HD
BRANCH  15  25
ATOM     24  N   UNL     1      49.423   1.593  16.129  0.00  0.00    +0.000 NA
ATOM     25  C   UNL     1      49.135   2.605  16.628  0.00  0.00    +0.000 C 
ENDBRANCH  15  25
ENDBRANCH  14  18
ENDBRANCH   1  14
TORSDOF 4
ENDMDL
MODEL 4
REMARK VINA RESULT:    -6.509      4.079      9.104
REMARK INTER + INTRA:          -8.536
REMARK INTER:                  -8.018
REMARK INTRA:                  -0.518
REMARK UNBOUND:                -0.505
REMARK  Name = 
REMARK  4 active torsions:
REMARK  status: ('A' for Active; 'I' for Inactive)
REMARK    1  A    between atoms: C_2  and  C_3
REMARK    2  A    between atoms: N_6  and  C_7
REMARK    3  A    between atoms: C_7  and  C_8
REMARK    4  A    between atoms: C_12  and  C_13
REMARK                            x       y       z     vdW  Elec       q    Type
REMARK                         _______ _______ _______ _____ _____    ______ ____
ROOT
ATOM      1  C   UNL     1      47.670   3.925  16.353  0.00  0.00    +0.000 A 
ATOM      2  C   UNL     1      48.416   2.888  16.896  0.00  0.00    +0.000 A 
ATOM      3  N   UNL     1      48.897   2.873  18.160  0.00  0.00    +0.000 NA
ATOM      4  C   UNL     1      48.615   3.944  18.940  0.00  0.00    +0.000 A 
ATOM      5  C   UNL     1      47.884   5.046  18.515  0.00  0.00    +0.000 A 
ATOM      6  C   UNL     1      47.417   5.022  17.188  0.00  0.00    +0.000 A 
ENDROOT
BRANCH   5   7
ATOM      7  C   UNL     1      47.530   6.208  19.416  0.00  0.00    +0.000 C 
ATOM      8  C   UNL     1      48.030   5.994  20.853  0.00  0.00    +0.000 C 
ATOM      9  C   UNL     1      47.424   7.067  21.759  0.00  0.00    +0.000 C 
ATOM     10  N   UNL     1      47.757   8.423  21.317  0.00  0.00    +0.000 NA
ATOM     11  C   UNL     1      47.411   8.657  19.911  0.00  0.00    +0.000 C 
ATOM     12  C   UNL     1      48.006   7.601  18.971  0.00  0.00    +0.000 C 
ATOM     13  H   UNL     1      48.755   8.586  21.451  0.00  0.00    +0.000 HD
ENDBRANCH   5   7
BRANCH   1  14
ATOM     14  C   UNL     1      47.138   3.844  14.943  0.00  0.00    +0.000 C 
BRANCH  14  18
ATOM     15  C   UNL     1      44.203   4.246  12.148  0.00  0.00    +0.000 A 
ATOM     16  N   UNL     1      45.198   4.124  13.071  0.00  0.00    +0.000 NA
ATOM     17  C   UNL     1      45.872   5.237  13.430  0.00  0.00    +0.000 A 
ATOM     18  N   UNL     1      46.873   5.179  14.414  0.00  0.00    +0.000 N 
ATOM     19  C   UNL     1      45.554   6.484  12.884  0.00  0.00    +0.000 A 
ATOM     20  C   UNL     1      44.530   6.594  11.943  0.00  0.00    +0.000 A 
ATOM     21  C   UNL     1      43.842   5.452  11.567  0.00  0.00    +0.000 A 
ATOM     22  F   UNL     1      42.853   5.536  10.669  0.00  0.00    +0.000 F 
ATOM     23  H   UNL     1      47.716   5.636  14.078  0.00  0.00    +0.000 HD
BRANCH  15  25
ATOM     24  N   UNL     1      42.968   2.052  11.503  0.00  0.00    +0.000 NA
ATOM     25  C   UNL     1      43.523   3.034  11.792  0.00  0.00    +0.000 C 
ENDBRANCH  15  25
ENDBRANCH  14  18
ENDBRANCH   1  14
TORSDOF 4
ENDMDL
MODEL 5
REMARK VINA RESULT:    -6.234      2.764      7.534
REMARK INTER + INTRA:          -8.196
REMARK INTER:                  -7.557
REMARK INTRA:                  -0.639
REMARK UNBOUND:                -0.505
REMARK  Name = 
REMARK  4 active torsions:
REMARK  status: ('A' for Active; 'I' for Inactive)
REMARK    1  A    between atoms: C_2  and  C_3
REMARK    2  A    between atoms: N_6  and  C_7
REMARK    3  A    between atoms: C_7  and  C_8
REMARK    4  A    between atoms: C_12  and  C_13
REMARK                            x       y       z     vdW  Elec       q    Type
REMARK                         _______ _______ _______ _____ _____    ______ ____
ROOT
ATOM      1  C   UNL     1      46.895   7.331  12.286  0.00  0.00    +0.000 A 
ATOM      2  C   UNL     1      48.011   7.561  11.492  0.00  0.00    +0.000 A 
ATOM      3  N   UNL     1      49.286   7.546  11.944  0.00  0.00    +0.000 NA
ATOM      4  C   UNL     1      49.471   7.278  13.258  0.00  0.00    +0.000 A 
ATOM      5  C   UNL     1      48.440   7.036  14.157  0.00  0.00    +0.000 A 
ATOM      6  C   UNL     1      47.130   7.077  13.643  0.00  0.00    +0.000 A 
ENDROOT
BRANCH   5   7
ATOM      7  C   UNL     1      48.668   6.683  15.610  0.00  0.00    +0.000 C 
ATOM      8  C   UNL     1      48.082   5.308  15.966  0.00  0.00    +0.000 C 
ATOM      9  C   UNL     1      48.116   5.127  17.483  0.00  0.00    +0.000 C 
ATOM     10  N   UNL     1      49.471   5.243  18.029  0.00  0.00    +0.000 NA
ATOM     11  C   UNL     1      50.134   6.487  17.627  0.00  0.00    +0.000 C 
ATOM     12  C   UNL     1      50.123   6.701  16.108  0.00  0.00    +0.000 C 
ATOM     13  H   UNL     1      50.028   4.447  17.718  0.00  0.00    +0.000 HD
ENDBRANCH   5   7
BRANCH   1  14
ATOM     14  C   UNL     1      45.507   7.329  11.693  0.00  0.00    +0.000 C 
BRANCH  14  18
ATOM     15  C   UNL     1      45.035   3.958   9.457  0.00  0.00    +0.000 A 
ATOM     16  N   UNL     1      45.171   5.086  10.209  0.00  0.00    +0.000 NA
ATOM     17  C   UNL     1      44.560   5.126  11.411  0.00  0.00    +0.000 A 
ATOM     18  N   UNL     1      44.709   6.242  12.252  0.00  0.00    +0.000 N 
ATOM     19  C   UNL     1      43.817   4.040  11.883  0.00  0.00    +0.000 A 
ATOM     20  C   UNL     1      43.690   2.890  11.103  0.00  0.00    +0.000 A 
ATOM     21  C   UNL     1      44.310   2.849   9.865  0.00  0.00    +0.000 A 
ATOM     22  F   UNL     1      44.204   1.755   9.103  0.00  0.00    +0.000 F 
ATOM     23  H   UNL     1      43.797   6.558  12.573  0.00  0.00    +0.000 HD
BRANCH  15  25
ATOM     24  N   UNL     1      46.229   3.973   7.149  0.00  0.00    +0.000 NA
ATOM     25  C   UNL     1      45.696   3.968   8.184  0.00  0.00    +0.000 C 
ENDBRANCH  15  25
ENDBRANCH  14  18
ENDBRANCH   1  14
TORSDOF 4
ENDMDL
MODEL 6
REMARK VINA RESULT:    -6.081      3.258      7.192
REMARK INTER + INTRA:          -8.008
REMARK INTER:                  -7.671
REMARK INTRA:                  -0.337
REMARK UNBOUND:                -0.505
REMARK  Name = 
REMARK  4 active torsions:
REMARK  status: ('A' for Active; 'I' for Inactive)
REMARK    1  A    between atoms: C_2  and  C_3
REMARK    2  A    between atoms: N_6  and  C_7
REMARK    3  A    between atoms: C_7  and  C_8
REMARK    4  A    between atoms: C_12  and  C_13
REMARK                            x       y       z     vdW  Elec       q    Type
REMARK                         _______ _______ _______ _____ _____    ______ ____
ROOT
ATOM      1  C   UNL     1      46.488   7.268  12.655  0.00  0.00    +0.000 A 
ATOM      2  C   UNL     1      46.975   6.193  13.386  0.00  0.00    +0.000 A 
ATOM      3  N   UNL     1      48.237   6.102  13.862  0.00  0.00    +0.000 NA
ATOM      4  C   UNL     1      49.068   7.142  13.610  0.00  0.00    +0.000 A 
ATOM      5  C   UNL     1      48.705   8.271  12.887  0.00  0.00    +0.000 A 
ATOM      6  C   UNL     1      47.385   8.313  12.399  0.00  0.00    +0.000 A 
ENDROOT
BRANCH   5   7
ATOM      7  C   UNL     1      49.628   9.448  12.663  0.00  0.00    +0.000 C 
ATOM      8  C   UNL     1      51.031   9.196  13.236  0.00  0.00    +0.000 C 
ATOM      9  C   UNL     1      51.826  10.502  13.207  0.00  0.00    +0.000 C 
ATOM     10  N   UNL     1      51.936  11.058  11.856  0.00  0.00    +0.000 NA
ATOM     11  C   UNL     1      50.632  11.215  11.204  0.00  0.00    +0.000 C 
ATOM     12  C   UNL     1      49.808   9.921  11.210  0.00  0.00    +0.000 C 
ATOM     13  H   UNL     1      52.527  10.450  11.289  0.00  0.00    +0.000 HD
ENDBRANCH   5   7
BRANCH   1  14
ATOM     14  C   UNL     1      45.052   7.306  12.191  0.00  0.00    +0.000 C 
BRANCH  14  18
ATOM     15  C   UNL     1      44.873   4.030   9.779  0.00  0.00    +0.000 A 
ATOM     16  N   UNL     1      44.911   5.124  10.590  0.00  0.00    +0.000 NA
ATOM     17  C   UNL     1      44.272   5.058  11.777  0.00  0.00    +0.000 A 
ATOM     18  N   UNL     1      44.322   6.138  12.675  0.00  0.00    +0.000 N 
ATOM     19  C   UNL     1      43.600   3.899  12.174  0.00  0.00    +0.000 A 
ATOM     20  C   UNL     1      43.573   2.786  11.335  0.00  0.00    +0.000 A 
ATOM     21  C   UNL     1      44.221   2.853  10.112  0.00  0.00    +0.000 A 
ATOM     22  F   UNL     1      44.211   1.794   9.294  0.00  0.00    +0.000 F 
ATOM     23  H   UNL     1      43.383   6.371  12.988  0.00  0.00    +0.000 HD
BRANCH  15  25
ATOM     24  N   UNL     1      46.117   4.255   7.508  0.00  0.00    +0.000 NA
ATOM     25  C   UNL     1      45.559   4.152   8.525  0.00  0.00    +0.000 C 
ENDBRANCH  15  25
ENDBRANCH  14  18
ENDBRANCH   1  14
TORSDOF 4
ENDMDL
MODEL 7
REMARK VINA RESULT:    -6.079      3.348      8.206
REMARK INTER + INTRA:          -8.006
REMARK INTER:                  -7.415
REMARK INTRA:                  -0.591
REMARK UNBOUND:                -0.505
REMARK  Name = 
REMARK  4 active torsions:
REMARK  status: ('A' for Active; 'I' for Inactive)
REMARK    1  A    between atoms: C_2  and  C_3
REMARK    2  A    between atoms: N_6  and  C_7
REMARK    3  A    between atoms: C_7  and  C_8
REMARK    4  A    between atoms: C_12  and  C_13
REMARK                            x       y       z     vdW  Elec       q    Type
REMARK                         _______ _______ _______ _____ _____    ______ ____
ROOT
ATOM      1  C   UNL     1      48.783   7.326  13.985  0.00  0.00    +0.000 A 
ATOM      2  C   UNL     1      50.000   7.985  13.871  0.00  0.00    +0.000 A 
ATOM      3  N   UNL     1      51.002   7.899  14.775  0.00  0.00    +0.000 NA
ATOM      4  C   UNL     1      50.794   7.106  15.853  0.00  0.00    +0.000 A 
ATOM      5  C   UNL     1      49.621   6.399  16.086  0.00  0.00    +0.000 A 
ATOM      6  C   UNL     1      48.602   6.531  15.125  0.00  0.00    +0.000 A 
ENDROOT
BRANCH   5   7
ATOM      7  C   UNL     1      49.427   5.474  17.267  0.00  0.00    +0.000 C 
ATOM      8  C   UNL     1      48.809   6.201  18.470  0.00  0.00    +0.000 C 
ATOM      9  C   UNL     1      48.877   5.289  19.695  0.00  0.00    +0.000 C 
ATOM     10  N   UNL     1      48.188   4.014  19.481  0.00  0.00    +0.000 NA
ATOM     11  C   UNL     1      48.651   3.320  18.275  0.00  0.00    +0.000 C 
ATOM     12  C   UNL     1      48.592   4.205  17.023  0.00  0.00    +0.000 C 
ATOM     13  H   UNL     1      47.185   4.181  19.410  0.00  0.00    +0.000 HD
ENDBRANCH   5   7
BRANCH   1  14
ATOM     14  C   UNL     1      47.730   7.446  12.909  0.00  0.00    +0.000 C 
BRANCH  14  18
ATOM     15  C   UNL     1      45.265   5.330  10.454  0.00  0.00    +0.000 A 
ATOM     16  N   UNL     1      46.073   6.051  11.280  0.00  0.00    +0.000 NA
ATOM     17  C   UNL     1      45.611   6.359  12.510  0.00  0.00    +0.000 A 
ATOM     18  N   UNL     1      46.421   7.056  13.423  0.00  0.00    +0.000 N 
ATOM     19  C   UNL     1      44.346   5.943  12.934  0.00  0.00    +0.000 A 
ATOM     20  C   UNL     1      43.532   5.202  12.077  0.00  0.00    +0.000 A 
ATOM     21  C   UNL     1      44.000   4.891  10.811  0.00  0.00    +0.000 A 
ATOM     22  F   UNL     1      43.237   4.177   9.976  0.00  0.00    +0.000 F 
ATOM     23  H   UNL     1      45.908   7.844  13.810  0.00  0.00    +0.000 HD
BRANCH  15  25
ATOM     24  N   UNL     1      46.230   4.800   8.099  0.00  0.00    +0.000 NA
ATOM     25  C   UNL     1      45.798   5.035   9.154  0.00  0.00    +0.000 C 
ENDBRANCH  15  25
ENDBRANCH  14  18
ENDBRANCH   1  14
TORSDOF 4
ENDMDL
MODEL 8
REMARK VINA RESULT:    -5.870      3.206      5.422
REMARK INTER + INTRA:          -7.747
REMARK INTER:                  -7.203
REMARK INTRA:                  -0.544
REMARK UNBOUND:                -0.505
REMARK  Name = 
REMARK  4 active torsions:
REMARK  status: ('A' for Active; 'I' for Inactive)
REMARK    1  A    between atoms: C_2  and  C_3
REMARK    2  A    between atoms: N_6  and  C_7
REMARK    3  A    between atoms: C_7  and  C_8
REMARK    4  A    between atoms: C_12  and  C_13
REMARK                            x       y       z     vdW  Elec       q    Type
REMARK                         _______ _______ _______ _____ _____    ______ ____
ROOT
ATOM      1  C   UNL     1      46.882   8.138  12.918  0.00  0.00    +0.000 A 
ATOM      2  C   UNL     1      46.012   9.116  12.454  0.00  0.00    +0.000 A 
ATOM      3  N   UNL     1      44.878   8.863  11.762  0.00  0.00    +0.000 NA
ATOM      4  C   UNL     1      44.579   7.564  11.520  0.00  0.00    +0.000 A 
ATOM      5  C   UNL     1      45.369   6.495  11.924  0.00  0.00    +0.000 A 
ATOM      6  C   UNL     1      46.546   6.809  12.629  0.00  0.00    +0.000 A 
ENDROOT
BRANCH   5   7
ATOM      7  C   UNL     1      44.993   5.048  11.695  0.00  0.00    +0.000 C 
ATOM      8  C   UNL     1      43.830   4.607  12.597  0.00  0.00    +0.000 C 
ATOM      9  C   UNL     1      43.672   3.089  12.503  0.00  0.00    +0.000 C 
ATOM     10  N   UNL     1      43.432   2.636  11.131  0.00  0.00    +0.000 NA
ATOM     11  C   UNL     1      44.448   3.124  10.192  0.00  0.00    +0.000 C 
ATOM     12  C   UNL     1      44.631   4.646  10.255  0.00  0.00    +0.000 C 
ATOM     13  H   UNL     1      42.512   2.954  10.827  0.00  0.00    +0.000 HD
ENDBRANCH   5   7
BRANCH   1  14
ATOM     14  C   UNL     1      48.109   8.506  13.717  0.00  0.00    +0.000 C 
BRANCH  14  18
ATOM     15  C   UNL     1      49.292   6.885  17.261  0.00  0.00    +0.000 A 
ATOM     16  N   UNL     1      48.876   7.430  16.084  0.00  0.00    +0.000 NA
ATOM     17  C   UNL     1      48.147   8.565  16.131  0.00  0.00    +0.000 A 
ATOM     18  N   UNL     1      47.736   9.199  14.946  0.00  0.00    +0.000 N 
ATOM     19  C   UNL     1      47.835   9.176  17.349  0.00  0.00    +0.000 A 
ATOM     20  C   UNL     1      48.271   8.608  18.546  0.00  0.00    +0.000 A 
ATOM     21  C   UNL     1      49.013   7.439  18.501  0.00  0.00    +0.000 A 
ATOM     22  F   UNL     1      49.445   6.880  19.638  0.00  0.00    +0.000 F 
ATOM     23  H   UNL     1      46.740   9.400  14.989  0.00  0.00    +0.000 HD
BRANCH  15  25
ATOM     24  N   UNL     1      50.672   4.691  17.079  0.00  0.00    +0.000 NA
ATOM     25  C   UNL     1      50.055   5.675  17.159  0.00  0.00    +0.000 C 
ENDBRANCH  15  25
ENDBRANCH  14  18
ENDBRANCH   1  14
TORSDOF 4
ENDMDL
MODEL 9
REMARK VINA RESULT:    -5.769      3.813      6.390
REMARK INTER + INTRA:          -7.623
REMARK INTER:                  -7.049
REMARK INTRA:                  -0.574
REMARK UNBOUND:                -0.505
REMARK  Name = 
REMARK  4 active torsions:
REMARK  status: ('A' for Active; 'I' for Inactive)
REMARK    1  A    between atoms: C_2  and  C_3
REMARK    2  A    between atoms: N_6  and  C_7
REMARK    3  A    between atoms: C_7  and  C_8
REMARK    4  A    between atoms: C_12  and  C_13
REMARK                            x       y       z     vdW  Elec       q    Type
REMARK                         _______ _______ _______ _____ _____    ______ ____
ROOT
ATOM      1  C   UNL     1      48.361   6.681  13.905  0.00  0.00    +0.000 A 
ATOM      2  C   UNL     1      48.783   7.411  12.803  0.00  0.00    +0.000 A 
ATOM      3  N   UNL     1      48.132   7.450  11.618  0.00  0.00    +0.000 NA
ATOM      4  C   UNL     1      46.988   6.732  11.518  0.00  0.00    +0.000 A 
ATOM      5  C   UNL     1      46.463   5.957  12.544  0.00  0.00    +0.000 A 
ATOM      6  C   UNL     1      47.184   5.936  13.753  0.00  0.00    +0.000 A 
ENDROOT
BRANCH   5   7
ATOM      7  C   UNL     1      45.155   5.205  12.435  0.00  0.00    +0.000 C 
ATOM      8  C   UNL     1      44.302   5.706  11.260  0.00  0.00    +0.000 C 
ATOM      9  C   UNL     1      42.904   5.093  11.360  0.00  0.00    +0.000 C 
ATOM     10  N   UNL     1      42.936   3.628  11.359  0.00  0.00    +0.000 NA
ATOM     11  C   UNL     1      43.829   3.085  12.387  0.00  0.00    +0.000 C 
ATOM     12  C   UNL     1      45.243   3.674  12.314  0.00  0.00    +0.000 C 
ATOM     13  H   UNL     1      43.236   3.298  10.442  0.00  0.00    +0.000 HD
ENDBRANCH   5   7
BRANCH   1  14
ATOM     14  C   UNL     1      49.128   6.722  15.205  0.00  0.00    +0.000 C 
BRANCH  14  18
ATOM     15  C   UNL     1      48.236   8.081  18.938  0.00  0.00    +0.000 A 
ATOM     16  N   UNL     1      48.544   7.609  17.699  0.00  0.00    +0.000 NA
ATOM     17  C   UNL     1      48.319   6.304  17.441  0.00  0.00    +0.000 A 
ATOM     18  N   UNL     1      48.569   5.774  16.164  0.00  0.00    +0.000 N 
ATOM     19  C   UNL     1      47.773   5.458  18.411  0.00  0.00    +0.000 A 
ATOM     20  C   UNL     1      47.459   5.957  19.675  0.00  0.00    +0.000 A 
ATOM     21  C   UNL     1      47.696   7.295  19.945  0.00  0.00    +0.000 A 
ATOM     22  F   UNL     1      47.398   7.794  21.150  0.00  0.00    +0.000 F 
ATOM     23  H   UNL     1      49.130   4.929  16.243  0.00  0.00    +0.000 HD
BRANCH  15  25
ATOM     24  N   UNL     1      48.721  10.600  19.353  0.00  0.00    +0.000 NA
ATOM     25  C   UNL     1      48.502   9.473  19.166  0.00  0.00    +0.000 C 
ENDBRANCH  15  25
ENDBRANCH  14  18
ENDBRANCH   1  14
TORSDOF 4
ENDMDL
