MODEL 1
REMARK VINA RESULT:    -7.195      0.000      0.000
REMARK INTER + INTRA:         -11.090
REMARK INTER:                  -9.719
REMARK INTRA:                  -1.371
REMARK UNBOUND:                -1.371
REMARK  Name = 
REMARK  6 active torsions:
REMARK  status: ('A' for Active; 'I' for Inactive)
REMARK    1  A    between atoms: C_4  and  N_5
REMARK    2  A    between atoms: N_5  and  C_6
REMARK    3  A    between atoms: C_6  and  C_7
REMARK    4  A    between atoms: C_11  and  C_12
REMARK    5  A    between atoms: C_20  and  C_21
REMARK    6  A    between atoms: C_25  and  C_26
REMARK                            x       y       z     vdW  Elec       q    Type
REMARK                         _______ _______ _______ _____ _____    ______ ____
ROOT
ATOM      1  F   UNL     1      48.445   5.629  13.130  0.00  0.00    +0.000 F 
ATOM      2  C   UNL     1      47.495   6.529  12.828  0.00  0.00    +0.000 A 
ATOM      3  C   UNL     1      46.168   6.094  12.877  0.00  0.00    +0.000 A 
ATOM      4  C   UNL     1      45.115   6.959  12.582  0.00  0.00    +0.000 A 
ATOM      5  C   UNL     1      45.434   8.256  12.191  0.00  0.00    +0.000 A 
ATOM      6  C   UNL     1      46.767   8.682  12.148  0.00  0.00    +0.000 A 
ATOM      7  F   UNL     1      46.985   9.958  11.788  0.00  0.00    +0.000 F 
ATOM      8  C   UNL     1      47.842   7.837  12.459  0.00  0.00    +0.000 A 
ENDROOT
BRANCH   8   9
ATOM      9  C   UNL     1      49.253   8.279  12.359  0.00  0.00    +0.000 A 
ATOM     10  C   UNL     1      49.821   9.165  13.292  0.00  0.00    +0.000 A 
ATOM     11  C   UNL     1      51.168   9.536  13.222  0.00  0.00    +0.000 A 
ATOM     12  C   UNL     1      51.980   9.037  12.208  0.00  0.00    +0.000 A 
ATOM     13  C   UNL     1      51.451   8.163  11.253  0.00  0.00    +0.000 A 
ATOM     14  C   UNL     1      50.095   7.799  11.339  0.00  0.00    +0.000 A 
BRANCH  13  15
ATOM     15  C   UNL     1      52.303   7.592  10.148  0.00  0.00    +0.000 C 
ATOM     16  F   UNL     1      51.592   6.912   9.206  0.00  0.00    +0.000 F 
ATOM     17  F   UNL     1      52.990   8.555   9.472  0.00  0.00    +0.000 F 
ATOM     18  F   UNL     1      53.242   6.720  10.608  0.00  0.00    +0.000 F 
ENDBRANCH  13  15
ENDBRANCH   8   9
BRANCH   4  19
ATOM     19  N   UNL     1      43.816   6.449  12.628  0.00  0.00    +0.000 N 
ATOM     20  H   UNL     1      43.764   5.665  13.281  0.00  0.00    +0.000 HD
BRANCH  19  21
ATOM     21  C   UNL     1      43.145   6.115  11.369  0.00  0.00    +0.000 C 
BRANCH  21  22
ATOM     22  C   UNL     1      43.627   4.765  10.870  0.00  0.00    +0.000 A 
ATOM     23  C   UNL     1      43.214   3.608  11.510  0.00  0.00    +0.000 A 
ATOM     24  C   UNL     1      43.682   2.425  10.989  0.00  0.00    +0.000 A 
ATOM     25  N   UNL     1      44.484   2.354   9.916  0.00  0.00    +0.000 NA
ATOM     26  C   UNL     1      44.849   3.525   9.337  0.00  0.00    +0.000 A 
ATOM     27  N   UNL     1      44.440   4.740   9.790  0.00  0.00    +0.000 NA
BRANCH  26  28
ATOM     28  C   UNL     1      45.757   3.481   8.102  0.00  0.00    +0.000 C 
ATOM     29  F   UNL     1      46.600   2.403   8.066  0.00  0.00    +0.000 F 
ATOM     30  F   UNL     1      45.059   3.428   6.927  0.00  0.00    +0.000 F 
ATOM     31  F   UNL     1      46.570   4.576   7.995  0.00  0.00    +0.000 F 
ENDBRANCH  26  28
ENDBRANCH  21  22
ENDBRANCH  19  21
ENDBRANCH   4  19
TORSDOF 6
ENDMDL
MODEL 2
REMARK VINA RESULT:    -7.037      4.637      6.334
REMARK INTER + INTRA:         -10.877
REMARK INTER:                  -9.689
REMARK INTRA:                  -1.187
REMARK UNBOUND:                -1.371
REMARK  Name = 
REMARK  6 active torsions:
REMARK  status: ('A' for Active; 'I' for Inactive)
REMARK    1  A    between atoms: C_4  and  N_5
REMARK    2  A    between atoms: N_5  and  C_6
REMARK    3  A    between atoms: C_6  and  C_7
REMARK    4  A    between atoms: C_11  and  C_12
REMARK    5  A    between atoms: C_20  and  C_21
REMARK    6  A    between atoms: C_25  and  C_26
REMARK                            x       y       z     vdW  Elec       q    Type
REMARK                         _______ _______ _______ _____ _____    ______ ____
ROOT
ATOM      1  F   UNL     1      49.768   7.467  15.777  0.00  0.00    +0.000 F 
ATOM      2  C   UNL     1      48.836   6.588  15.375  0.00  0.00    +0.000 A 
ATOM      3  C   UNL     1      48.223   6.829  14.143  0.00  0.00    +0.000 A 
ATOM      4  C   UNL     1      47.247   5.968  13.642  0.00  0.00    +0.000 A 
ATOM      5  C   UNL     1      46.870   4.887  14.435  0.00  0.00    +0.000 A 
ATOM      6  C   UNL     1      47.493   4.654  15.666  0.00  0.00    +0.000 A 
ATOM      7  F   UNL     1      47.091   3.572  16.354  0.00  0.00    +0.000 F 
ATOM      8  C   UNL     1      48.492   5.494  16.182  0.00  0.00    +0.000 A 
ENDROOT
BRANCH   8   9
ATOM      9  C   UNL     1      49.108   5.270  17.511  0.00  0.00    +0.000 A 
ATOM     10  C   UNL     1      50.408   4.751  17.648  0.00  0.00    +0.000 A 
ATOM     11  C   UNL     1      51.003   4.593  18.904  0.00  0.00    +0.000 A 
ATOM     12  C   UNL     1      50.307   4.940  20.059  0.00  0.00    +0.000 A 
ATOM     13  C   UNL     1      49.008   5.449  19.966  0.00  0.00    +0.000 A 
ATOM     14  C   UNL     1      48.424   5.603  18.694  0.00  0.00    +0.000 A 
BRANCH  13  15
ATOM     15  C   UNL     1      48.228   5.848  21.192  0.00  0.00    +0.000 C 
ATOM     16  F   UNL     1      48.541   7.088  21.660  0.00  0.00    +0.000 F 
ATOM     17  F   UNL     1      46.883   5.864  20.971  0.00  0.00    +0.000 F 
ATOM     18  F   UNL     1      48.422   4.996  22.237  0.00  0.00    +0.000 F 
ENDBRANCH  13  15
ENDBRANCH   8   9
BRANCH   4  19
ATOM     19  N   UNL     1      46.660   6.285  12.416  0.00  0.00    +0.000 N 
ATOM     20  H   UNL     1      47.041   7.162  12.056  0.00  0.00    +0.000 HD
BRANCH  19  21
ATOM     21  C   UNL     1      45.199   6.277  12.310  0.00  0.00    +0.000 C 
BRANCH  21  22
ATOM     22  C   UNL     1      44.741   5.020  11.595  0.00  0.00    +0.000 A 
ATOM     23  C   UNL     1      43.796   4.198  12.185  0.00  0.00    +0.000 A 
ATOM     24  C   UNL     1      43.422   3.087  11.468  0.00  0.00    +0.000 A 
ATOM     25  N   UNL     1      43.914   2.787  10.256  0.00  0.00    +0.000 NA
ATOM     26  C   UNL     1      44.835   3.636   9.735  0.00  0.00    +0.000 A 
ATOM     27  N   UNL     1      45.267   4.753  10.378  0.00  0.00    +0.000 NA
BRANCH  26  28
ATOM     28  C   UNL     1      45.411   3.330   8.347  0.00  0.00    +0.000 C 
ATOM     29  F   UNL     1      46.334   4.241   7.911  0.00  0.00    +0.000 F 
ATOM     30  F   UNL     1      46.046   2.120   8.287  0.00  0.00    +0.000 F 
ATOM     31  F   UNL     1      44.456   3.290   7.368  0.00  0.00    +0.000 F 
ENDBRANCH  26  28
ENDBRANCH  21  22
ENDBRANCH  19  21
ENDBRANCH   4  19
TORSDOF 6
ENDMDL
MODEL 3
REMARK VINA RESULT:    -6.921      4.565      5.417
REMARK INTER + INTRA:         -10.720
REMARK INTER:                  -9.506
REMARK INTRA:                  -1.214
REMARK UNBOUND:                -1.371
REMARK  Name = 
REMARK  6 active torsions:
REMARK  status: ('A' for Active; 'I' for Inactive)
REMARK    1  A    between atoms: C_4  and  N_5
REMARK    2  A    between atoms: N_5  and  C_6
REMARK    3  A    between atoms: C_6  and  C_7
REMARK    4  A    between atoms: C_11  and  C_12
REMARK    5  A    between atoms: C_20  and  C_21
REMARK    6  A    between atoms: C_25  and  C_26
REMARK                            x       y       z     vdW  Elec       q    Type
REMARK                         _______ _______ _______ _____ _____    ______ ____
ROOT
ATOM      1  F   UNL     1      47.379   3.508  16.667  0.00  0.00    +0.000 F 
ATOM      2  C   UNL     1      47.678   4.588  15.929  0.00  0.00    +0.000 A 
ATOM      3  C   UNL     1      46.973   4.757  14.734  0.00  0.00    +0.000 A 
ATOM      4  C   UNL     1      47.213   5.852  13.904  0.00  0.00    +0.000 A 
ATOM      5  C   UNL     1      48.213   6.744  14.283  0.00  0.00    +0.000 A 
ATOM      6  C   UNL     1      48.911   6.566  15.484  0.00  0.00    +0.000 A 
ATOM      7  F   UNL     1      49.839   7.488  15.788  0.00  0.00    +0.000 F 
ATOM      8  C   UNL     1      48.673   5.484  16.345  0.00  0.00    +0.000 A 
ENDROOT
BRANCH   8   9
ATOM      9  C   UNL     1      49.454   5.274  17.587  0.00  0.00    +0.000 A 
ATOM     10  C   UNL     1      49.024   5.776  18.828  0.00  0.00    +0.000 A 
ATOM     11  C   UNL     1      49.737   5.527  20.005  0.00  0.00    +0.000 A 
ATOM     12  C   UNL     1      50.909   4.776  19.968  0.00  0.00    +0.000 A 
ATOM     13  C   UNL     1      51.377   4.268  18.753  0.00  0.00    +0.000 A 
ATOM     14  C   UNL     1      50.646   4.527  17.579  0.00  0.00    +0.000 A 
BRANCH  13  15
ATOM     15  C   UNL     1      52.634   3.440  18.676  0.00  0.00    +0.000 C 
ATOM     16  F   UNL     1      52.465   2.247  18.039  0.00  0.00    +0.000 F 
ATOM     17  F   UNL     1      53.637   4.078  18.009  0.00  0.00    +0.000 F 
ATOM     18  F   UNL     1      53.138   3.138  19.905  0.00  0.00    +0.000 F 
ENDBRANCH  13  15
ENDBRANCH   8   9
BRANCH   4  19
ATOM     19  N   UNL     1      46.489   5.943  12.714  0.00  0.00    +0.000 N 
ATOM     20  H   UNL     1      46.760   6.781  12.196  0.00  0.00    +0.000 HD
BRANCH  19  21
ATOM     21  C   UNL     1      45.031   5.818  12.764  0.00  0.00    +0.000 C 
BRANCH  21  22
ATOM     22  C   UNL     1      44.587   4.622  11.942  0.00  0.00    +0.000 A 
ATOM     23  C   UNL     1      43.617   3.769  12.440  0.00  0.00    +0.000 A 
ATOM     24  C   UNL     1      43.258   2.717  11.629  0.00  0.00    +0.000 A 
ATOM     25  N   UNL     1      43.787   2.504  10.415  0.00  0.00    +0.000 NA
ATOM     26  C   UNL     1      44.731   3.380   9.988  0.00  0.00    +0.000 A 
ATOM     27  N   UNL     1      45.150   4.442  10.726  0.00  0.00    +0.000 NA
BRANCH  26  28
ATOM     28  C   UNL     1      45.349   3.173   8.600  0.00  0.00    +0.000 C 
ATOM     29  F   UNL     1      46.103   2.037   8.487  0.00  0.00    +0.000 F 
ATOM     30  F   UNL     1      44.413   3.082   7.607  0.00  0.00    +0.000 F 
ATOM     31  F   UNL     1      46.180   4.194   8.226  0.00  0.00    +0.000 F 
ENDBRANCH  26  28
ENDBRANCH  21  22
ENDBRANCH  19  21
ENDBRANCH   4  19
TORSDOF 6
ENDMDL
MODEL 4
REMARK VINA RESULT:    -6.901      1.915      2.466
REMARK INTER + INTRA:         -10.693
REMARK INTER:                  -9.334
REMARK INTRA:                  -1.359
REMARK UNBOUND:                -1.371
REMARK  Name = 
REMARK  6 active torsions:
REMARK  status: ('A' for Active; 'I' for Inactive)
REMARK    1  A    between atoms: C_4  and  N_5
REMARK    2  A    between atoms: N_5  and  C_6
REMARK    3  A    between atoms: C_6  and  C_7
REMARK    4  A    between atoms: C_11  and  C_12
REMARK    5  A    between atoms: C_20  and  C_21
REMARK    6  A    between atoms: C_25  and  C_26
REMARK                            x       y       z     vdW  Elec       q    Type
REMARK                         _______ _______ _______ _____ _____    ______ ____
ROOT
ATOM      1  F   UNL     1      47.896   5.191  13.822  0.00  0.00    +0.000 F 
ATOM      2  C   UNL     1      47.041   6.080  13.292  0.00  0.00    +0.000 A 
ATOM      3  C   UNL     1      45.689   5.726  13.267  0.00  0.00    +0.000 A 
ATOM      4  C   UNL     1      44.727   6.588  12.740  0.00  0.00    +0.000 A 
ATOM      5  C   UNL     1      45.167   7.791  12.195  0.00  0.00    +0.000 A 
ATOM      6  C   UNL     1      46.523   8.137  12.228  0.00  0.00    +0.000 A 
ATOM      7  F   UNL     1      46.858   9.329  11.707  0.00  0.00    +0.000 F 
ATOM      8  C   UNL     1      47.507   7.296  12.771  0.00  0.00    +0.000 A 
ENDROOT
BRANCH   8   9
ATOM      9  C   UNL     1      48.946   7.646  12.753  0.00  0.00    +0.000 A 
ATOM     10  C   UNL     1      49.673   7.737  11.553  0.00  0.00    +0.000 A 
ATOM     11  C   UNL     1      51.018   8.121  11.539  0.00  0.00    +0.000 A 
ATOM     12  C   UNL     1      51.675   8.412  12.731  0.00  0.00    +0.000 A 
ATOM     13  C   UNL     1      50.992   8.322  13.948  0.00  0.00    +0.000 A 
ATOM     14  C   UNL     1      49.639   7.937  13.942  0.00  0.00    +0.000 A 
BRANCH  13  15
ATOM     15  C   UNL     1      51.667   8.643  15.257  0.00  0.00    +0.000 C 
ATOM     16  F   UNL     1      52.115   9.927  15.341  0.00  0.00    +0.000 F 
ATOM     17  F   UNL     1      50.838   8.469  16.325  0.00  0.00    +0.000 F 
ATOM     18  F   UNL     1      52.750   7.854  15.494  0.00  0.00    +0.000 F 
ENDBRANCH  13  15
ENDBRANCH   8   9
BRANCH   4  19
ATOM     19  N   UNL     1      43.400   6.157  12.726  0.00  0.00    +0.000 N 
ATOM     20  H   UNL     1      43.256   5.424  13.422  0.00  0.00    +0.000 HD
BRANCH  19  21
ATOM     21  C   UNL     1      42.795   5.778  11.447  0.00  0.00    +0.000 C 
BRANCH  21  22
ATOM     22  C   UNL     1      43.434   4.502  10.932  0.00  0.00    +0.000 A 
ATOM     23  C   UNL     1      43.186   3.301  11.575  0.00  0.00    +0.000 A 
ATOM     24  C   UNL     1      43.790   2.188  11.040  0.00  0.00    +0.000 A 
ATOM     25  N   UNL     1      44.572   2.221   9.950  0.00  0.00    +0.000 NA
ATOM     26  C   UNL     1      44.771   3.431   9.368  0.00  0.00    +0.000 A 
ATOM     27  N   UNL     1      44.220   4.583   9.834  0.00  0.00    +0.000 NA
BRANCH  26  28
ATOM     28  C   UNL     1      45.651   3.505   8.114  0.00  0.00    +0.000 C 
ATOM     29  F   UNL     1      46.541   2.472   7.993  0.00  0.00    +0.000 F 
ATOM     30  F   UNL     1      44.928   3.493   6.953  0.00  0.00    +0.000 F 
ATOM     31  F   UNL     1      46.411   4.641   8.059  0.00  0.00    +0.000 F 
ENDBRANCH  26  28
ENDBRANCH  21  22
ENDBRANCH  19  21
ENDBRANCH   4  19
TORSDOF 6
ENDMDL
MODEL 5
REMARK VINA RESULT:    -6.808      3.915      8.253
REMARK INTER + INTRA:         -10.567
REMARK INTER:                  -9.276
REMARK INTRA:                  -1.291
REMARK UNBOUND:                -1.371
REMARK  Name = 
REMARK  6 active torsions:
REMARK  status: ('A' for Active; 'I' for Inactive)
REMARK    1  A    between atoms: C_4  and  N_5
REMARK    2  A    between atoms: N_5  and  C_6
REMARK    3  A    between atoms: C_6  and  C_7
REMARK    4  A    between atoms: C_11  and  C_12
REMARK    5  A    between atoms: C_20  and  C_21
REMARK    6  A    between atoms: C_25  and  C_26
REMARK                            x       y       z     vdW  Elec       q    Type
REMARK                         _______ _______ _______ _____ _____    ______ ____
ROOT
ATOM      1  F   UNL     1      47.572   4.931  13.337  0.00  0.00    +0.000 F 
ATOM      2  C   UNL     1      47.039   6.149  13.154  0.00  0.00    +0.000 A 
ATOM      3  C   UNL     1      47.625   7.211  13.847  0.00  0.00    +0.000 A 
ATOM      4  C   UNL     1      47.141   8.513  13.716  0.00  0.00    +0.000 A 
ATOM      5  C   UNL     1      46.024   8.709  12.908  0.00  0.00    +0.000 A 
ATOM      6  C   UNL     1      45.446   7.637  12.216  0.00  0.00    +0.000 A 
ATOM      7  F   UNL     1      44.389   7.918  11.435  0.00  0.00    +0.000 F 
ATOM      8  C   UNL     1      45.927   6.323  12.316  0.00  0.00    +0.000 A 
ENDROOT
BRANCH   8   9
ATOM      9  C   UNL     1      45.278   5.186  11.623  0.00  0.00    +0.000 A 
ATOM     10  C   UNL     1      44.250   4.439  12.225  0.00  0.00    +0.000 A 
ATOM     11  C   UNL     1      43.604   3.402  11.544  0.00  0.00    +0.000 A 
ATOM     12  C   UNL     1      43.979   3.078  10.243  0.00  0.00    +0.000 A 
ATOM     13  C   UNL     1      45.004   3.789   9.612  0.00  0.00    +0.000 A 
ATOM     14  C   UNL     1      45.642   4.830  10.312  0.00  0.00    +0.000 A 
BRANCH  13  15
ATOM     15  C   UNL     1      45.429   3.475   8.200  0.00  0.00    +0.000 C 
ATOM     16  F   UNL     1      44.408   3.526   7.299  0.00  0.00    +0.000 F 
ATOM     17  F   UNL     1      46.375   4.340   7.738  0.00  0.00    +0.000 F 
ATOM     18  F   UNL     1      45.970   2.232   8.080  0.00  0.00    +0.000 F 
ENDBRANCH  13  15
ENDBRANCH   8   9
BRANCH   4  19
ATOM     19  N   UNL     1      47.760   9.520  14.458  0.00  0.00    +0.000 N 
ATOM     20  H   UNL     1      48.042  10.289  13.847  0.00  0.00    +0.000 HD
BRANCH  19  21
ATOM     21  C   UNL     1      48.850   9.158  15.366  0.00  0.00    +0.000 C 
BRANCH  21  22
ATOM     22  C   UNL     1      48.350   9.159  16.799  0.00  0.00    +0.000 A 
ATOM     23  C   UNL     1      48.051  10.359  17.422  0.00  0.00    +0.000 A 
ATOM     24  C   UNL     1      47.589  10.275  18.714  0.00  0.00    +0.000 A 
ATOM     25  N   UNL     1      47.412   9.114  19.364  0.00  0.00    +0.000 NA
ATOM     26  C   UNL     1      47.722   7.976  18.693  0.00  0.00    +0.000 A 
ATOM     27  N   UNL     1      48.192   7.967  17.417  0.00  0.00    +0.000 NA
BRANCH  26  28
ATOM     28  C   UNL     1      47.523   6.630  19.402  0.00  0.00    +0.000 C 
ATOM     29  F   UNL     1      46.501   5.876  18.893  0.00  0.00    +0.000 F 
ATOM     30  F   UNL     1      48.628   5.826  19.340  0.00  0.00    +0.000 F 
ATOM     31  F   UNL     1      47.242   6.763  20.734  0.00  0.00    +0.000 F 
ENDBRANCH  26  28
ENDBRANCH  21  22
ENDBRANCH  19  21
ENDBRANCH   4  19
TORSDOF 6
ENDMDL
MODEL 6
REMARK VINA RESULT:    -6.700      4.109      5.308
REMARK INTER + INTRA:         -10.422
REMARK INTER:                  -9.327
REMARK INTRA:                  -1.095
REMARK UNBOUND:                -1.371
REMARK  Name = 
REMARK  6 active torsions:
REMARK  status: ('A' for Active; 'I' for Inactive)
REMARK    1  A    between atoms: C_4  and  N_5
REMARK    2  A    between atoms: N_5  and  C_6
REMARK    3  A    between atoms: C_6  and  C_7
REMARK    4  A    between atoms: C_11  and  C_12
REMARK    5  A    between atoms: C_20  and  C_21
REMARK    6  A    between atoms: C_25  and  C_26
REMARK                            x       y       z     vdW  Elec       q    Type
REMARK                         _______ _______ _______ _____ _____    ______ ____
ROOT
ATOM      1  F   UNL     1      49.537   8.080  15.134  0.00  0.00    +0.000 F 
ATOM      2  C   UNL     1      48.720   7.096  14.728  0.00  0.00    +0.000 A 
ATOM      3  C   UNL     1      48.143   7.229  13.462  0.00  0.00    +0.000 A 
ATOM      4  C   UNL     1      47.284   6.254  12.955  0.00  0.00    +0.000 A 
ATOM      5  C   UNL     1      46.983   5.169  13.774  0.00  0.00    +0.000 A 
ATOM      6  C   UNL     1      47.569   5.045  15.039  0.00  0.00    +0.000 A 
ATOM      7  F   UNL     1      47.247   3.952  15.752  0.00  0.00    +0.000 F 
ATOM      8  C   UNL     1      48.451   6.001  15.563  0.00  0.00    +0.000 A 
ENDROOT
BRANCH   8   9
ATOM      9  C   UNL     1      49.025   5.889  16.925  0.00  0.00    +0.000 A 
ATOM     10  C   UNL     1      48.432   6.519  18.034  0.00  0.00    +0.000 A 
ATOM     11  C   UNL     1      48.948   6.364  19.325  0.00  0.00    +0.000 A 
ATOM     12  C   UNL     1      50.080   5.582  19.538  0.00  0.00    +0.000 A 
ATOM     13  C   UNL     1      50.706   4.949  18.460  0.00  0.00    +0.000 A 
ATOM     14  C   UNL     1      50.173   5.114  17.168  0.00  0.00    +0.000 A 
BRANCH  13  15
ATOM     15  C   UNL     1      51.925   4.084  18.654  0.00  0.00    +0.000 C 
ATOM     16  F   UNL     1      53.036   4.555  18.021  0.00  0.00    +0.000 F 
ATOM     17  F   UNL     1      52.271   3.960  19.967  0.00  0.00    +0.000 F 
ATOM     18  F   UNL     1      51.745   2.815  18.195  0.00  0.00    +0.000 F 
ENDBRANCH  13  15
ENDBRANCH   8   9
BRANCH   4  19
ATOM     19  N   UNL     1      46.726   6.466  11.694  0.00  0.00    +0.000 N 
ATOM     20  H   UNL     1      47.190   7.246  11.225  0.00  0.00    +0.000 HD
BRANCH  19  21
ATOM     21  C   UNL     1      45.271   6.589  11.578  0.00  0.00    +0.000 C 
BRANCH  21  22
ATOM     22  C   UNL     1      44.651   5.216  11.390  0.00  0.00    +0.000 A 
ATOM     23  C   UNL     1      43.713   4.756  12.298  0.00  0.00    +0.000 A 
ATOM     24  C   UNL     1      43.187   3.510  12.051  0.00  0.00    +0.000 A 
ATOM     25  N   UNL     1      43.528   2.758  10.993  0.00  0.00    +0.000 NA
ATOM     26  C   UNL     1      44.451   3.271  10.141  0.00  0.00    +0.000 A 
ATOM     27  N   UNL     1      45.028   4.490  10.313  0.00  0.00    +0.000 NA
BRANCH  26  28
ATOM     28  C   UNL     1      44.858   2.443   8.916  0.00  0.00    +0.000 C 
ATOM     29  F   UNL     1      44.561   3.035   7.718  0.00  0.00    +0.000 F 
ATOM     30  F   UNL     1      46.200   2.187   8.866  0.00  0.00    +0.000 F 
ATOM     31  F   UNL     1      44.250   1.218   8.871  0.00  0.00    +0.000 F 
ENDBRANCH  26  28
ENDBRANCH  21  22
ENDBRANCH  19  21
ENDBRANCH   4  19
TORSDOF 6
ENDMDL
MODEL 7
REMARK VINA RESULT:    -6.684      4.011      8.338
REMARK INTER + INTRA:         -10.400
REMARK INTER:                  -9.036
REMARK INTRA:                  -1.363
REMARK UNBOUND:                -1.371
REMARK  Name = 
REMARK  6 active torsions:
REMARK  status: ('A' for Active; 'I' for Inactive)
REMARK    1  A    between atoms: C_4  and  N_5
REMARK    2  A    between atoms: N_5  and  C_6
REMARK    3  A    between atoms: C_6  and  C_7
REMARK    4  A    between atoms: C_11  and  C_12
REMARK    5  A    between atoms: C_20  and  C_21
REMARK    6  A    between atoms: C_25  and  C_26
REMARK                            x       y       z     vdW  Elec       q    Type
REMARK                         _______ _______ _______ _____ _____    ______ ____
ROOT
ATOM      1  F   UNL     1      44.870   8.511  12.271  0.00  0.00    +0.000 F 
ATOM      2  C   UNL     1      45.947   7.959  12.852  0.00  0.00    +0.000 A 
ATOM      3  C   UNL     1      46.808   8.817  13.542  0.00  0.00    +0.000 A 
ATOM      4  C   UNL     1      47.950   8.333  14.180  0.00  0.00    +0.000 A 
ATOM      5  C   UNL     1      48.228   6.974  14.063  0.00  0.00    +0.000 A 
ATOM      6  C   UNL     1      47.358   6.124  13.371  0.00  0.00    +0.000 A 
ATOM      7  F   UNL     1      47.686   4.821  13.332  0.00  0.00    +0.000 F 
ATOM      8  C   UNL     1      46.193   6.583  12.739  0.00  0.00    +0.000 A 
ENDROOT
BRANCH   8   9
ATOM      9  C   UNL     1      45.305   5.685  11.964  0.00  0.00    +0.000 A 
ATOM     10  C   UNL     1      44.022   5.335  12.419  0.00  0.00    +0.000 A 
ATOM     11  C   UNL     1      43.169   4.531  11.656  0.00  0.00    +0.000 A 
ATOM     12  C   UNL     1      43.584   4.046  10.419  0.00  0.00    +0.000 A 
ATOM     13  C   UNL     1      44.857   4.361   9.935  0.00  0.00    +0.000 A 
ATOM     14  C   UNL     1      45.701   5.173  10.715  0.00  0.00    +0.000 A 
BRANCH  13  15
ATOM     15  C   UNL     1      45.335   3.866   8.594  0.00  0.00    +0.000 C 
ATOM     16  F   UNL     1      45.824   2.594   8.624  0.00  0.00    +0.000 F 
ATOM     17  F   UNL     1      44.345   3.860   7.658  0.00  0.00    +0.000 F 
ATOM     18  F   UNL     1      46.333   4.635   8.077  0.00  0.00    +0.000 F 
ENDBRANCH  13  15
ENDBRANCH   8   9
BRANCH   4  19
ATOM     19  N   UNL     1      48.776   9.252  14.829  0.00  0.00    +0.000 N 
ATOM     20  H   UNL     1      49.341   9.765  14.150  0.00  0.00    +0.000 HD
BRANCH  19  21
ATOM     21  C   UNL     1      49.607   8.789  15.943  0.00  0.00    +0.000 C 
BRANCH  21  22
ATOM     22  C   UNL     1      48.779   8.730  17.214  0.00  0.00    +0.000 A 
ATOM     23  C   UNL     1      48.324   9.902  17.793  0.00  0.00    +0.000 A 
ATOM     24  C   UNL     1      47.568   9.765  18.933  0.00  0.00    +0.000 A 
ATOM     25  N   UNL     1      47.257   8.578  19.477  0.00  0.00    +0.000 NA
ATOM     26  C   UNL     1      47.733   7.469  18.857  0.00  0.00    +0.000 A 
ATOM     27  N   UNL     1      48.494   7.513  17.730  0.00  0.00    +0.000 NA
BRANCH  26  28
ATOM     28  C   UNL     1      47.387   6.095  19.444  0.00  0.00    +0.000 C 
ATOM     29  F   UNL     1      46.905   6.140  20.724  0.00  0.00    +0.000 F 
ATOM     30  F   UNL     1      46.433   5.431  18.724  0.00  0.00    +0.000 F 
ATOM     31  F   UNL     1      48.461   5.249  19.496  0.00  0.00    +0.000 F 
ENDBRANCH  26  28
ENDBRANCH  21  22
ENDBRANCH  19  21
ENDBRANCH   4  19
TORSDOF 6
ENDMDL
MODEL 8
REMARK VINA RESULT:    -6.531      2.647      7.416
REMARK INTER + INTRA:         -10.192
REMARK INTER:                  -8.703
REMARK INTRA:                  -1.490
REMARK UNBOUND:                -1.371
REMARK  Name = 
REMARK  6 active torsions:
REMARK  status: ('A' for Active; 'I' for Inactive)
REMARK    1  A    between atoms: C_4  and  N_5
REMARK    2  A    between atoms: N_5  and  C_6
REMARK    3  A    between atoms: C_6  and  C_7
REMARK    4  A    between atoms: C_11  and  C_12
REMARK    5  A    between atoms: C_20  and  C_21
REMARK    6  A    between atoms: C_25  and  C_26
REMARK                            x       y       z     vdW  Elec       q    Type
REMARK                         _______ _______ _______ _____ _____    ______ ____
ROOT
ATOM      1  F   UNL     1      44.395   7.901  11.441  0.00  0.00    +0.000 F 
ATOM      2  C   UNL     1      45.443   7.628  12.234  0.00  0.00    +0.000 A 
ATOM      3  C   UNL     1      46.078   8.713  12.845  0.00  0.00    +0.000 A 
ATOM      4  C   UNL     1      47.174   8.526  13.688  0.00  0.00    +0.000 A 
ATOM      5  C   UNL     1      47.642   7.226  13.860  0.00  0.00    +0.000 A 
ATOM      6  C   UNL     1      46.996   6.147  13.245  0.00  0.00    +0.000 A 
ATOM      7  F   UNL     1      47.495   4.923  13.487  0.00  0.00    +0.000 F 
ATOM      8  C   UNL     1      45.881   6.307  12.409  0.00  0.00    +0.000 A 
ENDROOT
BRANCH   8   9
ATOM      9  C   UNL     1      45.237   5.166  11.719  0.00  0.00    +0.000 A 
ATOM     10  C   UNL     1      44.209   4.418  12.321  0.00  0.00    +0.000 A 
ATOM     11  C   UNL     1      43.568   3.376  11.643  0.00  0.00    +0.000 A 
ATOM     12  C   UNL     1      43.948   3.047  10.344  0.00  0.00    +0.000 A 
ATOM     13  C   UNL     1      44.973   3.759   9.714  0.00  0.00    +0.000 A 
ATOM     14  C   UNL     1      45.606   4.805  10.410  0.00  0.00    +0.000 A 
BRANCH  13  15
ATOM     15  C   UNL     1      45.403   3.440   8.304  0.00  0.00    +0.000 C 
ATOM     16  F   UNL     1      44.377   3.442   7.407  0.00  0.00    +0.000 F 
ATOM     17  F   UNL     1      46.316   4.331   7.825  0.00  0.00    +0.000 F 
ATOM     18  F   UNL     1      45.987   2.215   8.199  0.00  0.00    +0.000 F 
ENDBRANCH  13  15
ENDBRANCH   8   9
BRANCH   4  19
ATOM     19  N   UNL     1      47.773   9.657  14.244  0.00  0.00    +0.000 N 
ATOM     20  H   UNL     1      47.424  10.503  13.791  0.00  0.00    +0.000 HD
BRANCH  19  21
ATOM     21  C   UNL     1      49.233   9.698  14.357  0.00  0.00    +0.000 C 
BRANCH  21  22
ATOM     22  C   UNL     1      49.849   9.948  12.993  0.00  0.00    +0.000 A 
ATOM     23  C   UNL     1      49.609  11.144  12.339  0.00  0.00    +0.000 A 
ATOM     24  C   UNL     1      50.215  11.301  11.115  0.00  0.00    +0.000 A 
ATOM     25  N   UNL     1      51.010  10.374  10.558  0.00  0.00    +0.000 NA
ATOM     26  C   UNL     1      51.205   9.226  11.254  0.00  0.00    +0.000 A 
ATOM     27  N   UNL     1      50.639   8.985  12.467  0.00  0.00    +0.000 NA
BRANCH  26  28
ATOM     28  C   UNL     1      52.116   8.149  10.652  0.00  0.00    +0.000 C 
ATOM     29  F   UNL     1      53.117   7.733  11.488  0.00  0.00    +0.000 F 
ATOM     30  F   UNL     1      51.441   7.011  10.306  0.00  0.00    +0.000 F 
ATOM     31  F   UNL     1      52.749   8.561   9.511  0.00  0.00    +0.000 F 
ENDBRANCH  26  28
ENDBRANCH  21  22
ENDBRANCH  19  21
ENDBRANCH   4  19
TORSDOF 6
ENDMDL
MODEL 9
REMARK VINA RESULT:    -6.398      4.286      8.044
REMARK INTER + INTRA:         -10.013
REMARK INTER:                  -9.121
REMARK INTRA:                  -0.891
REMARK UNBOUND:                -1.371
REMARK  Name = 
REMARK  6 active torsions:
REMARK  status: ('A' for Active; 'I' for Inactive)
REMARK    1  A    between atoms: C_4  and  N_5
REMARK    2  A    between atoms: N_5  and  C_6
REMARK    3  A    between atoms: C_6  and  C_7
REMARK    4  A    between atoms: C_11  and  C_12
REMARK    5  A    between atoms: C_20  and  C_21
REMARK    6  A    between atoms: C_25  and  C_26
REMARK                            x       y       z     vdW  Elec       q    Type
REMARK                         _______ _______ _______ _____ _____    ______ ____
ROOT
ATOM      1  F   UNL     1      47.057   8.188  11.625  0.00  0.00    +0.000 F 
ATOM      2  C   UNL     1      47.391   7.412  12.668  0.00  0.00    +0.000 A 
ATOM      3  C   UNL     1      48.467   7.832  13.455  0.00  0.00    +0.000 A 
ATOM      4  C   UNL     1      48.883   7.092  14.562  0.00  0.00    +0.000 A 
ATOM      5  C   UNL     1      48.220   5.897  14.826  0.00  0.00    +0.000 A 
ATOM      6  C   UNL     1      47.142   5.487  14.033  0.00  0.00    +0.000 A 
ATOM      7  F   UNL     1      46.540   4.336  14.375  0.00  0.00    +0.000 F 
ATOM      8  C   UNL     1      46.692   6.224  12.927  0.00  0.00    +0.000 A 
ENDROOT
BRANCH   8   9
ATOM      9  C   UNL     1      45.585   5.757  12.061  0.00  0.00    +0.000 A 
ATOM     10  C   UNL     1      44.238   6.019  12.370  0.00  0.00    +0.000 A 
ATOM     11  C   UNL     1      43.201   5.622  11.520  0.00  0.00    +0.000 A 
ATOM     12  C   UNL     1      43.485   4.940  10.340  0.00  0.00    +0.000 A 
ATOM     13  C   UNL     1      44.810   4.649  10.001  0.00  0.00    +0.000 A 
ATOM     14  C   UNL     1      45.841   5.058  10.867  0.00  0.00    +0.000 A 
BRANCH  13  15
ATOM     15  C   UNL     1      45.157   3.924   8.726  0.00  0.00    +0.000 C 
ATOM     16  F   UNL     1      44.134   3.881   7.826  0.00  0.00    +0.000 F 
ATOM     17  F   UNL     1      46.204   4.498   8.070  0.00  0.00    +0.000 F 
ATOM     18  F   UNL     1      45.517   2.629   8.941  0.00  0.00    +0.000 F 
ENDBRANCH  13  15
ENDBRANCH   8   9
BRANCH   4  19
ATOM     19  N   UNL     1      49.981   7.559  15.287  0.00  0.00    +0.000 N 
ATOM     20  H   UNL     1      50.852   7.242  14.857  0.00  0.00    +0.000 HD
BRANCH  19  21
ATOM     21  C   UNL     1      50.013   7.344  16.735  0.00  0.00    +0.000 C 
BRANCH  21  22
ATOM     22  C   UNL     1      50.792   6.080  17.051  0.00  0.00    +0.000 A 
ATOM     23  C   UNL     1      52.146   6.159  17.327  0.00  0.00    +0.000 A 
ATOM     24  C   UNL     1      52.778   4.973  17.618  0.00  0.00    +0.000 A 
ATOM     25  N   UNL     1      52.148   3.788  17.656  0.00  0.00    +0.000 NA
ATOM     26  C   UNL     1      50.821   3.783  17.378  0.00  0.00    +0.000 A 
ATOM     27  N   UNL     1      50.119   4.907  17.072  0.00  0.00    +0.000 NA
BRANCH  26  28
ATOM     28  C   UNL     1      50.067   2.448  17.422  0.00  0.00    +0.000 C 
ATOM     29  F   UNL     1      49.439   2.122  16.250  0.00  0.00    +0.000 F 
ATOM     30  F   UNL     1      50.881   1.385  17.700  0.00  0.00    +0.000 F 
ATOM     31  F   UNL     1      49.086   2.418  18.375  0.00  0.00    +0.000 F 
ENDBRANCH  26  28
ENDBRANCH  21  22
ENDBRANCH  19  21
ENDBRANCH   4  19
TORSDOF 6
ENDMDL
