MODEL 1
REMARK VINA RESULT:    -6.539      0.000      0.000
REMARK INTER + INTRA:         -11.204
REMARK INTER:                  -9.215
REMARK INTRA:                  -1.989
REMARK UNBOUND:                -1.989
REMARK  Name = 
REMARK  8 active torsions:
REMARK  status: ('A' for Active; 'I' for Inactive)
REMARK    1  A    between atoms: C_1  and  C_2
REMARK    2  A    between atoms: C_2  and  N_3
REMARK    3  A    between atoms: C_2  and  C_22
REMARK    4  A    between atoms: N_3  and  C_4
REMARK    5  A    between atoms: C_4  and  C_5
REMARK    6  A    between atoms: C_8  and  C_9
REMARK    7  A    between atoms: C_9  and  C_10
REMARK    8  A    between atoms: C_11  and  C_12
REMARK                            x       y       z     vdW  Elec       q    Type
REMARK                         _______ _______ _______ _____ _____    ______ ____
ROOT
ATOM      1  C   UNL     1      49.446   8.106  16.915  0.00  0.00    +0.000 A 
ATOM      2  C   UNL     1      49.989   7.174  16.021  0.00  0.00    +0.000 A 
ATOM      3  C   UNL     1      49.761   7.288  14.648  0.00  0.00    +0.000 A 
ATOM      4  C   UNL     1      48.982   8.336  14.140  0.00  0.00    +0.000 A 
ATOM      5  C   UNL     1      48.429   9.263  15.031  0.00  0.00    +0.000 A 
ATOM      6  C   UNL     1      48.663   9.152  16.403  0.00  0.00    +0.000 A 
ENDROOT
BRANCH   1   7
ATOM      7  C   UNL     1      49.624   7.955  18.409  0.00  0.00    +0.000 C 
BRANCH   7   8
ATOM      8  N   UNL     1      48.548   7.183  19.033  0.00  0.00    +0.000 NA
ATOM      9  H   UNL     1      48.005   7.805  19.629  0.00  0.00    +0.000 HD
BRANCH   8  11
ATOM     10  C   UNL     1      50.074   6.563  20.914  0.00  0.00    +0.000 C 
ATOM     11  C   UNL     1      49.054   6.082  19.873  0.00  0.00    +0.000 C 
BRANCH  11  12
ATOM     12  C   UNL     1      49.702   5.049  18.964  0.00  0.00    +0.000 A 
ATOM     13  C   UNL     1      51.050   4.726  18.955  0.00  0.00    +0.000 A 
ATOM     14  S   UNL     1      51.440   3.468  17.868  0.00  0.00    +0.000 S 
ATOM     15  C   UNL     1      49.816   3.300  17.387  0.00  0.00    +0.000 A 
ATOM     16  N   UNL     1      49.441   2.355  16.483  0.00  0.00    +0.000 NA
ATOM     17  C   UNL     1      48.177   2.340  16.225  0.00  0.00    +0.000 A 
ATOM     18  N   UNL     1      47.252   3.190  16.779  0.00  0.00    +0.000 N 
ATOM     19  C   UNL     1      47.579   4.158  17.699  0.00  0.00    +0.000 A 
ATOM     20  O   UNL     1      46.731   4.901  18.180  0.00  0.00    +0.000 OA
ATOM     21  C   UNL     1      48.992   4.208  18.027  0.00  0.00    +0.000 A 
ATOM     22  H   UNL     1      46.277   3.126  16.525  0.00  0.00    +0.000 HD
ENDBRANCH  11  12
ENDBRANCH   8  11
ENDBRANCH   7   8
ENDBRANCH   1   7
BRANCH   4  23
ATOM     23  C   UNL     1      48.709   8.440  12.660  0.00  0.00    +0.000 C 
BRANCH  23  24
ATOM     24  C   UNL     1      47.426   7.822  12.176  0.00  0.00    +0.000 C 
ATOM     25  C   UNL     1      46.297   7.633  12.880  0.00  0.00    +0.000 C 
BRANCH  25  26
ATOM     26  C   UNL     1      45.175   6.902  12.253  0.00  0.00    +0.000 C 
ATOM     27  O   UNL     1      44.486   7.460  11.402  0.00  0.00    +0.000 OA
ATOM     28  N   UNL     1      44.984   5.597  12.652  0.00  0.00    +0.000 N 
ATOM     29  C   UNL     1      45.678   4.906  13.742  0.00  0.00    +0.000 C 
ATOM     30  C   UNL     1      46.363   3.628  13.220  0.00  0.00    +0.000 C 
ATOM     31  N   UNL     1      45.442   2.734  12.488  0.00  0.00    +0.000 NA
ATOM     32  C   UNL     1      44.773   3.488  11.404  0.00  0.00    +0.000 C 
ATOM     33  C   UNL     1      44.053   4.752  11.905  0.00  0.00    +0.000 C 
ATOM     34  H   UNL     1      44.724   2.411  13.137  0.00  0.00    +0.000 HD
ENDBRANCH  25  26
ENDBRANCH  23  24
ENDBRANCH   4  23
TORSDOF 7
ENDMDL
MODEL 2
REMARK VINA RESULT:    -6.409      3.730      5.333
REMARK INTER + INTRA:         -11.021
REMARK INTER:                  -9.962
REMARK INTRA:                  -1.060
REMARK UNBOUND:                -1.989
REMARK  Name = 
REMARK  8 active torsions:
REMARK  status: ('A' for Active; 'I' for Inactive)
REMARK    1  A    between atoms: C_1  and  C_2
REMARK    2  A    between atoms: C_2  and  N_3
REMARK    3  A    between atoms: C_2  and  C_22
REMARK    4  A    between atoms: N_3  and  C_4
REMARK    5  A    between atoms: C_4  and  C_5
REMARK    6  A    between atoms: C_8  and  C_9
REMARK    7  A    between atoms: C_9  and  C_10
REMARK    8  A    between atoms: C_11  and  C_12
REMARK                            x       y       z     vdW  Elec       q    Type
REMARK                         _______ _______ _______ _____ _____    ______ ____
ROOT
ATOM      1  C   UNL     1      47.162   6.485  13.412  0.00  0.00    +0.000 A 
ATOM      2  C   UNL     1      47.033   7.017  12.122  0.00  0.00    +0.000 A 
ATOM      3  C   UNL     1      46.165   6.435  11.196  0.00  0.00    +0.000 A 
ATOM      4  C   UNL     1      45.408   5.308  11.540  0.00  0.00    +0.000 A 
ATOM      5  C   UNL     1      45.541   4.767  12.824  0.00  0.00    +0.000 A 
ATOM      6  C   UNL     1      46.406   5.354  13.752  0.00  0.00    +0.000 A 
ENDROOT
BRANCH   1   7
ATOM      7  C   UNL     1      48.151   7.060  14.402  0.00  0.00    +0.000 C 
BRANCH   7   8
ATOM      8  N   UNL     1      48.866   6.026  15.152  0.00  0.00    +0.000 NA
ATOM      9  H   UNL     1      48.320   5.167  15.123  0.00  0.00    +0.000 HD
BRANCH   8  11
ATOM     10  C   UNL     1      48.744   7.862  16.845  0.00  0.00    +0.000 C 
ATOM     11  C   UNL     1      49.062   6.387  16.568  0.00  0.00    +0.000 C 
BRANCH  11  12
ATOM     12  C   UNL     1      50.510   6.100  16.935  0.00  0.00    +0.000 A 
ATOM     13  C   UNL     1      51.509   7.054  17.052  0.00  0.00    +0.000 A 
ATOM     14  S   UNL     1      53.008   6.410  17.555  0.00  0.00    +0.000 S 
ATOM     15  C   UNL     1      52.367   4.836  17.651  0.00  0.00    +0.000 A 
ATOM     16  N   UNL     1      53.129   3.788  18.063  0.00  0.00    +0.000 NA
ATOM     17  C   UNL     1      52.504   2.659  18.096  0.00  0.00    +0.000 A 
ATOM     18  N   UNL     1      51.190   2.478  17.744  0.00  0.00    +0.000 N 
ATOM     19  C   UNL     1      50.377   3.506  17.325  0.00  0.00    +0.000 A 
ATOM     20  O   UNL     1      49.205   3.316  17.021  0.00  0.00    +0.000 OA
ATOM     21  C   UNL     1      51.036   4.799  17.280  0.00  0.00    +0.000 A 
ATOM     22  H   UNL     1      50.766   1.564  17.787  0.00  0.00    +0.000 HD
ENDBRANCH  11  12
ENDBRANCH   8  11
ENDBRANCH   7   8
ENDBRANCH   1   7
BRANCH   4  23
ATOM     23  C   UNL     1      44.494   4.660  10.529  0.00  0.00    +0.000 C 
BRANCH  23  24
ATOM     24  C   UNL     1      44.977   3.369   9.928  0.00  0.00    +0.000 C 
ATOM     25  C   UNL     1      45.651   3.208   8.777  0.00  0.00    +0.000 C 
BRANCH  25  26
ATOM     26  C   UNL     1      45.941   1.838   8.301  0.00  0.00    +0.000 C 
ATOM     27  O   UNL     1      45.275   0.895   8.720  0.00  0.00    +0.000 OA
ATOM     28  N   UNL     1      46.949   1.705   7.371  0.00  0.00    +0.000 N 
ATOM     29  C   UNL     1      47.866   2.755   6.918  0.00  0.00    +0.000 C 
ATOM     30  C   UNL     1      47.792   2.912   5.387  0.00  0.00    +0.000 C 
ATOM     31  N   UNL     1      47.997   1.641   4.663  0.00  0.00    +0.000 NA
ATOM     32  C   UNL     1      47.046   0.622   5.164  0.00  0.00    +0.000 C 
ATOM     33  C   UNL     1      47.124   0.424   6.688  0.00  0.00    +0.000 C 
ATOM     34  H   UNL     1      48.942   1.310   4.856  0.00  0.00    +0.000 HD
ENDBRANCH  25  26
ENDBRANCH  23  24
ENDBRANCH   4  23
TORSDOF 7
ENDMDL
MODEL 3
REMARK VINA RESULT:    -6.356      1.660      2.226
REMARK INTER + INTRA:         -10.947
REMARK INTER:                  -8.951
REMARK INTRA:                  -1.995
REMARK UNBOUND:                -1.989
REMARK  Name = 
REMARK  8 active torsions:
REMARK  status: ('A' for Active; 'I' for Inactive)
REMARK    1  A    between atoms: C_1  and  C_2
REMARK    2  A    between atoms: C_2  and  N_3
REMARK    3  A    between atoms: C_2  and  C_22
REMARK    4  A    between atoms: N_3  and  C_4
REMARK    5  A    between atoms: C_4  and  C_5
REMARK    6  A    between atoms: C_8  and  C_9
REMARK    7  A    between atoms: C_9  and  C_10
REMARK    8  A    between atoms: C_11  and  C_12
REMARK                            x       y       z     vdW  Elec       q    Type
REMARK                         _______ _______ _______ _____ _____    ______ ____
ROOT
ATOM      1  C   UNL     1      50.605   7.949  17.423  0.00  0.00    +0.000 A 
ATOM      2  C   UNL     1      49.357   8.584  17.373  0.00  0.00    +0.000 A 
ATOM      3  C   UNL     1      48.578   8.531  16.215  0.00  0.00    +0.000 A 
ATOM      4  C   UNL     1      49.030   7.842  15.082  0.00  0.00    +0.000 A 
ATOM      5  C   UNL     1      50.281   7.215  15.124  0.00  0.00    +0.000 A 
ATOM      6  C   UNL     1      51.057   7.264  16.285  0.00  0.00    +0.000 A 
ENDROOT
BRANCH   1   7
ATOM      7  C   UNL     1      51.491   8.058  18.643  0.00  0.00    +0.000 C 
BRANCH   7   8
ATOM      8  N   UNL     1      52.011   6.762  19.083  0.00  0.00    +0.000 NA
ATOM      9  H   UNL     1      52.557   6.357  18.324  0.00  0.00    +0.000 HD
BRANCH   8  11
ATOM     10  C   UNL     1      50.869   5.530  20.934  0.00  0.00    +0.000 C 
ATOM     11  C   UNL     1      50.941   5.809  19.427  0.00  0.00    +0.000 C 
BRANCH  11  12
ATOM     12  C   UNL     1      51.204   4.510  18.680  0.00  0.00    +0.000 A 
ATOM     13  C   UNL     1      52.378   3.775  18.743  0.00  0.00    +0.000 A 
ATOM     14  S   UNL     1      52.320   2.324  17.846  0.00  0.00    +0.000 S 
ATOM     15  C   UNL     1      50.717   2.620  17.358  0.00  0.00    +0.000 A 
ATOM     16  N   UNL     1      50.039   1.731  16.583  0.00  0.00    +0.000 NA
ATOM     17  C   UNL     1      48.830   2.085  16.303  0.00  0.00    +0.000 A 
ATOM     18  N   UNL     1      48.238   3.252  16.717  0.00  0.00    +0.000 N 
ATOM     19  C   UNL     1      48.879   4.180  17.504  0.00  0.00    +0.000 A 
ATOM     20  O   UNL     1      48.323   5.213  17.862  0.00  0.00    +0.000 OA
ATOM     21  C   UNL     1      50.241   3.820  17.851  0.00  0.00    +0.000 A 
ATOM     22  H   UNL     1      47.288   3.469  16.455  0.00  0.00    +0.000 HD
ENDBRANCH  11  12
ENDBRANCH   8  11
ENDBRANCH   7   8
ENDBRANCH   1   7
BRANCH   4  23
ATOM     23  C   UNL     1      48.202   7.813  13.821  0.00  0.00    +0.000 C 
BRANCH  23  24
ATOM     24  C   UNL     1      47.732   6.459  13.367  0.00  0.00    +0.000 C 
ATOM     25  C   UNL     1      46.727   5.731  13.880  0.00  0.00    +0.000 C 
BRANCH  25  26
ATOM     26  C   UNL     1      46.491   4.366  13.361  0.00  0.00    +0.000 C 
ATOM     27  O   UNL     1      47.135   3.424  13.815  0.00  0.00    +0.000 OA
ATOM     28  N   UNL     1      45.517   4.229  12.396  0.00  0.00    +0.000 N 
ATOM     29  C   UNL     1      44.798   5.311  11.719  0.00  0.00    +0.000 C 
ATOM     30  C   UNL     1      43.277   5.145  11.901  0.00  0.00    +0.000 C 
ATOM     31  N   UNL     1      42.788   3.810  11.497  0.00  0.00    +0.000 NA
ATOM     32  C   UNL     1      43.551   2.762  12.211  0.00  0.00    +0.000 C 
ATOM     33  C   UNL     1      45.072   2.889  12.018  0.00  0.00    +0.000 C 
ATOM     34  H   UNL     1      42.955   3.696  10.497  0.00  0.00    +0.000 HD
ENDBRANCH  25  26
ENDBRANCH  23  24
ENDBRANCH   4  23
TORSDOF 7
ENDMDL
MODEL 4
REMARK VINA RESULT:    -6.172      3.688      5.636
REMARK INTER + INTRA:         -10.687
REMARK INTER:                  -9.724
REMARK INTRA:                  -0.963
REMARK UNBOUND:                -1.989
REMARK  Name = 
REMARK  8 active torsions:
REMARK  status: ('A' for Active; 'I' for Inactive)
REMARK    1  A    between atoms: C_1  and  C_2
REMARK    2  A    between atoms: C_2  and  N_3
REMARK    3  A    between atoms: C_2  and  C_22
REMARK    4  A    between atoms: N_3  and  C_4
REMARK    5  A    between atoms: C_4  and  C_5
REMARK    6  A    between atoms: C_8  and  C_9
REMARK    7  A    between atoms: C_9  and  C_10
REMARK    8  A    between atoms: C_11  and  C_12
REMARK                            x       y       z     vdW  Elec       q    Type
REMARK                         _______ _______ _______ _____ _____    ______ ____
ROOT
ATOM      1  C   UNL     1      47.164   6.605  13.086  0.00  0.00    +0.000 A 
ATOM      2  C   UNL     1      46.803   6.995  11.789  0.00  0.00    +0.000 A 
ATOM      3  C   UNL     1      45.905   6.230  11.041  0.00  0.00    +0.000 A 
ATOM      4  C   UNL     1      45.350   5.059  11.573  0.00  0.00    +0.000 A 
ATOM      5  C   UNL     1      45.715   4.661  12.864  0.00  0.00    +0.000 A 
ATOM      6  C   UNL     1      46.609   5.430  13.614  0.00  0.00    +0.000 A 
ENDROOT
BRANCH   1   7
ATOM      7  C   UNL     1      48.189   7.382  13.881  0.00  0.00    +0.000 C 
BRANCH   7   8
ATOM      8  N   UNL     1      49.186   6.519  14.515  0.00  0.00    +0.000 NA
ATOM      9  H   UNL     1      48.743   5.635  14.760  0.00  0.00    +0.000 HD
BRANCH   8  11
ATOM     10  C   UNL     1      51.267   7.232  15.704  0.00  0.00    +0.000 C 
ATOM     11  C   UNL     1      49.739   7.102  15.751  0.00  0.00    +0.000 C 
BRANCH  11  12
ATOM     12  C   UNL     1      49.339   6.211  16.917  0.00  0.00    +0.000 A 
ATOM     13  C   UNL     1      49.654   4.866  17.040  0.00  0.00    +0.000 A 
ATOM     14  S   UNL     1      49.122   4.176  18.508  0.00  0.00    +0.000 S 
ATOM     15  C   UNL     1      48.470   5.656  19.037  0.00  0.00    +0.000 A 
ATOM     16  N   UNL     1      47.881   5.773  20.258  0.00  0.00    +0.000 NA
ATOM     17  C   UNL     1      47.443   6.957  20.525  0.00  0.00    +0.000 A 
ATOM     18  N   UNL     1      47.528   8.035  19.679  0.00  0.00    +0.000 N 
ATOM     19  C   UNL     1      48.117   7.970  18.438  0.00  0.00    +0.000 A 
ATOM     20  O   UNL     1      48.182   8.950  17.705  0.00  0.00    +0.000 OA
ATOM     21  C   UNL     1      48.632   6.656  18.097  0.00  0.00    +0.000 A 
ATOM     22  H   UNL     1      47.158   8.933  19.951  0.00  0.00    +0.000 HD
ENDBRANCH  11  12
ENDBRANCH   8  11
ENDBRANCH   7   8
ENDBRANCH   1   7
BRANCH   4  23
ATOM     23  C   UNL     1      44.405   4.217  10.752  0.00  0.00    +0.000 C 
BRANCH  23  24
ATOM     24  C   UNL     1      45.006   3.022  10.066  0.00  0.00    +0.000 C 
ATOM     25  C   UNL     1      45.450   2.946   8.801  0.00  0.00    +0.000 C 
BRANCH  25  26
ATOM     26  C   UNL     1      45.908   1.641   8.277  0.00  0.00    +0.000 C 
ATOM     27  O   UNL     1      45.366   0.608   8.661  0.00  0.00    +0.000 OA
ATOM     28  N   UNL     1      46.921   1.668   7.344  0.00  0.00    +0.000 N 
ATOM     29  C   UNL     1      47.698   2.840   6.929  0.00  0.00    +0.000 C 
ATOM     30  C   UNL     1      47.600   3.041   5.405  0.00  0.00    +0.000 C 
ATOM     31  N   UNL     1      47.961   1.831   4.637  0.00  0.00    +0.000 NA
ATOM     32  C   UNL     1      47.146   0.685   5.100  0.00  0.00    +0.000 C 
ATOM     33  C   UNL     1      47.253   0.444   6.616  0.00  0.00    +0.000 C 
ATOM     34  H   UNL     1      48.941   1.615   4.819  0.00  0.00    +0.000 HD
ENDBRANCH  25  26
ENDBRANCH  23  24
ENDBRANCH   4  23
TORSDOF 7
ENDMDL
MODEL 5
REMARK VINA RESULT:    -6.057      1.833      2.378
REMARK INTER + INTRA:         -10.525
REMARK INTER:                  -9.283
REMARK INTRA:                  -1.242
REMARK UNBOUND:                -1.989
REMARK  Name = 
REMARK  8 active torsions:
REMARK  status: ('A' for Active; 'I' for Inactive)
REMARK    1  A    between atoms: C_1  and  C_2
REMARK    2  A    between atoms: C_2  and  N_3
REMARK    3  A    between atoms: C_2  and  C_22
REMARK    4  A    between atoms: N_3  and  C_4
REMARK    5  A    between atoms: C_4  and  C_5
REMARK    6  A    between atoms: C_8  and  C_9
REMARK    7  A    between atoms: C_9  and  C_10
REMARK    8  A    between atoms: C_11  and  C_12
REMARK                            x       y       z     vdW  Elec       q    Type
REMARK                         _______ _______ _______ _____ _____    ______ ____
ROOT
ATOM      1  C   UNL     1      51.289   7.512  15.333  0.00  0.00    +0.000 A 
ATOM      2  C   UNL     1      51.684   8.381  14.308  0.00  0.00    +0.000 A 
ATOM      3  C   UNL     1      50.826   8.661  13.242  0.00  0.00    +0.000 A 
ATOM      4  C   UNL     1      49.555   8.076  13.179  0.00  0.00    +0.000 A 
ATOM      5  C   UNL     1      49.160   7.198  14.195  0.00  0.00    +0.000 A 
ATOM      6  C   UNL     1      50.017   6.924  15.264  0.00  0.00    +0.000 A 
ENDROOT
BRANCH   1   7
ATOM      7  C   UNL     1      52.233   7.143  16.455  0.00  0.00    +0.000 C 
BRANCH   7   8
ATOM      8  N   UNL     1      51.929   5.839  17.046  0.00  0.00    +0.000 NA
ATOM      9  H   UNL     1      51.125   5.443  16.562  0.00  0.00    +0.000 HD
BRANCH   8  11
ATOM     10  C   UNL     1      52.221   4.795  19.299  0.00  0.00    +0.000 C 
ATOM     11  C   UNL     1      51.592   5.929  18.478  0.00  0.00    +0.000 C 
BRANCH  11  12
ATOM     12  C   UNL     1      50.078   5.878  18.614  0.00  0.00    +0.000 A 
ATOM     13  C   UNL     1      49.295   6.858  19.207  0.00  0.00    +0.000 A 
ATOM     14  S   UNL     1      47.622   6.530  19.126  0.00  0.00    +0.000 S 
ATOM     15  C   UNL     1      47.886   5.077  18.280  0.00  0.00    +0.000 A 
ATOM     16  N   UNL     1      46.848   4.303  17.865  0.00  0.00    +0.000 NA
ATOM     17  C   UNL     1      47.202   3.238  17.227  0.00  0.00    +0.000 A 
ATOM     18  N   UNL     1      48.500   2.869  16.975  0.00  0.00    +0.000 N 
ATOM     19  C   UNL     1      49.583   3.620  17.369  0.00  0.00    +0.000 A 
ATOM     20  O   UNL     1      50.732   3.267  17.125  0.00  0.00    +0.000 OA
ATOM     21  C   UNL     1      49.232   4.833  18.084  0.00  0.00    +0.000 A 
ATOM     22  H   UNL     1      48.705   2.018  16.474  0.00  0.00    +0.000 HD
ENDBRANCH  11  12
ENDBRANCH   8  11
ENDBRANCH   7   8
ENDBRANCH   1   7
BRANCH   4  23
ATOM     23  C   UNL     1      48.641   8.353  12.010  0.00  0.00    +0.000 C 
BRANCH  23  24
ATOM     24  C   UNL     1      47.209   7.920  12.170  0.00  0.00    +0.000 C 
ATOM     25  C   UNL     1      46.632   6.814  11.673  0.00  0.00    +0.000 C 
BRANCH  25  26
ATOM     26  C   UNL     1      45.176   6.624  11.849  0.00  0.00    +0.000 C 
ATOM     27  O   UNL     1      44.395   7.471  11.424  0.00  0.00    +0.000 OA
ATOM     28  N   UNL     1      44.773   5.462  12.471  0.00  0.00    +0.000 N 
ATOM     29  C   UNL     1      45.638   4.468  13.113  0.00  0.00    +0.000 C 
ATOM     30  C   UNL     1      45.409   3.075  12.498  0.00  0.00    +0.000 C 
ATOM     31  N   UNL     1      43.989   2.665  12.503  0.00  0.00    +0.000 NA
ATOM     32  C   UNL     1      43.168   3.707  11.843  0.00  0.00    +0.000 C 
ATOM     33  C   UNL     1      43.356   5.102  12.462  0.00  0.00    +0.000 C 
ATOM     34  H   UNL     1      43.680   2.588  13.471  0.00  0.00    +0.000 HD
ENDBRANCH  25  26
ENDBRANCH  23  24
ENDBRANCH   4  23
TORSDOF 7
ENDMDL
MODEL 6
REMARK VINA RESULT:    -5.822      1.864      2.595
REMARK INTER + INTRA:         -10.193
REMARK INTER:                  -8.639
REMARK INTRA:                  -1.554
REMARK UNBOUND:                -1.989
REMARK  Name = 
REMARK  8 active torsions:
REMARK  status: ('A' for Active; 'I' for Inactive)
REMARK    1  A    between atoms: C_1  and  C_2
REMARK    2  A    between atoms: C_2  and  N_3
REMARK    3  A    between atoms: C_2  and  C_22
REMARK    4  A    between atoms: N_3  and  C_4
REMARK    5  A    between atoms: C_4  and  C_5
REMARK    6  A    between atoms: C_8  and  C_9
REMARK    7  A    between atoms: C_9  and  C_10
REMARK    8  A    between atoms: C_11  and  C_12
REMARK                            x       y       z     vdW  Elec       q    Type
REMARK                         _______ _______ _______ _____ _____    ______ ____
ROOT
ATOM      1  C   UNL     1      50.364   8.729  13.839  0.00  0.00    +0.000 A 
ATOM      2  C   UNL     1      49.581   9.776  14.342  0.00  0.00    +0.000 A 
ATOM      3  C   UNL     1      48.338  10.070  13.776  0.00  0.00    +0.000 A 
ATOM      4  C   UNL     1      47.852   9.323  12.696  0.00  0.00    +0.000 A 
ATOM      5  C   UNL     1      48.636   8.282  12.184  0.00  0.00    +0.000 A 
ATOM      6  C   UNL     1      49.876   7.985  12.754  0.00  0.00    +0.000 A 
ENDROOT
BRANCH   1   7
ATOM      7  C   UNL     1      51.742   8.444  14.393  0.00  0.00    +0.000 C 
BRANCH   7   8
ATOM      8  N   UNL     1      51.819   7.159  15.088  0.00  0.00    +0.000 NA
ATOM      9  H   UNL     1      51.177   6.507  14.638  0.00  0.00    +0.000 HD
BRANCH   8  11
ATOM     10  C   UNL     1      52.557   7.851  17.374  0.00  0.00    +0.000 C 
ATOM     11  C   UNL     1      51.437   7.258  16.508  0.00  0.00    +0.000 C 
BRANCH  11  12
ATOM     12  C   UNL     1      51.092   5.863  17.006  0.00  0.00    +0.000 A 
ATOM     13  C   UNL     1      51.966   5.010  17.664  0.00  0.00    +0.000 A 
ATOM     14  S   UNL     1      51.242   3.546  18.159  0.00  0.00    +0.000 S 
ATOM     15  C   UNL     1      49.731   4.010  17.528  0.00  0.00    +0.000 A 
ATOM     16  N   UNL     1      48.639   3.208  17.647  0.00  0.00    +0.000 NA
ATOM     17  C   UNL     1      47.562   3.696  17.130  0.00  0.00    +0.000 A 
ATOM     18  N   UNL     1      47.478   4.910  16.493  0.00  0.00    +0.000 N 
ATOM     19  C   UNL     1      48.552   5.758  16.350  0.00  0.00    +0.000 A 
ATOM     20  O   UNL     1      48.446   6.838  15.780  0.00  0.00    +0.000 OA
ATOM     21  C   UNL     1      49.785   5.252  16.925  0.00  0.00    +0.000 A 
ATOM     22  H   UNL     1      46.603   5.228  16.105  0.00  0.00    +0.000 HD
ENDBRANCH  11  12
ENDBRANCH   8  11
ENDBRANCH   7   8
ENDBRANCH   1   7
BRANCH   4  23
ATOM     23  C   UNL     1      46.524   9.662  12.064  0.00  0.00    +0.000 C 
BRANCH  23  24
ATOM     24  C   UNL     1      45.433   8.639  12.223  0.00  0.00    +0.000 C 
ATOM     25  C   UNL     1      45.284   7.495  11.535  0.00  0.00    +0.000 C 
BRANCH  25  26
ATOM     26  C   UNL     1      44.076   6.673  11.764  0.00  0.00    +0.000 C 
ATOM     27  O   UNL     1      42.999   7.031  11.296  0.00  0.00    +0.000 OA
ATOM     28  N   UNL     1      44.244   5.509  12.484  0.00  0.00    +0.000 N 
ATOM     29  C   UNL     1      45.462   5.078  13.177  0.00  0.00    +0.000 C 
ATOM     30  C   UNL     1      45.905   3.690  12.675  0.00  0.00    +0.000 C 
ATOM     31  N   UNL     1      44.831   2.677  12.749  0.00  0.00    +0.000 NA
ATOM     32  C   UNL     1      43.632   3.170  12.034  0.00  0.00    +0.000 C 
ATOM     33  C   UNL     1      43.151   4.541  12.540  0.00  0.00    +0.000 C 
ATOM     34  H   UNL     1      44.581   2.545  13.729  0.00  0.00    +0.000 HD
ENDBRANCH  25  26
ENDBRANCH  23  24
ENDBRANCH   4  23
TORSDOF 7
ENDMDL
MODEL 7
REMARK VINA RESULT:    -5.754      2.162      2.640
REMARK INTER + INTRA:         -10.097
REMARK INTER:                  -8.086
REMARK INTRA:                  -2.011
REMARK UNBOUND:                -1.989
REMARK  Name = 
REMARK  8 active torsions:
REMARK  status: ('A' for Active; 'I' for Inactive)
REMARK    1  A    between atoms: C_1  and  C_2
REMARK    2  A    between atoms: C_2  and  N_3
REMARK    3  A    between atoms: C_2  and  C_22
REMARK    4  A    between atoms: N_3  and  C_4
REMARK    5  A    between atoms: C_4  and  C_5
REMARK    6  A    between atoms: C_8  and  C_9
REMARK    7  A    between atoms: C_9  and  C_10
REMARK    8  A    between atoms: C_11  and  C_12
REMARK                            x       y       z     vdW  Elec       q    Type
REMARK                         _______ _______ _______ _____ _____    ______ ____
ROOT
ATOM      1  C   UNL     1      51.107   9.643  15.028  0.00  0.00    +0.000 A 
ATOM      2  C   UNL     1      51.247   8.485  14.252  0.00  0.00    +0.000 A 
ATOM      3  C   UNL     1      50.278   8.140  13.307  0.00  0.00    +0.000 A 
ATOM      4  C   UNL     1      49.148   8.946  13.119  0.00  0.00    +0.000 A 
ATOM      5  C   UNL     1      48.999  10.099  13.898  0.00  0.00    +0.000 A 
ATOM      6  C   UNL     1      49.972  10.446  14.839  0.00  0.00    +0.000 A 
ENDROOT
BRANCH   1   7
ATOM      7  C   UNL     1      52.110   9.991  16.105  0.00  0.00    +0.000 C 
BRANCH   7   8
ATOM      8  N   UNL     1      52.446   8.849  16.957  0.00  0.00    +0.000 NA
ATOM      9  H   UNL     1      52.717   8.069  16.362  0.00  0.00    +0.000 HD
BRANCH   8  11
ATOM     10  C   UNL     1      51.446   8.856  19.249  0.00  0.00    +0.000 C 
ATOM     11  C   UNL     1      51.310   8.408  17.787  0.00  0.00    +0.000 C 
BRANCH  11  12
ATOM     12  C   UNL     1      51.237   6.890  17.724  0.00  0.00    +0.000 A 
ATOM     13  C   UNL     1      52.229   6.024  18.158  0.00  0.00    +0.000 A 
ATOM     14  S   UNL     1      51.801   4.377  18.018  0.00  0.00    +0.000 S 
ATOM     15  C   UNL     1      50.267   4.767  17.391  0.00  0.00    +0.000 A 
ATOM     16  N   UNL     1      49.363   3.799  17.082  0.00  0.00    +0.000 NA
ATOM     17  C   UNL     1      48.241   4.247  16.627  0.00  0.00    +0.000 A 
ATOM     18  N   UNL     1      47.943   5.574  16.442  0.00  0.00    +0.000 N 
ATOM     19  C   UNL     1      48.820   6.589  16.743  0.00  0.00    +0.000 A 
ATOM     20  O   UNL     1      48.524   7.767  16.570  0.00  0.00    +0.000 OA
ATOM     21  C   UNL     1      50.094   6.133  17.266  0.00  0.00    +0.000 A 
ATOM     22  H   UNL     1      47.045   5.853  16.075  0.00  0.00    +0.000 HD
ENDBRANCH  11  12
ENDBRANCH   8  11
ENDBRANCH   7   8
ENDBRANCH   1   7
BRANCH   4  23
ATOM     23  C   UNL     1      48.086   8.556  12.120  0.00  0.00    +0.000 C 
BRANCH  23  24
ATOM     24  C   UNL     1      47.657   7.115  12.136  0.00  0.00    +0.000 C 
ATOM     25  C   UNL     1      46.682   6.563  12.877  0.00  0.00    +0.000 C 
BRANCH  25  26
ATOM     26  C   UNL     1      46.487   5.098  12.831  0.00  0.00    +0.000 C 
ATOM     27  O   UNL     1      47.187   4.369  13.529  0.00  0.00    +0.000 OA
ATOM     28  N   UNL     1      45.487   4.631  12.006  0.00  0.00    +0.000 N 
ATOM     29  C   UNL     1      44.698   5.420  11.055  0.00  0.00    +0.000 C 
ATOM     30  C   UNL     1      43.193   5.275  11.351  0.00  0.00    +0.000 C 
ATOM     31  N   UNL     1      42.748   3.867  11.415  0.00  0.00    +0.000 NA
ATOM     32  C   UNL     1      43.580   3.125  12.389  0.00  0.00    +0.000 C 
ATOM     33  C   UNL     1      45.087   3.228  12.094  0.00  0.00    +0.000 C 
ATOM     34  H   UNL     1      42.885   3.445  10.497  0.00  0.00    +0.000 HD
ENDBRANCH  25  26
ENDBRANCH  23  24
ENDBRANCH   4  23
TORSDOF 7
ENDMDL
MODEL 8
REMARK VINA RESULT:    -5.686      3.216      7.868
REMARK INTER + INTRA:         -10.002
REMARK INTER:                  -8.652
REMARK INTRA:                  -1.351
REMARK UNBOUND:                -1.989
REMARK  Name = 
REMARK  8 active torsions:
REMARK  status: ('A' for Active; 'I' for Inactive)
REMARK    1  A    between atoms: C_1  and  C_2
REMARK    2  A    between atoms: C_2  and  N_3
REMARK    3  A    between atoms: C_2  and  C_22
REMARK    4  A    between atoms: N_3  and  C_4
REMARK    5  A    between atoms: C_4  and  C_5
REMARK    6  A    between atoms: C_8  and  C_9
REMARK    7  A    between atoms: C_9  and  C_10
REMARK    8  A    between atoms: C_11  and  C_12
REMARK                            x       y       z     vdW  Elec       q    Type
REMARK                         _______ _______ _______ _____ _____    ______ ____
ROOT
ATOM      1  C   UNL     1      48.109   4.470  17.248  0.00  0.00    +0.000 A 
ATOM      2  C   UNL     1      49.482   4.460  17.523  0.00  0.00    +0.000 A 
ATOM      3  C   UNL     1      49.976   5.036  18.696  0.00  0.00    +0.000 A 
ATOM      4  C   UNL     1      49.108   5.635  19.617  0.00  0.00    +0.000 A 
ATOM      5  C   UNL     1      47.736   5.656  19.340  0.00  0.00    +0.000 A 
ATOM      6  C   UNL     1      47.241   5.074  18.170  0.00  0.00    +0.000 A 
ENDROOT
BRANCH   1   7
ATOM      7  C   UNL     1      47.565   3.915  15.950  0.00  0.00    +0.000 C 
BRANCH   7   8
ATOM      8  N   UNL     1      46.702   4.865  15.246  0.00  0.00    +0.000 NA
ATOM      9  H   UNL     1      45.856   4.380  14.954  0.00  0.00    +0.000 HD
BRANCH   8  11
ATOM     10  C   UNL     1      48.237   6.628  14.357  0.00  0.00    +0.000 C 
ATOM     11  C   UNL     1      47.340   5.424  14.039  0.00  0.00    +0.000 C 
BRANCH  11  12
ATOM     12  C   UNL     1      46.243   5.846  13.075  0.00  0.00    +0.000 A 
ATOM     13  C   UNL     1      45.960   7.153  12.708  0.00  0.00    +0.000 A 
ATOM     14  S   UNL     1      44.717   7.279  11.545  0.00  0.00    +0.000 S 
ATOM     15  C   UNL     1      44.527   5.588  11.478  0.00  0.00    +0.000 A 
ATOM     16  N   UNL     1      43.628   5.011  10.636  0.00  0.00    +0.000 NA
ATOM     17  C   UNL     1      43.604   3.722  10.688  0.00  0.00    +0.000 A 
ATOM     18  N   UNL     1      44.388   2.955  11.514  0.00  0.00    +0.000 N 
ATOM     19  C   UNL     1      45.314   3.490  12.379  0.00  0.00    +0.000 A 
ATOM     20  O   UNL     1      46.003   2.779  13.103  0.00  0.00    +0.000 OA
ATOM     21  C   UNL     1      45.381   4.939  12.349  0.00  0.00    +0.000 A 
ATOM     22  H   UNL     1      44.312   1.949  11.507  0.00  0.00    +0.000 HD
ENDBRANCH  11  12
ENDBRANCH   8  11
ENDBRANCH   7   8
ENDBRANCH   1   7
BRANCH   4  23
ATOM     23  C   UNL     1      49.646   6.286  20.867  0.00  0.00    +0.000 C 
BRANCH  23  24
ATOM     24  C   UNL     1      49.718   7.788  20.856  0.00  0.00    +0.000 C 
ATOM     25  C   UNL     1      48.854   8.650  21.416  0.00  0.00    +0.000 C 
BRANCH  25  26
ATOM     26  C   UNL     1      49.043  10.100  21.197  0.00  0.00    +0.000 C 
ATOM     27  O   UNL     1      49.807  10.731  21.923  0.00  0.00    +0.000 OA
ATOM     28  N   UNL     1      48.352  10.664  20.146  0.00  0.00    +0.000 N 
ATOM     29  C   UNL     1      47.334  10.012  19.318  0.00  0.00    +0.000 C 
ATOM     30  C   UNL     1      47.727  10.074  17.830  0.00  0.00    +0.000 C 
ATOM     31  N   UNL     1      48.029  11.445  17.368  0.00  0.00    +0.000 NA
ATOM     32  C   UNL     1      49.060  12.050  18.241  0.00  0.00    +0.000 C 
ATOM     33  C   UNL     1      48.675  12.028  19.730  0.00  0.00    +0.000 C 
ATOM     34  H   UNL     1      47.181  12.005  17.448  0.00  0.00    +0.000 HD
ENDBRANCH  25  26
ENDBRANCH  23  24
ENDBRANCH   4  23
TORSDOF 7
ENDMDL
MODEL 9
REMARK VINA RESULT:    -5.671      4.570      7.142
REMARK INTER + INTRA:          -9.981
REMARK INTER:                  -8.856
REMARK INTRA:                  -1.124
REMARK UNBOUND:                -1.989
REMARK  Name = 
REMARK  8 active torsions:
REMARK  status: ('A' for Active; 'I' for Inactive)
REMARK    1  A    between atoms: C_1  and  C_2
REMARK    2  A    between atoms: C_2  and  N_3
REMARK    3  A    between atoms: C_2  and  C_22
REMARK    4  A    between atoms: N_3  and  C_4
REMARK    5  A    between atoms: C_4  and  C_5
REMARK    6  A    between atoms: C_8  and  C_9
REMARK    7  A    between atoms: C_9  and  C_10
REMARK    8  A    between atoms: C_11  and  C_12
REMARK                            x       y       z     vdW  Elec       q    Type
REMARK                         _______ _______ _______ _____ _____    ______ ____
ROOT
ATOM      1  C   UNL     1      47.000   6.413  13.217  0.00  0.00    +0.000 A 
ATOM      2  C   UNL     1      46.715   7.021  11.987  0.00  0.00    +0.000 A 
ATOM      3  C   UNL     1      45.855   6.408  11.073  0.00  0.00    +0.000 A 
ATOM      4  C   UNL     1      45.262   5.174  11.370  0.00  0.00    +0.000 A 
ATOM      5  C   UNL     1      45.552   4.559  12.593  0.00  0.00    +0.000 A 
ATOM      6  C   UNL     1      46.408   5.175  13.509  0.00  0.00    +0.000 A 
ENDROOT
BRANCH   1   7
ATOM      7  C   UNL     1      47.985   7.028  14.186  0.00  0.00    +0.000 C 
BRANCH   7   8
ATOM      8  N   UNL     1      49.378   6.776  13.814  0.00  0.00    +0.000 NA
ATOM      9  H   UNL     1      49.582   5.790  13.968  0.00  0.00    +0.000 HD
BRANCH   8  11
ATOM     10  C   UNL     1      50.314   7.170  16.098  0.00  0.00    +0.000 C 
ATOM     11  C   UNL     1      50.331   7.564  14.615  0.00  0.00    +0.000 C 
BRANCH  11  12
ATOM     12  C   UNL     1      49.968   9.034  14.475  0.00  0.00    +0.000 A 
ATOM     13  C   UNL     1      49.683   9.891  15.527  0.00  0.00    +0.000 A 
ATOM     14  S   UNL     1      49.390  11.499  15.034  0.00  0.00    +0.000 S 
ATOM     15  C   UNL     1      49.652  11.108  13.398  0.00  0.00    +0.000 A 
ATOM     16  N   UNL     1      49.587  12.057  12.425  0.00  0.00    +0.000 NA
ATOM     17  C   UNL     1      49.819  11.613  11.236  0.00  0.00    +0.000 A 
ATOM     18  N   UNL     1      50.098  10.306  10.925  0.00  0.00    +0.000 N 
ATOM     19  C   UNL     1      50.179   9.311  11.872  0.00  0.00    +0.000 A 
ATOM     20  O   UNL     1      50.435   8.152  11.566  0.00  0.00    +0.000 OA
ATOM     21  C   UNL     1      49.933   9.765  13.228  0.00  0.00    +0.000 A 
ATOM     22  H   UNL     1      50.263  10.027   9.970  0.00  0.00    +0.000 HD
ENDBRANCH  11  12
ENDBRANCH   8  11
ENDBRANCH   7   8
ENDBRANCH   1   7
BRANCH   4  23
ATOM     23  C   UNL     1      44.358   4.498  10.368  0.00  0.00    +0.000 C 
BRANCH  23  24
ATOM     24  C   UNL     1      44.866   3.211   9.779  0.00  0.00    +0.000 C 
ATOM     25  C   UNL     1      45.682   3.066   8.722  0.00  0.00    +0.000 C 
BRANCH  25  26
ATOM     26  C   UNL     1      45.979   1.704   8.226  0.00  0.00    +0.000 C 
ATOM     27  O   UNL     1      45.331   0.749   8.647  0.00  0.00    +0.000 OA
ATOM     28  N   UNL     1      46.970   1.592   7.276  0.00  0.00    +0.000 N 
ATOM     29  C   UNL     1      47.866   2.657   6.817  0.00  0.00    +0.000 C 
ATOM     30  C   UNL     1      47.762   2.830   5.289  0.00  0.00    +0.000 C 
ATOM     31  N   UNL     1      47.968   1.568   4.548  0.00  0.00    +0.000 NA
ATOM     32  C   UNL     1      47.038   0.534   5.056  0.00  0.00    +0.000 C 
ATOM     33  C   UNL     1      47.147   0.321   6.576  0.00  0.00    +0.000 C 
ATOM     34  H   UNL     1      48.921   1.246   4.720  0.00  0.00    +0.000 HD
ENDBRANCH  25  26
ENDBRANCH  23  24
ENDBRANCH   4  23
TORSDOF 7
ENDMDL
