MODEL 1
REMARK VINA RESULT:    -7.339      0.000      0.000
REMARK INTER + INTRA:         -12.077
REMARK INTER:                 -11.200
REMARK INTRA:                  -0.877
REMARK UNBOUND:                -0.877
REMARK  Name = 
REMARK  9 active torsions:
REMARK  status: ('A' for Active; 'I' for Inactive)
REMARK    1  A    between atoms: C_2  and  C_3
REMARK    2  A    between atoms: C_3  and  N_4
REMARK    3  A    between atoms: C_3  and  C_12
REMARK    4  A    between atoms: N_4  and  C_5
REMARK    5  A    between atoms: C_5  and  C_6
REMARK    6  A    between atoms: C_15  and  C_16
REMARK    7  A    between atoms: C_16  and  N_17
REMARK    8  A    between atoms: N_17  and  C_18
REMARK    9  A    between atoms: C_18  and  C_19
REMARK                            x       y       z     vdW  Elec       q    Type
REMARK                         _______ _______ _______ _____ _____    ______ ____
ROOT
ATOM      1  C   UNL     1      46.989   5.789  12.961  0.00  0.00    +0.000 A 
ATOM      2  C   UNL     1      46.552   6.576  11.881  0.00  0.00    +0.000 A 
ATOM      3  C   UNL     1      45.467   6.173  11.098  0.00  0.00    +0.000 A 
ATOM      4  C   UNL     1      44.765   4.998  11.397  0.00  0.00    +0.000 A 
ATOM      5  C   UNL     1      45.172   4.228  12.490  0.00  0.00    +0.000 A 
ATOM      6  C   UNL     1      46.280   4.608  13.251  0.00  0.00    +0.000 A 
ENDROOT
BRANCH   1   7
ATOM      7  C   UNL     1      48.264   6.173  13.729  0.00  0.00    +0.000 C 
BRANCH   7   9
ATOM      8  N   UNL     1      49.830   7.802  12.109  0.00  0.00    +0.000 NA
ATOM      9  C   UNL     1      49.120   7.063  12.844  0.00  0.00    +0.000 C 
ENDBRANCH   7   9
BRANCH   7  10
ATOM     10  N   UNL     1      47.948   6.847  15.015  0.00  0.00    +0.000 NA
ATOM     11  H   UNL     1      46.982   6.623  15.266  0.00  0.00    +0.000 HD
BRANCH  10  12
ATOM     12  C   UNL     1      48.801   6.399  16.122  0.00  0.00    +0.000 C 
BRANCH  12  13
ATOM     13  C   UNL     1      48.480   5.002  16.598  0.00  0.00    +0.000 A 
ATOM     14  C   UNL     1      47.163   4.601  16.795  0.00  0.00    +0.000 A 
ATOM     15  N   UNL     1      46.836   3.383  17.287  0.00  0.00    +0.000 NA
ATOM     16  C   UNL     1      47.880   2.571  17.564  0.00  0.00    +0.000 A 
ATOM     17  C   UNL     1      49.195   2.955  17.358  0.00  0.00    +0.000 A 
ATOM     18  N   UNL     1      49.522   4.171  16.865  0.00  0.00    +0.000 NA
ENDBRANCH  12  13
ENDBRANCH  10  12
ENDBRANCH   7  10
ENDBRANCH   1   7
BRANCH   4  19
ATOM     19  C   UNL     1      43.589   4.566  10.557  0.00  0.00    +0.000 C 
BRANCH  19  20
ATOM     20  N   UNL     1      43.967   3.481   9.652  0.00  0.00    +0.000 NA
ATOM     21  H   UNL     1      43.119   3.000   9.351  0.00  0.00    +0.000 HD
BRANCH  20  22
ATOM     22  C   UNL     1      44.680   3.993   8.486  0.00  0.00    +0.000 C 
BRANCH  22  23
ATOM     23  C   UNL     1      45.683   3.001   7.994  0.00  0.00    +0.000 A 
ATOM     24  C   UNL     1      45.717   1.694   8.437  0.00  0.00    +0.000 A 
ATOM     25  N   UNL     1      46.612   0.779   8.018  0.00  0.00    +0.000 NA
ATOM     26  C   UNL     1      47.499   1.208   7.108  0.00  0.00    +0.000 A 
ATOM     27  N   UNL     1      47.562   2.443   6.588  0.00  0.00    +0.000 NA
ATOM     28  C   UNL     1      46.643   3.316   7.049  0.00  0.00    +0.000 A 
ENDBRANCH  22  23
ENDBRANCH  20  22
ENDBRANCH  19  20
ENDBRANCH   4  19
TORSDOF 9
ENDMDL
MODEL 2
REMARK VINA RESULT:    -7.053      1.117      1.852
REMARK INTER + INTRA:         -11.642
REMARK INTER:                 -10.820
REMARK INTRA:                  -0.822
REMARK UNBOUND:                -0.877
REMARK  Name = 
REMARK  9 active torsions:
REMARK  status: ('A' for Active; 'I' for Inactive)
REMARK    1  A    between atoms: C_2  and  C_3
REMARK    2  A    between atoms: C_3  and  N_4
REMARK    3  A    between atoms: C_3  and  C_12
REMARK    4  A    between atoms: N_4  and  C_5
REMARK    5  A    between atoms: C_5  and  C_6
REMARK    6  A    between atoms: C_15  and  C_16
REMARK    7  A    between atoms: C_16  and  N_17
REMARK    8  A    between atoms: N_17  and  C_18
REMARK    9  A    between atoms: C_18  and  C_19
REMARK                            x       y       z     vdW  Elec       q    Type
REMARK                         _______ _______ _______ _____ _____    ______ ____
ROOT
ATOM      1  C   UNL     1      46.601   5.156  13.504  0.00  0.00    +0.000 A 
ATOM      2  C   UNL     1      46.073   6.264  12.819  0.00  0.00    +0.000 A 
ATOM      3  C   UNL     1      45.087   6.096  11.843  0.00  0.00    +0.000 A 
ATOM      4  C   UNL     1      44.572   4.825  11.556  0.00  0.00    +0.000 A 
ATOM      5  C   UNL     1      45.068   3.723  12.259  0.00  0.00    +0.000 A 
ATOM      6  C   UNL     1      46.081   3.883  13.207  0.00  0.00    +0.000 A 
ENDROOT
BRANCH   1   7
ATOM      7  C   UNL     1      47.778   5.339  14.475  0.00  0.00    +0.000 C 
BRANCH   7   9
ATOM      8  N   UNL     1      49.033   7.757  13.919  0.00  0.00    +0.000 NA
ATOM      9  C   UNL     1      48.464   6.661  14.171  0.00  0.00    +0.000 C 
ENDBRANCH   7   9
BRANCH   7  10
ATOM     10  N   UNL     1      47.335   5.284  15.892  0.00  0.00    +0.000 NA
ATOM     11  H   UNL     1      46.363   5.604  15.938  0.00  0.00    +0.000 HD
BRANCH  10  12
ATOM     12  C   UNL     1      47.374   3.929  16.454  0.00  0.00    +0.000 C 
BRANCH  12  13
ATOM     13  C   UNL     1      48.747   3.516  16.927  0.00  0.00    +0.000 A 
ATOM     14  C   UNL     1      49.537   4.386  17.670  0.00  0.00    +0.000 A 
ATOM     15  N   UNL     1      50.800   4.081  18.053  0.00  0.00    +0.000 NA
ATOM     16  C   UNL     1      51.240   2.860  17.675  0.00  0.00    +0.000 A 
ATOM     17  C   UNL     1      50.456   1.980  16.948  0.00  0.00    +0.000 A 
ATOM     18  N   UNL     1      49.195   2.283  16.567  0.00  0.00    +0.000 NA
ENDBRANCH  12  13
ENDBRANCH  10  12
ENDBRANCH   7  10
ENDBRANCH   1   7
BRANCH   4  19
ATOM     19  C   UNL     1      43.502   4.643  10.509  0.00  0.00    +0.000 C 
BRANCH  19  20
ATOM     20  N   UNL     1      43.896   3.625   9.535  0.00  0.00    +0.000 NA
ATOM     21  H   UNL     1      43.059   3.303   9.047  0.00  0.00    +0.000 HD
BRANCH  20  22
ATOM     22  C   UNL     1      44.850   4.163   8.570  0.00  0.00    +0.000 C 
BRANCH  22  23
ATOM     23  C   UNL     1      45.769   3.095   8.073  0.00  0.00    +0.000 A 
ATOM     24  C   UNL     1      46.783   3.346   7.171  0.00  0.00    +0.000 A 
ATOM     25  N   UNL     1      47.623   2.404   6.699  0.00  0.00    +0.000 NA
ATOM     26  C   UNL     1      47.428   1.163   7.170  0.00  0.00    +0.000 A 
ATOM     27  N   UNL     1      46.492   0.794   8.057  0.00  0.00    +0.000 NA
ATOM     28  C   UNL     1      45.678   1.779   8.490  0.00  0.00    +0.000 A 
ENDBRANCH  22  23
ENDBRANCH  20  22
ENDBRANCH  19  20
ENDBRANCH   4  19
TORSDOF 9
ENDMDL
MODEL 3
REMARK VINA RESULT:    -7.021      1.260      8.174
REMARK INTER + INTRA:         -11.592
REMARK INTER:                 -10.698
REMARK INTRA:                  -0.894
REMARK UNBOUND:                -0.877
REMARK  Name = 
REMARK  9 active torsions:
REMARK  status: ('A' for Active; 'I' for Inactive)
REMARK    1  A    between atoms: C_2  and  C_3
REMARK    2  A    between atoms: C_3  and  N_4
REMARK    3  A    between atoms: C_3  and  C_12
REMARK    4  A    between atoms: N_4  and  C_5
REMARK    5  A    between atoms: C_5  and  C_6
REMARK    6  A    between atoms: C_15  and  C_16
REMARK    7  A    between atoms: C_16  and  N_17
REMARK    8  A    between atoms: N_17  and  C_18
REMARK    9  A    between atoms: C_18  and  C_19
REMARK                            x       y       z     vdW  Elec       q    Type
REMARK                         _______ _______ _______ _____ _____    ______ ____
ROOT
ATOM      1  C   UNL     1      45.814   5.297  11.837  0.00  0.00    +0.000 A 
ATOM      2  C   UNL     1      46.433   6.515  11.510  0.00  0.00    +0.000 A 
ATOM      3  C   UNL     1      47.356   7.103  12.379  0.00  0.00    +0.000 A 
ATOM      4  C   UNL     1      47.716   6.470  13.576  0.00  0.00    +0.000 A 
ATOM      5  C   UNL     1      47.130   5.241  13.891  0.00  0.00    +0.000 A 
ATOM      6  C   UNL     1      46.179   4.670  13.043  0.00  0.00    +0.000 A 
ENDROOT
BRANCH   1   7
ATOM      7  C   UNL     1      44.703   4.730  10.938  0.00  0.00    +0.000 C 
BRANCH   7   9
ATOM      8  N   UNL     1      42.262   5.775  11.762  0.00  0.00    +0.000 NA
ATOM      9  C   UNL     1      43.369   5.301  11.389  0.00  0.00    +0.000 C 
ENDBRANCH   7   9
BRANCH   7  10
ATOM     10  N   UNL     1      44.951   5.026   9.504  0.00  0.00    +0.000 NA
ATOM     11  H   UNL     1      45.963   5.068   9.355  0.00  0.00    +0.000 HD
BRANCH  10  12
ATOM     12  C   UNL     1      44.422   3.995   8.605  0.00  0.00    +0.000 C 
BRANCH  12  13
ATOM     13  C   UNL     1      45.490   3.092   8.034  0.00  0.00    +0.000 A 
ATOM     14  C   UNL     1      45.621   1.778   8.469  0.00  0.00    +0.000 A 
ATOM     15  N   UNL     1      46.608   0.959   8.035  0.00  0.00    +0.000 NA
ATOM     16  C   UNL     1      47.456   1.503   7.134  0.00  0.00    +0.000 A 
ATOM     17  C   UNL     1      47.326   2.806   6.683  0.00  0.00    +0.000 A 
ATOM     18  N   UNL     1      46.339   3.623   7.115  0.00  0.00    +0.000 NA
ENDBRANCH  12  13
ENDBRANCH  10  12
ENDBRANCH   7  10
ENDBRANCH   1   7
BRANCH   4  19
ATOM     19  C   UNL     1      48.718   7.100  14.511  0.00  0.00    +0.000 C 
BRANCH  19  20
ATOM     20  N   UNL     1      48.127   7.326  15.830  0.00  0.00    +0.000 NA
ATOM     21  H   UNL     1      47.276   6.766  15.904  0.00  0.00    +0.000 HD
BRANCH  20  22
ATOM     22  C   UNL     1      49.054   6.952  16.893  0.00  0.00    +0.000 C 
BRANCH  22  23
ATOM     23  C   UNL     1      49.067   5.471  17.095  0.00  0.00    +0.000 A 
ATOM     24  C   UNL     1      50.231   4.729  17.088  0.00  0.00    +0.000 A 
ATOM     25  N   UNL     1      50.276   3.394  17.261  0.00  0.00    +0.000 NA
ATOM     26  C   UNL     1      49.092   2.794  17.456  0.00  0.00    +0.000 A 
ATOM     27  N   UNL     1      47.897   3.401  17.500  0.00  0.00    +0.000 NA
ATOM     28  C   UNL     1      47.916   4.737  17.316  0.00  0.00    +0.000 A 
ENDBRANCH  22  23
ENDBRANCH  20  22
ENDBRANCH  19  20
ENDBRANCH   4  19
TORSDOF 9
ENDMDL
MODEL 4
REMARK VINA RESULT:    -6.669      1.821      8.407
REMARK INTER + INTRA:         -11.055
REMARK INTER:                 -10.113
REMARK INTRA:                  -0.941
REMARK UNBOUND:                -0.877
REMARK  Name = 
REMARK  9 active torsions:
REMARK  status: ('A' for Active; 'I' for Inactive)
REMARK    1  A    between atoms: C_2  and  C_3
REMARK    2  A    between atoms: C_3  and  N_4
REMARK    3  A    between atoms: C_3  and  C_12
REMARK    4  A    between atoms: N_4  and  C_5
REMARK    5  A    between atoms: C_5  and  C_6
REMARK    6  A    between atoms: C_15  and  C_16
REMARK    7  A    between atoms: C_16  and  N_17
REMARK    8  A    between atoms: N_17  and  C_18
REMARK    9  A    between atoms: C_18  and  C_19
REMARK                            x       y       z     vdW  Elec       q    Type
REMARK                         _______ _______ _______ _____ _____    ______ ____
ROOT
ATOM      1  C   UNL     1      45.555   4.854  12.649  0.00  0.00    +0.000 A 
ATOM      2  C   UNL     1      46.437   4.671  13.727  0.00  0.00    +0.000 A 
ATOM      3  C   UNL     1      47.606   5.430  13.831  0.00  0.00    +0.000 A 
ATOM      4  C   UNL     1      47.903   6.421  12.885  0.00  0.00    +0.000 A 
ATOM      5  C   UNL     1      47.012   6.633  11.829  0.00  0.00    +0.000 A 
ATOM      6  C   UNL     1      45.863   5.849  11.702  0.00  0.00    +0.000 A 
ENDROOT
BRANCH   1   7
ATOM      7  C   UNL     1      44.346   3.922  12.474  0.00  0.00    +0.000 C 
BRANCH   7   9
ATOM      8  N   UNL     1      42.243   5.375  11.378  0.00  0.00    +0.000 NA
ATOM      9  C   UNL     1      43.197   4.717  11.875  0.00  0.00    +0.000 C 
ENDBRANCH   7   9
BRANCH   7  10
ATOM     10  N   UNL     1      44.676   2.746  11.628  0.00  0.00    +0.000 NA
ATOM     11  H   UNL     1      44.303   1.908  12.083  0.00  0.00    +0.000 HD
BRANCH  10  12
ATOM     12  C   UNL     1      44.078   2.816  10.290  0.00  0.00    +0.000 C 
BRANCH  12  13
ATOM     13  C   UNL     1      45.101   2.859   9.179  0.00  0.00    +0.000 A 
ATOM     14  C   UNL     1      45.386   4.048   8.518  0.00  0.00    +0.000 A 
ATOM     15  N   UNL     1      46.243   4.116   7.472  0.00  0.00    +0.000 NA
ATOM     16  C   UNL     1      46.817   2.945   7.117  0.00  0.00    +0.000 A 
ATOM     17  C   UNL     1      46.551   1.757   7.778  0.00  0.00    +0.000 A 
ATOM     18  N   UNL     1      45.697   1.690   8.824  0.00  0.00    +0.000 NA
ENDBRANCH  12  13
ENDBRANCH  10  12
ENDBRANCH   7  10
ENDBRANCH   1   7
BRANCH   4  19
ATOM     19  C   UNL     1      49.159   7.247  13.000  0.00  0.00    +0.000 C 
BRANCH  19  20
ATOM     20  N   UNL     1      49.888   6.917  14.225  0.00  0.00    +0.000 NA
ATOM     21  H   UNL     1      50.864   6.741  13.984  0.00  0.00    +0.000 HD
BRANCH  20  22
ATOM     22  C   UNL     1      49.810   8.007  15.192  0.00  0.00    +0.000 C 
BRANCH  22  23
ATOM     23  C   UNL     1      49.208   7.539  16.478  0.00  0.00    +0.000 A 
ATOM     24  C   UNL     1      49.271   6.225  16.894  0.00  0.00    +0.000 A 
ATOM     25  N   UNL     1      48.735   5.771  18.044  0.00  0.00    +0.000 NA
ATOM     26  C   UNL     1      48.118   6.691  18.800  0.00  0.00    +0.000 A 
ATOM     27  N   UNL     1      48.002   7.997  18.516  0.00  0.00    +0.000 NA
ATOM     28  C   UNL     1      48.556   8.391  17.351  0.00  0.00    +0.000 A 
ENDBRANCH  22  23
ENDBRANCH  20  22
ENDBRANCH  19  20
ENDBRANCH   4  19
TORSDOF 9
ENDMDL
MODEL 5
REMARK VINA RESULT:    -6.576      2.742      7.834
REMARK INTER + INTRA:         -10.914
REMARK INTER:                  -9.884
REMARK INTRA:                  -1.029
REMARK UNBOUND:                -0.877
REMARK  Name = 
REMARK  9 active torsions:
REMARK  status: ('A' for Active; 'I' for Inactive)
REMARK    1  A    between atoms: C_2  and  C_3
REMARK    2  A    between atoms: C_3  and  N_4
REMARK    3  A    between atoms: C_3  and  C_12
REMARK    4  A    between atoms: N_4  and  C_5
REMARK    5  A    between atoms: C_5  and  C_6
REMARK    6  A    between atoms: C_15  and  C_16
REMARK    7  A    between atoms: C_16  and  N_17
REMARK    8  A    between atoms: N_17  and  C_18
REMARK    9  A    between atoms: C_18  and  C_19
REMARK                            x       y       z     vdW  Elec       q    Type
REMARK                         _______ _______ _______ _____ _____    ______ ____
ROOT
ATOM      1  C   UNL     1      45.542   4.943  12.593  0.00  0.00    +0.000 A 
ATOM      2  C   UNL     1      46.406   4.867  13.700  0.00  0.00    +0.000 A 
ATOM      3  C   UNL     1      47.569   5.639  13.751  0.00  0.00    +0.000 A 
ATOM      4  C   UNL     1      47.880   6.537  12.721  0.00  0.00    +0.000 A 
ATOM      5  C   UNL     1      47.007   6.643  11.634  0.00  0.00    +0.000 A 
ATOM      6  C   UNL     1      45.864   5.845  11.561  0.00  0.00    +0.000 A 
ENDROOT
BRANCH   1   7
ATOM      7  C   UNL     1      44.339   3.992  12.487  0.00  0.00    +0.000 C 
BRANCH   7   9
ATOM      8  N   UNL     1      42.168   5.402  11.473  0.00  0.00    +0.000 NA
ATOM      9  C   UNL     1      43.153   4.763  11.933  0.00  0.00    +0.000 C 
ENDBRANCH   7   9
BRANCH   7  10
ATOM     10  N   UNL     1      44.647   2.810  11.641  0.00  0.00    +0.000 NA
ATOM     11  H   UNL     1      44.263   1.978  12.100  0.00  0.00    +0.000 HD
BRANCH  10  12
ATOM     12  C   UNL     1      44.042   2.887  10.306  0.00  0.00    +0.000 C 
BRANCH  12  13
ATOM     13  C   UNL     1      45.059   2.938   9.190  0.00  0.00    +0.000 A 
ATOM     14  C   UNL     1      45.321   4.125   8.517  0.00  0.00    +0.000 A 
ATOM     15  N   UNL     1      46.172   4.199   7.466  0.00  0.00    +0.000 NA
ATOM     16  C   UNL     1      46.766   3.035   7.121  0.00  0.00    +0.000 A 
ATOM     17  C   UNL     1      46.524   1.849   7.794  0.00  0.00    +0.000 A 
ATOM     18  N   UNL     1      45.675   1.776   8.844  0.00  0.00    +0.000 NA
ENDBRANCH  12  13
ENDBRANCH  10  12
ENDBRANCH   7  10
ENDBRANCH   1   7
BRANCH   4  19
ATOM     19  C   UNL     1      49.131   7.376  12.779  0.00  0.00    +0.000 C 
BRANCH  19  20
ATOM     20  N   UNL     1      49.133   8.380  11.714  0.00  0.00    +0.000 NA
ATOM     21  H   UNL     1      48.343   8.197  11.095  0.00  0.00    +0.000 HD
BRANCH  20  22
ATOM     22  C   UNL     1      49.026   9.728  12.263  0.00  0.00    +0.000 C 
BRANCH  22  23
ATOM     23  C   UNL     1      47.857  10.452  11.677  0.00  0.00    +0.000 A 
ATOM     24  C   UNL     1      47.996  11.442  10.726  0.00  0.00    +0.000 A 
ATOM     25  N   UNL     1      46.964  12.118  10.184  0.00  0.00    +0.000 NA
ATOM     26  C   UNL     1      45.746  11.766  10.621  0.00  0.00    +0.000 A 
ATOM     27  N   UNL     1      45.477  10.813  11.527  0.00  0.00    +0.000 NA
ATOM     28  C   UNL     1      46.551  10.175  12.037  0.00  0.00    +0.000 A 
ENDBRANCH  22  23
ENDBRANCH  20  22
ENDBRANCH  19  20
ENDBRANCH   4  19
TORSDOF 9
ENDMDL
MODEL 6
REMARK VINA RESULT:    -6.531      3.486      5.873
REMARK INTER + INTRA:         -10.845
REMARK INTER:                 -10.092
REMARK INTRA:                  -0.753
REMARK UNBOUND:                -0.877
REMARK  Name = 
REMARK  9 active torsions:
REMARK  status: ('A' for Active; 'I' for Inactive)
REMARK    1  A    between atoms: C_2  and  C_3
REMARK    2  A    between atoms: C_3  and  N_4
REMARK    3  A    between atoms: C_3  and  C_12
REMARK    4  A    between atoms: N_4  and  C_5
REMARK    5  A    between atoms: C_5  and  C_6
REMARK    6  A    between atoms: C_15  and  C_16
REMARK    7  A    between atoms: C_16  and  N_17
REMARK    8  A    between atoms: N_17  and  C_18
REMARK    9  A    between atoms: C_18  and  C_19
REMARK                            x       y       z     vdW  Elec       q    Type
REMARK                         _______ _______ _______ _____ _____    ______ ____
ROOT
ATOM      1  C   UNL     1      44.635   3.976   9.601  0.00  0.00    +0.000 A 
ATOM      2  C   UNL     1      44.864   2.614   9.341  0.00  0.00    +0.000 A 
ATOM      3  C   UNL     1      45.813   2.217   8.395  0.00  0.00    +0.000 A 
ATOM      4  C   UNL     1      46.587   3.167   7.714  0.00  0.00    +0.000 A 
ATOM      5  C   UNL     1      46.389   4.522   7.993  0.00  0.00    +0.000 A 
ATOM      6  C   UNL     1      45.415   4.923   8.909  0.00  0.00    +0.000 A 
ENDROOT
BRANCH   1   7
ATOM      7  C   UNL     1      43.498   4.402  10.542  0.00  0.00    +0.000 C 
BRANCH   7   9
ATOM      8  N   UNL     1      43.671   2.917  12.887  0.00  0.00    +0.000 NA
ATOM      9  C   UNL     1      43.593   3.591  11.824  0.00  0.00    +0.000 C 
ENDBRANCH   7   9
BRANCH   7  10
ATOM     10  N   UNL     1      43.539   5.859  10.831  0.00  0.00    +0.000 NA
ATOM     11  H   UNL     1      42.588   6.229  10.753  0.00  0.00    +0.000 HD
BRANCH  10  12
ATOM     12  C   UNL     1      44.014   6.161  12.186  0.00  0.00    +0.000 C 
BRANCH  12  13
ATOM     13  C   UNL     1      45.339   6.887  12.209  0.00  0.00    +0.000 A 
ATOM     14  C   UNL     1      45.402   8.248  12.485  0.00  0.00    +0.000 A 
ATOM     15  N   UNL     1      46.560   8.949  12.446  0.00  0.00    +0.000 NA
ATOM     16  C   UNL     1      47.661   8.230  12.131  0.00  0.00    +0.000 A 
ATOM     17  C   UNL     1      47.611   6.871  11.869  0.00  0.00    +0.000 A 
ATOM     18  N   UNL     1      46.455   6.171  11.909  0.00  0.00    +0.000 NA
ENDBRANCH  12  13
ENDBRANCH  10  12
ENDBRANCH   7  10
ENDBRANCH   1   7
BRANCH   4  19
ATOM     19  C   UNL     1      47.616   2.739   6.699  0.00  0.00    +0.000 C 
BRANCH  19  20
ATOM     20  N   UNL     1      46.973   2.184   5.508  0.00  0.00    +0.000 NA
ATOM     21  H   UNL     1      47.102   2.839   4.735  0.00  0.00    +0.000 HD
BRANCH  20  22
ATOM     22  C   UNL     1      47.547   0.890   5.156  0.00  0.00    +0.000 C 
BRANCH  22  23
ATOM     23  C   UNL     1      46.781   0.250   4.044  0.00  0.00    +0.000 A 
ATOM     24  C   UNL     1      46.018   0.975   3.151  0.00  0.00    +0.000 A 
ATOM     25  N   UNL     1      45.311   0.428   2.143  0.00  0.00    +0.000 NA
ATOM     26  C   UNL     1      45.393  -0.906   2.035  0.00  0.00    +0.000 A 
ATOM     27  N   UNL     1      46.110  -1.721   2.825  0.00  0.00    +0.000 NA
ATOM     28  C   UNL     1      46.792  -1.115   3.819  0.00  0.00    +0.000 A 
ENDBRANCH  22  23
ENDBRANCH  20  22
ENDBRANCH  19  20
ENDBRANCH   4  19
TORSDOF 9
ENDMDL
MODEL 7
REMARK VINA RESULT:    -6.433      2.735      7.536
REMARK INTER + INTRA:         -10.694
REMARK INTER:                  -9.832
REMARK INTRA:                  -0.863
REMARK UNBOUND:                -0.877
REMARK  Name = 
REMARK  9 active torsions:
REMARK  status: ('A' for Active; 'I' for Inactive)
REMARK    1  A    between atoms: C_2  and  C_3
REMARK    2  A    between atoms: C_3  and  N_4
REMARK    3  A    between atoms: C_3  and  C_12
REMARK    4  A    between atoms: N_4  and  C_5
REMARK    5  A    between atoms: C_5  and  C_6
REMARK    6  A    between atoms: C_15  and  C_16
REMARK    7  A    between atoms: C_16  and  N_17
REMARK    8  A    between atoms: N_17  and  C_18
REMARK    9  A    between atoms: C_18  and  C_19
REMARK                            x       y       z     vdW  Elec       q    Type
REMARK                         _______ _______ _______ _____ _____    ______ ____
ROOT
ATOM      1  C   UNL     1      45.610   4.931  12.645  0.00  0.00    +0.000 A 
ATOM      2  C   UNL     1      46.524   4.817  13.706  0.00  0.00    +0.000 A 
ATOM      3  C   UNL     1      47.681   5.601  13.739  0.00  0.00    +0.000 A 
ATOM      4  C   UNL     1      47.933   6.548  12.737  0.00  0.00    +0.000 A 
ATOM      5  C   UNL     1      47.010   6.691  11.697  0.00  0.00    +0.000 A 
ATOM      6  C   UNL     1      45.873   5.883  11.641  0.00  0.00    +0.000 A 
ENDROOT
BRANCH   1   7
ATOM      7  C   UNL     1      44.414   3.971  12.550  0.00  0.00    +0.000 C 
BRANCH   7   9
ATOM      8  N   UNL     1      42.197   5.384  11.645  0.00  0.00    +0.000 NA
ATOM      9  C   UNL     1      43.202   4.743  12.056  0.00  0.00    +0.000 C 
ENDBRANCH   7   9
BRANCH   7  10
ATOM     10  N   UNL     1      44.705   2.815  11.663  0.00  0.00    +0.000 NA
ATOM     11  H   UNL     1      44.325   1.971  12.100  0.00  0.00    +0.000 HD
BRANCH  10  12
ATOM     12  C   UNL     1      44.084   2.937  10.339  0.00  0.00    +0.000 C 
BRANCH  12  13
ATOM     13  C   UNL     1      45.084   2.941   9.207  0.00  0.00    +0.000 A 
ATOM     14  C   UNL     1      45.370   4.110   8.512  0.00  0.00    +0.000 A 
ATOM     15  N   UNL     1      46.206   4.142   7.447  0.00  0.00    +0.000 NA
ATOM     16  C   UNL     1      46.758   2.955   7.109  0.00  0.00    +0.000 A 
ATOM     17  C   UNL     1      46.490   1.786   7.804  0.00  0.00    +0.000 A 
ATOM     18  N   UNL     1      45.658   1.755   8.868  0.00  0.00    +0.000 NA
ENDBRANCH  12  13
ENDBRANCH  10  12
ENDBRANCH   7  10
ENDBRANCH   1   7
BRANCH   4  19
ATOM     19  C   UNL     1      49.177   7.400  12.776  0.00  0.00    +0.000 C 
BRANCH  19  20
ATOM     20  N   UNL     1      49.355   8.118  11.513  0.00  0.00    +0.000 NA
ATOM     21  H   UNL     1      48.524   8.687  11.345  0.00  0.00    +0.000 HD
BRANCH  20  22
ATOM     22  C   UNL     1      50.536   8.973  11.557  0.00  0.00    +0.000 C 
BRANCH  22  23
ATOM     23  C   UNL     1      51.765   8.207  11.188  0.00  0.00    +0.000 A 
ATOM     24  C   UNL     1      52.967   8.365  11.848  0.00  0.00    +0.000 A 
ATOM     25  N   UNL     1      54.093   7.695  11.535  0.00  0.00    +0.000 NA
ATOM     26  C   UNL     1      53.989   6.827  10.518  0.00  0.00    +0.000 A 
ATOM     27  N   UNL     1      52.879   6.571   9.809  0.00  0.00    +0.000 NA
ATOM     28  C   UNL     1      51.785   7.275  10.166  0.00  0.00    +0.000 A 
ENDBRANCH  22  23
ENDBRANCH  20  22
ENDBRANCH  19  20
ENDBRANCH   4  19
TORSDOF 9
ENDMDL
MODEL 8
REMARK VINA RESULT:    -6.316      1.931      8.207
REMARK INTER + INTRA:         -10.516
REMARK INTER:                  -9.604
REMARK INTRA:                  -0.912
REMARK UNBOUND:                -0.877
REMARK  Name = 
REMARK  9 active torsions:
REMARK  status: ('A' for Active; 'I' for Inactive)
REMARK    1  A    between atoms: C_2  and  C_3
REMARK    2  A    between atoms: C_3  and  N_4
REMARK    3  A    between atoms: C_3  and  C_12
REMARK    4  A    between atoms: N_4  and  C_5
REMARK    5  A    between atoms: C_5  and  C_6
REMARK    6  A    between atoms: C_15  and  C_16
REMARK    7  A    between atoms: C_16  and  N_17
REMARK    8  A    between atoms: N_17  and  C_18
REMARK    9  A    between atoms: C_18  and  C_19
REMARK                            x       y       z     vdW  Elec       q    Type
REMARK                         _______ _______ _______ _____ _____    ______ ____
ROOT
ATOM      1  C   UNL     1      45.699   6.427  11.770  0.00  0.00    +0.000 A 
ATOM      2  C   UNL     1      45.097   7.441  12.536  0.00  0.00    +0.000 A 
ATOM      3  C   UNL     1      45.845   8.528  12.995  0.00  0.00    +0.000 A 
ATOM      4  C   UNL     1      47.202   8.654  12.666  0.00  0.00    +0.000 A 
ATOM      5  C   UNL     1      47.798   7.668  11.876  0.00  0.00    +0.000 A 
ATOM      6  C   UNL     1      47.063   6.560  11.449  0.00  0.00    +0.000 A 
ENDROOT
BRANCH   1   7
ATOM      7  C   UNL     1      44.900   5.171  11.387  0.00  0.00    +0.000 C 
BRANCH   7   9
ATOM      8  N   UNL     1      42.699   4.961  13.073  0.00  0.00    +0.000 NA
ATOM      9  C   UNL     1      43.697   5.056  12.308  0.00  0.00    +0.000 C 
ENDBRANCH   7   9
BRANCH   7  10
ATOM     10  N   UNL     1      44.478   5.202   9.963  0.00  0.00    +0.000 NA
ATOM     11  H   UNL     1      45.280   5.493   9.397  0.00  0.00    +0.000 HD
BRANCH  10  12
ATOM     12  C   UNL     1      44.047   3.891   9.464  0.00  0.00    +0.000 C 
BRANCH  12  13
ATOM     13  C   UNL     1      45.103   3.183   8.649  0.00  0.00    +0.000 A 
ATOM     14  C   UNL     1      45.365   1.831   8.839  0.00  0.00    +0.000 A 
ATOM     15  N   UNL     1      46.350   1.177   8.179  0.00  0.00    +0.000 NA
ATOM     16  C   UNL     1      47.060   1.927   7.307  0.00  0.00    +0.000 A 
ATOM     17  C   UNL     1      46.798   3.272   7.099  0.00  0.00    +0.000 A 
ATOM     18  N   UNL     1      45.813   3.925   7.756  0.00  0.00    +0.000 NA
ENDBRANCH  12  13
ENDBRANCH  10  12
ENDBRANCH   7  10
ENDBRANCH   1   7
BRANCH   4  19
ATOM     19  C   UNL     1      48.008   9.831  13.154  0.00  0.00    +0.000 C 
BRANCH  19  20
ATOM     20  N   UNL     1      48.239   9.741  14.596  0.00  0.00    +0.000 NA
ATOM     21  H   UNL     1      47.550   9.103  14.995  0.00  0.00    +0.000 HD
BRANCH  20  22
ATOM     22  C   UNL     1      49.584   9.253  14.883  0.00  0.00    +0.000 C 
BRANCH  22  23
ATOM     23  C   UNL     1      49.536   7.994  15.686  0.00  0.00    +0.000 A 
ATOM     24  C   UNL     1      50.146   7.874  16.919  0.00  0.00    +0.000 A 
ATOM     25  N   UNL     1      50.127   6.753  17.665  0.00  0.00    +0.000 NA
ATOM     26  C   UNL     1      49.455   5.718  17.139  0.00  0.00    +0.000 A 
ATOM     27  N   UNL     1      48.808   5.711  15.963  0.00  0.00    +0.000 NA
ATOM     28  C   UNL     1      48.867   6.861  15.260  0.00  0.00    +0.000 A 
ENDBRANCH  22  23
ENDBRANCH  20  22
ENDBRANCH  19  20
ENDBRANCH   4  19
TORSDOF 9
ENDMDL
MODEL 9
REMARK VINA RESULT:    -6.264      3.350      5.783
REMARK INTER + INTRA:         -10.438
REMARK INTER:                  -9.623
REMARK INTRA:                  -0.814
REMARK UNBOUND:                -0.877
REMARK  Name = 
REMARK  9 active torsions:
REMARK  status: ('A' for Active; 'I' for Inactive)
REMARK    1  A    between atoms: C_2  and  C_3
REMARK    2  A    between atoms: C_3  and  N_4
REMARK    3  A    between atoms: C_3  and  C_12
REMARK    4  A    between atoms: N_4  and  C_5
REMARK    5  A    between atoms: C_5  and  C_6
REMARK    6  A    between atoms: C_15  and  C_16
REMARK    7  A    between atoms: C_16  and  N_17
REMARK    8  A    between atoms: N_17  and  C_18
REMARK    9  A    between atoms: C_18  and  C_19
REMARK                            x       y       z     vdW  Elec       q    Type
REMARK                         _______ _______ _______ _____ _____    ______ ____
ROOT
ATOM      1  C   UNL     1      45.656   6.769  12.407  0.00  0.00    +0.000 A 
ATOM      2  C   UNL     1      45.211   5.731  13.244  0.00  0.00    +0.000 A 
ATOM      3  C   UNL     1      44.636   4.577  12.705  0.00  0.00    +0.000 A 
ATOM      4  C   UNL     1      44.528   4.410  11.318  0.00  0.00    +0.000 A 
ATOM      5  C   UNL     1      45.001   5.424  10.479  0.00  0.00    +0.000 A 
ATOM      6  C   UNL     1      45.541   6.594  11.015  0.00  0.00    +0.000 A 
ENDROOT
BRANCH   1   7
ATOM      7  C   UNL     1      46.161   8.087  13.015  0.00  0.00    +0.000 C 
BRANCH   7   9
ATOM      8  N   UNL     1      48.532   8.806  11.753  0.00  0.00    +0.000 NA
ATOM      9  C   UNL     1      47.457   8.480  12.326  0.00  0.00    +0.000 C 
ENDBRANCH   7   9
BRANCH   7  10
ATOM     10  N   UNL     1      45.149   9.169  12.900  0.00  0.00    +0.000 NA
ATOM     11  H   UNL     1      45.115   9.672  13.791  0.00  0.00    +0.000 HD
BRANCH  10  12
ATOM     12  C   UNL     1      45.474  10.150  11.859  0.00  0.00    +0.000 C 
BRANCH  12  13
ATOM     13  C   UNL     1      44.289  10.531  11.004  0.00  0.00    +0.000 A 
ATOM     14  C   UNL     1      42.990  10.353  11.465  0.00  0.00    +0.000 A 
ATOM     15  N   UNL     1      41.901  10.616  10.705  0.00  0.00    +0.000 NA
ATOM     16  C   UNL     1      42.161  11.077   9.461  0.00  0.00    +0.000 A 
ATOM     17  C   UNL     1      43.452  11.271   8.996  0.00  0.00    +0.000 A 
ATOM     18  N   UNL     1      44.539  11.012   9.756  0.00  0.00    +0.000 NA
ENDBRANCH  12  13
ENDBRANCH  10  12
ENDBRANCH   7  10
ENDBRANCH   1   7
BRANCH   4  19
ATOM     19  C   UNL     1      43.915   3.162  10.735  0.00  0.00    +0.000 C 
BRANCH  19  20
ATOM     20  N   UNL     1      44.252   3.030   9.317  0.00  0.00    +0.000 NA
ATOM     21  H   UNL     1      44.771   3.861   9.030  0.00  0.00    +0.000 HD
BRANCH  20  22
ATOM     22  C   UNL     1      45.060   1.839   9.078  0.00  0.00    +0.000 C 
BRANCH  22  23
ATOM     23  C   UNL     1      46.014   2.058   7.948  0.00  0.00    +0.000 A 
ATOM     24  C   UNL     1      46.951   1.117   7.573  0.00  0.00    +0.000 A 
ATOM     25  N   UNL     1      47.829   1.287   6.565  0.00  0.00    +0.000 NA
ATOM     26  C   UNL     1      47.742   2.454   5.910  0.00  0.00    +0.000 A 
ATOM     27  N   UNL     1      46.868   3.439   6.165  0.00  0.00    +0.000 NA
ATOM     28  C   UNL     1      46.018   3.214   7.188  0.00  0.00    +0.000 A 
ENDBRANCH  22  23
ENDBRANCH  20  22
ENDBRANCH  19  20
ENDBRANCH   4  19
TORSDOF 9
ENDMDL
