MODEL 1
REMARK VINA RESULT:    -6.856      0.000      0.000
REMARK INTER + INTRA:         -10.581
REMARK INTER:                  -9.260
REMARK INTRA:                  -1.321
REMARK UNBOUND:                -1.321
REMARK  Name = 
REMARK  6 active torsions:
REMARK  status: ('A' for Active; 'I' for Inactive)
REMARK    1  A    between atoms: C_2  and  C_3
REMARK    2  A    between atoms: C_5  and  C_6
REMARK    3  A    between atoms: C_9  and  O_10
REMARK    4  A    between atoms: O_10  and  C_11
REMARK    5  A    between atoms: C_11  and  C_12
REMARK    6  A    between atoms: C_17  and  C_18
REMARK                            x       y       z     vdW  Elec       q    Type
REMARK                         _______ _______ _______ _____ _____    ______ ____
ROOT
ATOM      1  C   UNL     1      46.617   7.374  12.694  0.00  0.00    +0.000 C 
ATOM      2  C   UNL     1      46.754   8.633  11.830  0.00  0.00    +0.000 C 
ATOM      3  C   UNL     1      46.079   8.718  13.151  0.00  0.00    +0.000 C 
ENDROOT
BRANCH   1   4
ATOM      4  C   UNL     1      45.580   6.324  12.318  0.00  0.00    +0.000 A 
ATOM      5  C   UNL     1      44.415   6.148  13.083  0.00  0.00    +0.000 A 
ATOM      6  C   UNL     1      43.415   5.257  12.686  0.00  0.00    +0.000 A 
ATOM      7  C   UNL     1      43.565   4.524  11.513  0.00  0.00    +0.000 A 
ATOM      8  F   UNL     1      42.576   3.701  11.139  0.00  0.00    +0.000 F 
ATOM      9  C   UNL     1      44.713   4.644  10.729  0.00  0.00    +0.000 A 
ATOM     10  C   UNL     1      45.714   5.537  11.158  0.00  0.00    +0.000 A 
BRANCH   9  11
ATOM     11  C   UNL     1      44.860   3.865   9.434  0.00  0.00    +0.000 C 
ATOM     12  C   UNL     1      45.246   2.401   9.695  0.00  0.00    +0.000 C 
ATOM     13  C   UNL     1      45.597   1.680   8.402  0.00  0.00    +0.000 C 
ATOM     14  O   UNL     1      46.607   2.390   7.687  0.00  0.00    +0.000 OA
ATOM     15  C   UNL     1      46.161   3.680   7.277  0.00  0.00    +0.000 C 
ATOM     16  C   UNL     1      45.863   4.550   8.489  0.00  0.00    +0.000 C 
ENDBRANCH   9  11
ENDBRANCH   1   4
BRANCH   1  17
ATOM     17  O   UNL     1      47.951   6.907  12.993  0.00  0.00    +0.000 OA
BRANCH  17  22
ATOM     18  C   UNL     1      47.937   5.037  16.182  0.00  0.00    +0.000 A 
ATOM     19  C   UNL     1      48.813   5.846  16.918  0.00  0.00    +0.000 A 
ATOM     20  C   UNL     1      49.442   6.934  16.300  0.00  0.00    +0.000 A 
ATOM     21  C   UNL     1      49.179   7.205  14.953  0.00  0.00    +0.000 A 
ATOM     22  C   UNL     1      48.288   6.409  14.222  0.00  0.00    +0.000 A 
ATOM     23  C   UNL     1      47.674   5.322  14.833  0.00  0.00    +0.000 A 
BRANCH  18  25
ATOM     24  N   UNL     1      46.724   3.068  17.352  0.00  0.00    +0.000 NA
ATOM     25  C   UNL     1      47.267   3.942  16.826  0.00  0.00    +0.000 C 
ENDBRANCH  18  25
BRANCH  20  26
ATOM     26  C   UNL     1      50.306   7.794  17.055  0.00  0.00    +0.000 C 
ATOM     27  N   UNL     1      50.994   8.493  17.673  0.00  0.00    +0.000 NA
ENDBRANCH  20  26
ENDBRANCH  17  22
ENDBRANCH   1  17
TORSDOF 6
ENDMDL
MODEL 2
REMARK VINA RESULT:    -6.718      0.406      2.498
REMARK INTER + INTRA:         -10.395
REMARK INTER:                  -9.172
REMARK INTRA:                  -1.223
REMARK UNBOUND:                -1.321
REMARK  Name = 
REMARK  6 active torsions:
REMARK  status: ('A' for Active; 'I' for Inactive)
REMARK    1  A    between atoms: C_2  and  C_3
REMARK    2  A    between atoms: C_5  and  C_6
REMARK    3  A    between atoms: C_9  and  O_10
REMARK    4  A    between atoms: O_10  and  C_11
REMARK    5  A    between atoms: C_11  and  C_12
REMARK    6  A    between atoms: C_17  and  C_18
REMARK                            x       y       z     vdW  Elec       q    Type
REMARK                         _______ _______ _______ _____ _____    ______ ____
ROOT
ATOM      1  C   UNL     1      46.818   7.268  12.698  0.00  0.00    +0.000 C 
ATOM      2  C   UNL     1      47.116   8.473  11.798  0.00  0.00    +0.000 C 
ATOM      3  C   UNL     1      46.387   8.674  13.077  0.00  0.00    +0.000 C 
ENDROOT
BRANCH   1   4
ATOM      4  C   UNL     1      45.707   6.304  12.307  0.00  0.00    +0.000 A 
ATOM      5  C   UNL     1      44.513   6.233  13.045  0.00  0.00    +0.000 A 
ATOM      6  C   UNL     1      43.452   5.425  12.631  0.00  0.00    +0.000 A 
ATOM      7  C   UNL     1      43.568   4.669  11.469  0.00  0.00    +0.000 A 
ATOM      8  F   UNL     1      42.523   3.927  11.078  0.00  0.00    +0.000 F 
ATOM      9  C   UNL     1      44.740   4.685  10.712  0.00  0.00    +0.000 A 
ATOM     10  C   UNL     1      45.801   5.496  11.157  0.00  0.00    +0.000 A 
BRANCH   9  11
ATOM     11  C   UNL     1      44.852   3.884   9.428  0.00  0.00    +0.000 C 
ATOM     12  C   UNL     1      45.144   2.401   9.709  0.00  0.00    +0.000 C 
ATOM     13  C   UNL     1      45.463   1.645   8.428  0.00  0.00    +0.000 C 
ATOM     14  O   UNL     1      46.523   2.283   7.716  0.00  0.00    +0.000 OA
ATOM     15  C   UNL     1      46.161   3.593   7.287  0.00  0.00    +0.000 C 
ATOM     16  C   UNL     1      45.904   4.494   8.485  0.00  0.00    +0.000 C 
ENDBRANCH   9  11
ENDBRANCH   1   4
BRANCH   1  17
ATOM     17  O   UNL     1      48.086   6.693  13.084  0.00  0.00    +0.000 OA
BRANCH  17  22
ATOM     18  C   UNL     1      49.895   6.568  16.305  0.00  0.00    +0.000 A 
ATOM     19  C   UNL     1      49.168   5.546  16.930  0.00  0.00    +0.000 A 
ATOM     20  C   UNL     1      48.051   4.997  16.290  0.00  0.00    +0.000 A 
ATOM     21  C   UNL     1      47.678   5.470  15.028  0.00  0.00    +0.000 A 
ATOM     22  C   UNL     1      48.417   6.477  14.394  0.00  0.00    +0.000 A 
ATOM     23  C   UNL     1      49.519   7.031  15.035  0.00  0.00    +0.000 A 
BRANCH  18  25
ATOM     24  N   UNL     1      51.993   7.545  17.473  0.00  0.00    +0.000 NA
ATOM     25  C   UNL     1      51.061   7.108  16.947  0.00  0.00    +0.000 C 
ENDBRANCH  18  25
BRANCH  20  26
ATOM     26  C   UNL     1      47.326   3.921  16.901  0.00  0.00    +0.000 C 
ATOM     27  N   UNL     1      46.731   3.051  17.385  0.00  0.00    +0.000 NA
ENDBRANCH  20  26
ENDBRANCH  17  22
ENDBRANCH   1  17
TORSDOF 6
ENDMDL
MODEL 3
REMARK VINA RESULT:    -6.578      1.581      3.283
REMARK INTER + INTRA:         -10.206
REMARK INTER:                  -8.749
REMARK INTRA:                  -1.457
REMARK UNBOUND:                -1.321
REMARK  Name = 
REMARK  6 active torsions:
REMARK  status: ('A' for Active; 'I' for Inactive)
REMARK    1  A    between atoms: C_2  and  C_3
REMARK    2  A    between atoms: C_5  and  C_6
REMARK    3  A    between atoms: C_9  and  O_10
REMARK    4  A    between atoms: O_10  and  C_11
REMARK    5  A    between atoms: C_11  and  C_12
REMARK    6  A    between atoms: C_17  and  C_18
REMARK                            x       y       z     vdW  Elec       q    Type
REMARK                         _______ _______ _______ _____ _____    ______ ____
ROOT
ATOM      1  C   UNL     1      48.739   7.586  12.630  0.00  0.00    +0.000 C 
ATOM      2  C   UNL     1      49.768   7.731  11.502  0.00  0.00    +0.000 C 
ATOM      3  C   UNL     1      49.474   8.892  12.382  0.00  0.00    +0.000 C 
ENDROOT
BRANCH   1   4
ATOM      4  C   UNL     1      47.256   7.571  12.286  0.00  0.00    +0.000 A 
ATOM      5  C   UNL     1      46.447   8.699  12.508  0.00  0.00    +0.000 A 
ATOM      6  C   UNL     1      45.111   8.724  12.102  0.00  0.00    +0.000 A 
ATOM      7  C   UNL     1      44.559   7.617  11.465  0.00  0.00    +0.000 A 
ATOM      8  F   UNL     1      43.284   7.680  11.057  0.00  0.00    +0.000 F 
ATOM      9  C   UNL     1      45.312   6.464  11.241  0.00  0.00    +0.000 A 
ATOM     10  C   UNL     1      46.651   6.457  11.674  0.00  0.00    +0.000 A 
BRANCH   9  11
ATOM     11  C   UNL     1      44.714   5.269  10.519  0.00  0.00    +0.000 C 
ATOM     12  C   UNL     1      44.594   4.049  11.446  0.00  0.00    +0.000 C 
ATOM     13  C   UNL     1      44.196   2.801  10.672  0.00  0.00    +0.000 C 
ATOM     14  O   UNL     1      45.094   2.573   9.586  0.00  0.00    +0.000 OA
ATOM     15  C   UNL     1      45.047   3.627   8.628  0.00  0.00    +0.000 C 
ATOM     16  C   UNL     1      45.518   4.933   9.250  0.00  0.00    +0.000 C 
ENDBRANCH   9  11
ENDBRANCH   1   4
BRANCH   1  17
ATOM     17  O   UNL     1      49.219   6.559  13.525  0.00  0.00    +0.000 OA
BRANCH  17  22
ATOM     18  C   UNL     1      49.225   7.185  17.168  0.00  0.00    +0.000 A 
ATOM     19  C   UNL     1      48.488   6.070  17.587  0.00  0.00    +0.000 A 
ATOM     20  C   UNL     1      47.944   5.198  16.636  0.00  0.00    +0.000 A 
ATOM     21  C   UNL     1      48.152   5.448  15.276  0.00  0.00    +0.000 A 
ATOM     22  C   UNL     1      48.906   6.552  14.857  0.00  0.00    +0.000 A 
ATOM     23  C   UNL     1      49.435   7.423  15.801  0.00  0.00    +0.000 A 
BRANCH  18  25
ATOM     24  N   UNL     1      50.274   8.763  18.938  0.00  0.00    +0.000 NA
ATOM     25  C   UNL     1      49.811   8.060  18.145  0.00  0.00    +0.000 C 
ENDBRANCH  18  25
BRANCH  20  26
ATOM     26  C   UNL     1      47.225   4.030  17.054  0.00  0.00    +0.000 C 
ATOM     27  N   UNL     1      46.633   3.093  17.395  0.00  0.00    +0.000 NA
ENDBRANCH  20  26
ENDBRANCH  17  22
ENDBRANCH   1  17
TORSDOF 6
ENDMDL
MODEL 4
REMARK VINA RESULT:    -6.012      1.787      2.789
REMARK INTER + INTRA:          -9.441
REMARK INTER:                  -8.178
REMARK INTRA:                  -1.263
REMARK UNBOUND:                -1.321
REMARK  Name = 
REMARK  6 active torsions:
REMARK  status: ('A' for Active; 'I' for Inactive)
REMARK    1  A    between atoms: C_2  and  C_3
REMARK    2  A    between atoms: C_5  and  C_6
REMARK    3  A    between atoms: C_9  and  O_10
REMARK    4  A    between atoms: O_10  and  C_11
REMARK    5  A    between atoms: C_11  and  C_12
REMARK    6  A    between atoms: C_17  and  C_18
REMARK                            x       y       z     vdW  Elec       q    Type
REMARK                         _______ _______ _______ _____ _____    ______ ____
ROOT
ATOM      1  C   UNL     1      49.058   7.960  13.669  0.00  0.00    +0.000 C 
ATOM      2  C   UNL     1      50.117   8.501  12.701  0.00  0.00    +0.000 C 
ATOM      3  C   UNL     1      49.526   9.403  13.723  0.00  0.00    +0.000 C 
ENDROOT
BRANCH   1   4
ATOM      4  C   UNL     1      47.640   7.728  13.167  0.00  0.00    +0.000 A 
ATOM      5  C   UNL     1      46.689   8.763  13.174  0.00  0.00    +0.000 A 
ATOM      6  C   UNL     1      45.418   8.584  12.622  0.00  0.00    +0.000 A 
ATOM      7  C   UNL     1      45.076   7.362  12.052  0.00  0.00    +0.000 A 
ATOM      8  F   UNL     1      43.862   7.228  11.500  0.00  0.00    +0.000 F 
ATOM      9  C   UNL     1      45.975   6.295  12.039  0.00  0.00    +0.000 A 
ATOM     10  C   UNL     1      47.244   6.495  12.615  0.00  0.00    +0.000 A 
BRANCH   9  11
ATOM     11  C   UNL     1      45.609   4.973  11.388  0.00  0.00    +0.000 C 
ATOM     12  C   UNL     1      45.381   5.129   9.876  0.00  0.00    +0.000 C 
ATOM     13  C   UNL     1      44.813   3.858   9.265  0.00  0.00    +0.000 C 
ATOM     14  O   UNL     1      43.630   3.453   9.954  0.00  0.00    +0.000 OA
ATOM     15  C   UNL     1      43.896   3.118  11.314  0.00  0.00    +0.000 C 
ATOM     16  C   UNL     1      44.387   4.339  12.076  0.00  0.00    +0.000 C 
ENDBRANCH   9  11
ENDBRANCH   1   4
BRANCH   1  17
ATOM     17  O   UNL     1      49.671   6.895  14.429  0.00  0.00    +0.000 OA
BRANCH  17  22
ATOM     18  C   UNL     1      47.888   5.114  17.133  0.00  0.00    +0.000 A 
ATOM     19  C   UNL     1      47.903   6.119  18.109  0.00  0.00    +0.000 A 
ATOM     20  C   UNL     1      48.579   7.319  17.862  0.00  0.00    +0.000 A 
ATOM     21  C   UNL     1      49.227   7.503  16.636  0.00  0.00    +0.000 A 
ATOM     22  C   UNL     1      49.195   6.507  15.652  0.00  0.00    +0.000 A 
ATOM     23  C   UNL     1      48.534   5.311  15.903  0.00  0.00    +0.000 A 
BRANCH  18  25
ATOM     24  N   UNL     1      46.587   2.912  17.557  0.00  0.00    +0.000 NA
ATOM     25  C   UNL     1      47.166   3.896  17.374  0.00  0.00    +0.000 C 
ENDBRANCH  18  25
BRANCH  20  26
ATOM     26  C   UNL     1      48.564   8.371  18.836  0.00  0.00    +0.000 C 
ATOM     27  N   UNL     1      48.561   9.228  19.617  0.00  0.00    +0.000 NA
ENDBRANCH  20  26
ENDBRANCH  17  22
ENDBRANCH   1  17
TORSDOF 6
ENDMDL
MODEL 5
REMARK VINA RESULT:    -5.824      3.490      7.230
REMARK INTER + INTRA:          -9.187
REMARK INTER:                  -7.969
REMARK INTRA:                  -1.219
REMARK UNBOUND:                -1.321
REMARK  Name = 
REMARK  6 active torsions:
REMARK  status: ('A' for Active; 'I' for Inactive)
REMARK    1  A    between atoms: C_2  and  C_3
REMARK    2  A    between atoms: C_5  and  C_6
REMARK    3  A    between atoms: C_9  and  O_10
REMARK    4  A    between atoms: O_10  and  C_11
REMARK    5  A    between atoms: C_11  and  C_12
REMARK    6  A    between atoms: C_17  and  C_18
REMARK                            x       y       z     vdW  Elec       q    Type
REMARK                         _______ _______ _______ _____ _____    ______ ____
ROOT
ATOM      1  C   UNL     1      48.107   7.978  12.645  0.00  0.00    +0.000 C 
ATOM      2  C   UNL     1      48.790   9.061  11.801  0.00  0.00    +0.000 C 
ATOM      3  C   UNL     1      49.293   7.664  11.749  0.00  0.00    +0.000 C 
ENDROOT
BRANCH   1   4
ATOM      4  C   UNL     1      48.363   7.932  14.145  0.00  0.00    +0.000 A 
ATOM      5  C   UNL     1      48.358   9.105  14.918  0.00  0.00    +0.000 A 
ATOM      6  C   UNL     1      48.491   9.059  16.308  0.00  0.00    +0.000 A 
ATOM      7  C   UNL     1      48.633   7.832  16.949  0.00  0.00    +0.000 A 
ATOM      8  F   UNL     1      48.727   7.814  18.286  0.00  0.00    +0.000 F 
ATOM      9  C   UNL     1      48.668   6.639  16.227  0.00  0.00    +0.000 A 
ATOM     10  C   UNL     1      48.547   6.714  14.826  0.00  0.00    +0.000 A 
BRANCH   9  11
ATOM     11  C   UNL     1      48.793   5.301  16.933  0.00  0.00    +0.000 C 
ATOM     12  C   UNL     1      50.263   4.902  17.136  0.00  0.00    +0.000 C 
ATOM     13  C   UNL     1      50.386   3.476  17.649  0.00  0.00    +0.000 C 
ATOM     14  O   UNL     1      49.690   2.570  16.793  0.00  0.00    +0.000 OA
ATOM     15  C   UNL     1      48.289   2.831  16.771  0.00  0.00    +0.000 C 
ATOM     16  C   UNL     1      48.013   4.206  16.183  0.00  0.00    +0.000 C 
ENDBRANCH   9  11
ENDBRANCH   1   4
BRANCH   1  17
ATOM     17  O   UNL     1      46.733   7.890  12.207  0.00  0.00    +0.000 OA
BRANCH  17  22
ATOM     18  C   UNL     1      45.455   5.089  10.160  0.00  0.00    +0.000 A 
ATOM     19  C   UNL     1      44.573   4.520  11.089  0.00  0.00    +0.000 A 
ATOM     20  C   UNL     1      44.501   5.037  12.388  0.00  0.00    +0.000 A 
ATOM     21  C   UNL     1      45.306   6.125  12.741  0.00  0.00    +0.000 A 
ATOM     22  C   UNL     1      46.172   6.708  11.807  0.00  0.00    +0.000 A 
ATOM     23  C   UNL     1      46.253   6.186  10.522  0.00  0.00    +0.000 A 
BRANCH  18  25
ATOM     24  N   UNL     1      45.553   4.177   7.736  0.00  0.00    +0.000 NA
ATOM     25  C   UNL     1      45.504   4.580   8.819  0.00  0.00    +0.000 C 
ENDBRANCH  18  25
BRANCH  20  26
ATOM     26  C   UNL     1      43.570   4.490  13.332  0.00  0.00    +0.000 C 
ATOM     27  N   UNL     1      42.808   4.050  14.087  0.00  0.00    +0.000 NA
ENDBRANCH  20  26
ENDBRANCH  17  22
ENDBRANCH   1  17
TORSDOF 6
ENDMDL
MODEL 6
REMARK VINA RESULT:    -5.822      3.471      5.382
REMARK INTER + INTRA:          -9.186
REMARK INTER:                  -7.999
REMARK INTRA:                  -1.187
REMARK UNBOUND:                -1.321
REMARK  Name = 
REMARK  6 active torsions:
REMARK  status: ('A' for Active; 'I' for Inactive)
REMARK    1  A    between atoms: C_2  and  C_3
REMARK    2  A    between atoms: C_5  and  C_6
REMARK    3  A    between atoms: C_9  and  O_10
REMARK    4  A    between atoms: O_10  and  C_11
REMARK    5  A    between atoms: C_11  and  C_12
REMARK    6  A    between atoms: C_17  and  C_18
REMARK                            x       y       z     vdW  Elec       q    Type
REMARK                         _______ _______ _______ _____ _____    ______ ____
ROOT
ATOM      1  C   UNL     1      50.218   7.919  16.494  0.00  0.00    +0.000 C 
ATOM      2  C   UNL     1      50.651   9.247  17.126  0.00  0.00    +0.000 C 
ATOM      3  C   UNL     1      49.275   8.737  17.358  0.00  0.00    +0.000 C 
ENDROOT
BRANCH   1   4
ATOM      4  C   UNL     1      49.901   7.873  15.005  0.00  0.00    +0.000 A 
ATOM      5  C   UNL     1      50.815   8.355  14.053  0.00  0.00    +0.000 A 
ATOM      6  C   UNL     1      50.574   8.222  12.684  0.00  0.00    +0.000 A 
ATOM      7  C   UNL     1      49.409   7.604  12.242  0.00  0.00    +0.000 A 
ATOM      8  F   UNL     1      49.217   7.461  10.923  0.00  0.00    +0.000 F 
ATOM      9  C   UNL     1      48.457   7.128  13.146  0.00  0.00    +0.000 A 
ATOM     10  C   UNL     1      48.717   7.287  14.520  0.00  0.00    +0.000 A 
BRANCH   9  11
ATOM     11  C   UNL     1      47.202   6.426  12.660  0.00  0.00    +0.000 C 
ATOM     12  C   UNL     1      46.068   7.424  12.377  0.00  0.00    +0.000 C 
ATOM     13  C   UNL     1      44.755   6.710  12.096  0.00  0.00    +0.000 C 
ATOM     14  O   UNL     1      44.435   5.809  13.155  0.00  0.00    +0.000 OA
ATOM     15  C   UNL     1      45.399   4.767  13.277  0.00  0.00    +0.000 C 
ATOM     16  C   UNL     1      46.756   5.340  13.656  0.00  0.00    +0.000 C 
ENDBRANCH   9  11
ENDBRANCH   1   4
BRANCH   1  17
ATOM     17  O   UNL     1      51.085   6.888  17.016  0.00  0.00    +0.000 OA
BRANCH  17  22
ATOM     18  C   UNL     1      49.069   3.812  17.383  0.00  0.00    +0.000 A 
ATOM     19  C   UNL     1      50.088   2.918  17.735  0.00  0.00    +0.000 A 
ATOM     20  C   UNL     1      51.419   3.353  17.754  0.00  0.00    +0.000 A 
ATOM     21  C   UNL     1      51.713   4.681  17.428  0.00  0.00    +0.000 A 
ATOM     22  C   UNL     1      50.692   5.580  17.096  0.00  0.00    +0.000 A 
ATOM     23  C   UNL     1      49.373   5.144  17.065  0.00  0.00    +0.000 A 
BRANCH  18  25
ATOM     24  N   UNL     1      46.601   3.017  17.396  0.00  0.00    +0.000 NA
ATOM     25  C   UNL     1      47.701   3.375  17.396  0.00  0.00    +0.000 C 
ENDBRANCH  18  25
BRANCH  20  26
ATOM     26  C   UNL     1      52.465   2.458  18.155  0.00  0.00    +0.000 C 
ATOM     27  N   UNL     1      53.303   1.724  18.479  0.00  0.00    +0.000 NA
ENDBRANCH  20  26
ENDBRANCH  17  22
ENDBRANCH   1  17
TORSDOF 6
ENDMDL
MODEL 7
REMARK VINA RESULT:    -5.734      3.383      5.234
REMARK INTER + INTRA:          -9.067
REMARK INTER:                  -7.733
REMARK INTRA:                  -1.333
REMARK UNBOUND:                -1.321
REMARK  Name = 
REMARK  6 active torsions:
REMARK  status: ('A' for Active; 'I' for Inactive)
REMARK    1  A    between atoms: C_2  and  C_3
REMARK    2  A    between atoms: C_5  and  C_6
REMARK    3  A    between atoms: C_9  and  O_10
REMARK    4  A    between atoms: O_10  and  C_11
REMARK    5  A    between atoms: C_11  and  C_12
REMARK    6  A    between atoms: C_17  and  C_18
REMARK                            x       y       z     vdW  Elec       q    Type
REMARK                         _______ _______ _______ _____ _____    ______ ____
ROOT
ATOM      1  C   UNL     1      49.203   8.400  16.490  0.00  0.00    +0.000 C 
ATOM      2  C   UNL     1      49.522   9.797  17.035  0.00  0.00    +0.000 C 
ATOM      3  C   UNL     1      48.134   9.273  17.125  0.00  0.00    +0.000 C 
ENDROOT
BRANCH   1   4
ATOM      4  C   UNL     1      49.101   8.194  14.986  0.00  0.00    +0.000 A 
ATOM      5  C   UNL     1      50.124   8.623  14.123  0.00  0.00    +0.000 A 
ATOM      6  C   UNL     1      50.083   8.347  12.755  0.00  0.00    +0.000 A 
ATOM      7  C   UNL     1      49.012   7.634  12.224  0.00  0.00    +0.000 A 
ATOM      8  F   UNL     1      49.014   7.354  10.913  0.00  0.00    +0.000 F 
ATOM      9  C   UNL     1      47.959   7.204  13.032  0.00  0.00    +0.000 A 
ATOM     10  C   UNL     1      48.016   7.508  14.406  0.00  0.00    +0.000 A 
BRANCH   9  11
ATOM     11  C   UNL     1      46.809   6.400  12.455  0.00  0.00    +0.000 C 
ATOM     12  C   UNL     1      45.508   7.219  12.416  0.00  0.00    +0.000 C 
ATOM     13  C   UNL     1      44.317   6.352  12.037  0.00  0.00    +0.000 C 
ATOM     14  O   UNL     1      44.222   5.221  12.901  0.00  0.00    +0.000 OA
ATOM     15  C   UNL     1      45.352   4.361  12.778  0.00  0.00    +0.000 C 
ATOM     16  C   UNL     1      46.617   5.080  13.222  0.00  0.00    +0.000 C 
ENDBRANCH   9  11
ENDBRANCH   1   4
BRANCH   1  17
ATOM     17  O   UNL     1      50.002   7.453  17.234  0.00  0.00    +0.000 OA
BRANCH  17  22
ATOM     18  C   UNL     1      48.732   5.035  19.724  0.00  0.00    +0.000 A 
ATOM     19  C   UNL     1      48.791   3.867  18.952  0.00  0.00    +0.000 A 
ATOM     20  C   UNL     1      49.169   3.942  17.606  0.00  0.00    +0.000 A 
ATOM     21  C   UNL     1      49.493   5.185  17.051  0.00  0.00    +0.000 A 
ATOM     22  C   UNL     1      49.454   6.349  17.828  0.00  0.00    +0.000 A 
ATOM     23  C   UNL     1      49.067   6.275  19.161  0.00  0.00    +0.000 A 
BRANCH  18  25
ATOM     24  N   UNL     1      48.083   4.879  22.229  0.00  0.00    +0.000 NA
ATOM     25  C   UNL     1      48.377   4.953  21.113  0.00  0.00    +0.000 C 
ENDBRANCH  18  25
BRANCH  20  26
ATOM     26  C   UNL     1      49.275   2.749  16.818  0.00  0.00    +0.000 C 
ATOM     27  N   UNL     1      49.361   1.776  16.192  0.00  0.00    +0.000 NA
ENDBRANCH  20  26
ENDBRANCH  17  22
ENDBRANCH   1  17
TORSDOF 6
ENDMDL
MODEL 8
REMARK VINA RESULT:    -5.714      3.477      7.085
REMARK INTER + INTRA:          -9.039
REMARK INTER:                  -7.719
REMARK INTRA:                  -1.320
REMARK UNBOUND:                -1.321
REMARK  Name = 
REMARK  6 active torsions:
REMARK  status: ('A' for Active; 'I' for Inactive)
REMARK    1  A    between atoms: C_2  and  C_3
REMARK    2  A    between atoms: C_5  and  C_6
REMARK    3  A    between atoms: C_9  and  O_10
REMARK    4  A    between atoms: O_10  and  C_11
REMARK    5  A    between atoms: C_11  and  C_12
REMARK    6  A    between atoms: C_17  and  C_18
REMARK                            x       y       z     vdW  Elec       q    Type
REMARK                         _______ _______ _______ _____ _____    ______ ____
ROOT
ATOM      1  C   UNL     1      48.208   7.919  12.631  0.00  0.00    +0.000 C 
ATOM      2  C   UNL     1      49.152   8.769  11.773  0.00  0.00    +0.000 C 
ATOM      3  C   UNL     1      49.312   7.292  11.797  0.00  0.00    +0.000 C 
ENDROOT
BRANCH   1   4
ATOM      4  C   UNL     1      48.401   7.887  14.141  0.00  0.00    +0.000 A 
ATOM      5  C   UNL     1      48.353   9.066  14.904  0.00  0.00    +0.000 A 
ATOM      6  C   UNL     1      48.429   9.031  16.298  0.00  0.00    +0.000 A 
ATOM      7  C   UNL     1      48.555   7.811  16.955  0.00  0.00    +0.000 A 
ATOM      8  F   UNL     1      48.592   7.804  18.295  0.00  0.00    +0.000 F 
ATOM      9  C   UNL     1      48.630   6.613  16.244  0.00  0.00    +0.000 A 
ATOM     10  C   UNL     1      48.567   6.675  14.839  0.00  0.00    +0.000 A 
BRANCH   9  11
ATOM     11  C   UNL     1      48.736   5.282  16.965  0.00  0.00    +0.000 C 
ATOM     12  C   UNL     1      50.199   4.837  17.121  0.00  0.00    +0.000 C 
ATOM     13  C   UNL     1      50.294   3.414  17.651  0.00  0.00    +0.000 C 
ATOM     14  O   UNL     1      49.538   2.521  16.835  0.00  0.00    +0.000 OA
ATOM     15  C   UNL     1      48.146   2.827  16.860  0.00  0.00    +0.000 C 
ATOM     16  C   UNL     1      47.894   4.202  16.261  0.00  0.00    +0.000 C 
ENDBRANCH   9  11
ENDBRANCH   1   4
BRANCH   1  17
ATOM     17  O   UNL     1      46.866   8.135  12.142  0.00  0.00    +0.000 OA
BRANCH  17  22
ATOM     18  C   UNL     1      44.581   5.238  12.366  0.00  0.00    +0.000 A 
ATOM     19  C   UNL     1      44.754   4.717  11.077  0.00  0.00    +0.000 A 
ATOM     20  C   UNL     1      45.557   5.397  10.154  0.00  0.00    +0.000 A 
ATOM     21  C   UNL     1      46.186   6.587  10.535  0.00  0.00    +0.000 A 
ATOM     22  C   UNL     1      46.030   7.097  11.830  0.00  0.00    +0.000 A 
ATOM     23  C   UNL     1      45.222   6.428  12.742  0.00  0.00    +0.000 A 
BRANCH  18  25
ATOM     24  N   UNL     1      43.151   3.940  14.096  0.00  0.00    +0.000 NA
ATOM     25  C   UNL     1      43.784   4.523  13.323  0.00  0.00    +0.000 C 
ENDBRANCH  18  25
BRANCH  20  26
ATOM     26  C   UNL     1      45.776   4.851   8.846  0.00  0.00    +0.000 C 
ATOM     27  N   UNL     1      45.966   4.411   7.790  0.00  0.00    +0.000 NA
ENDBRANCH  20  26
ENDBRANCH  17  22
ENDBRANCH   1  17
TORSDOF 6
ENDMDL
MODEL 9
REMARK VINA RESULT:    -5.707      3.295      4.866
REMARK INTER + INTRA:          -9.030
REMARK INTER:                  -8.210
REMARK INTRA:                  -0.820
REMARK UNBOUND:                -1.321
REMARK  Name = 
REMARK  6 active torsions:
REMARK  status: ('A' for Active; 'I' for Inactive)
REMARK    1  A    between atoms: C_2  and  C_3
REMARK    2  A    between atoms: C_5  and  C_6
REMARK    3  A    between atoms: C_9  and  O_10
REMARK    4  A    between atoms: O_10  and  C_11
REMARK    5  A    between atoms: C_11  and  C_12
REMARK    6  A    between atoms: C_17  and  C_18
REMARK                            x       y       z     vdW  Elec       q    Type
REMARK                         _______ _______ _______ _____ _____    ______ ____
ROOT
ATOM      1  C   UNL     1      48.143   4.542  16.540  0.00  0.00    +0.000 C 
ATOM      2  C   UNL     1      46.997   4.040  17.427  0.00  0.00    +0.000 C 
ATOM      3  C   UNL     1      47.713   3.085  16.541  0.00  0.00    +0.000 C 
ENDROOT
BRANCH   1   4
ATOM      4  C   UNL     1      47.817   5.341  15.286  0.00  0.00    +0.000 A 
ATOM      5  C   UNL     1      48.520   6.518  14.972  0.00  0.00    +0.000 A 
ATOM      6  C   UNL     1      48.295   7.199  13.774  0.00  0.00    +0.000 A 
ATOM      7  C   UNL     1      47.359   6.713  12.866  0.00  0.00    +0.000 A 
ATOM      8  F   UNL     1      47.186   7.368  11.709  0.00  0.00    +0.000 F 
ATOM      9  C   UNL     1      46.618   5.562  13.138  0.00  0.00    +0.000 A 
ATOM     10  C   UNL     1      46.852   4.902  14.360  0.00  0.00    +0.000 A 
BRANCH   9  11
ATOM     11  C   UNL     1      45.621   5.019  12.132  0.00  0.00    +0.000 C 
ATOM     12  C   UNL     1      44.338   5.865  12.092  0.00  0.00    +0.000 C 
ATOM     13  C   UNL     1      43.262   5.204  11.244  0.00  0.00    +0.000 C 
ATOM     14  O   UNL     1      43.020   3.869  11.688  0.00  0.00    +0.000 OA
ATOM     15  C   UNL     1      44.169   3.040  11.531  0.00  0.00    +0.000 C 
ATOM     16  C   UNL     1      45.307   3.538  12.410  0.00  0.00    +0.000 C 
ENDBRANCH   9  11
ENDBRANCH   1   4
BRANCH   1  17
ATOM     17  O   UNL     1      49.165   5.071  17.413  0.00  0.00    +0.000 OA
BRANCH  17  22
ATOM     18  C   UNL     1      52.184   2.966  17.761  0.00  0.00    +0.000 A 
ATOM     19  C   UNL     1      53.160   3.971  17.741  0.00  0.00    +0.000 A 
ATOM     20  C   UNL     1      52.783   5.302  17.527  0.00  0.00    +0.000 A 
ATOM     21  C   UNL     1      51.432   5.614  17.343  0.00  0.00    +0.000 A 
ATOM     22  C   UNL     1      50.454   4.612  17.384  0.00  0.00    +0.000 A 
ATOM     23  C   UNL     1      50.830   3.289  17.584  0.00  0.00    +0.000 A 
BRANCH  18  25
ATOM     24  N   UNL     1      52.864   0.506  18.217  0.00  0.00    +0.000 NA
ATOM     25  C   UNL     1      52.567   1.605  18.014  0.00  0.00    +0.000 C 
ENDBRANCH  18  25
BRANCH  20  26
ATOM     26  C   UNL     1      53.769   6.344  17.548  0.00  0.00    +0.000 C 
ATOM     27  N   UNL     1      54.570   7.182  17.578  0.00  0.00    +0.000 NA
ENDBRANCH  20  26
ENDBRANCH  17  22
ENDBRANCH   1  17
TORSDOF 6
ENDMDL
