MODEL 1
REMARK VINA RESULT:    -7.704      0.000      0.000
REMARK INTER + INTRA:         -12.550
REMARK INTER:                 -11.306
REMARK INTRA:                  -1.243
REMARK UNBOUND:                -1.243
REMARK  Name = 
REMARK  9 active torsions:
REMARK  status: ('A' for Active; 'I' for Inactive)
REMARK    1  A    between atoms: C_1  and  O_2
REMARK    2  A    between atoms: O_2  and  C_3
REMARK    3  A    between atoms: C_8  and  C_9
REMARK    4  A    between atoms: C_9  and  C_10
REMARK    5  A    between atoms: C_10  and  O_11
REMARK    6  A    between atoms: O_11  and  C_12
REMARK    7  A    between atoms: C_15  and  C_16
REMARK    8  A    between atoms: C_16  and  N_17
REMARK    9  A    between atoms: C_18  and  C_20
REMARK                            x       y       z     vdW  Elec       q    Type
REMARK                         _______ _______ _______ _____ _____    ______ ____
ROOT
ATOM      1  C   UNL     1      44.566   5.054  11.039  0.00  0.00    +0.000 A 
ATOM      2  C   UNL     1      45.777   5.569  10.556  0.00  0.00    +0.000 A 
ATOM      3  C   UNL     1      46.501   6.523  11.279  0.00  0.00    +0.000 A 
ATOM      4  C   UNL     1      46.040   6.989  12.514  0.00  0.00    +0.000 A 
ATOM      5  C   UNL     1      44.813   6.506  12.991  0.00  0.00    +0.000 A 
ATOM      6  C   UNL     1      44.094   5.546  12.263  0.00  0.00    +0.000 A 
ATOM      7  F   UNL     1      42.940   5.091  12.777  0.00  0.00    +0.000 F 
ENDROOT
BRANCH   1   8
ATOM      8  O   UNL     1      43.818   4.095  10.386  0.00  0.00    +0.000 OA
BRANCH   8   9
ATOM      9  C   UNL     1      44.422   2.790  10.348  0.00  0.00    +0.000 C 
BRANCH   9  10
ATOM     10  C   UNL     1      44.334   2.130   8.970  0.00  0.00    +0.000 C 
BRANCH  10  16
ATOM     11  C   UNL     1      46.522   1.349   7.835  0.00  0.00    +0.000 A 
ATOM     12  C   UNL     1      47.683   1.662   7.112  0.00  0.00    +0.000 A 
ATOM     13  C   UNL     1      47.921   2.963   6.670  0.00  0.00    +0.000 A 
ATOM     14  C   UNL     1      46.991   3.961   6.932  0.00  0.00    +0.000 A 
ATOM     15  C   UNL     1      45.837   3.666   7.659  0.00  0.00    +0.000 A 
ATOM     16  C   UNL     1      45.587   2.364   8.135  0.00  0.00    +0.000 A 
BRANCH  11  18
ATOM     17  C   UNL     1      46.804  -0.991   7.503  0.00  0.00    +0.000 C 
ATOM     18  O   UNL     1      46.214   0.075   8.243  0.00  0.00    +0.000 OA
ENDBRANCH  11  18
ENDBRANCH  10  16
ENDBRANCH   9  10
ENDBRANCH   8   9
ENDBRANCH   1   8
BRANCH   4  19
ATOM     19  C   UNL     1      46.868   7.974  13.304  0.00  0.00    +0.000 C 
BRANCH  19  20
ATOM     20  N   UNL     1      47.471   7.374  14.468  0.00  0.00    +0.000 N 
ATOM     21  C   UNL     1      48.750   6.852  14.411  0.00  0.00    +0.000 C 
ATOM     22  O   UNL     1      49.431   6.859  13.396  0.00  0.00    +0.000 OA
ATOM     23  H   UNL     1      47.079   7.569  15.377  0.00  0.00    +0.000 HD
BRANCH  21  24
ATOM     24  C   UNL     1      49.229   6.318  15.687  0.00  0.00    +0.000 A 
ATOM     25  C   UNL     1      50.329   6.782  16.395  0.00  0.00    +0.000 A 
ATOM     26  N   UNL     1      50.447   6.047  17.545  0.00  0.00    +0.000 N 
ATOM     27  C   UNL     1      49.462   5.102  17.594  0.00  0.00    +0.000 A 
ATOM     28  N   UNL     1      49.334   4.205  18.588  0.00  0.00    +0.000 NA
ATOM     29  C   UNL     1      48.284   3.370  18.409  0.00  0.00    +0.000 A 
ATOM     30  C   UNL     1      47.402   3.402  17.339  0.00  0.00    +0.000 A 
ATOM     31  C   UNL     1      47.579   4.363  16.340  0.00  0.00    +0.000 A 
ATOM     32  C   UNL     1      48.663   5.252  16.464  0.00  0.00    +0.000 A 
ATOM     33  H   UNL     1      51.149   6.154  18.267  0.00  0.00    +0.000 HD
ENDBRANCH  21  24
ENDBRANCH  19  20
ENDBRANCH   4  19
TORSDOF 8
ENDMDL
MODEL 2
REMARK VINA RESULT:    -7.311      3.201      8.642
REMARK INTER + INTRA:         -11.974
REMARK INTER:                 -10.424
REMARK INTRA:                  -1.550
REMARK UNBOUND:                -1.243
REMARK  Name = 
REMARK  9 active torsions:
REMARK  status: ('A' for Active; 'I' for Inactive)
REMARK    1  A    between atoms: C_1  and  O_2
REMARK    2  A    between atoms: O_2  and  C_3
REMARK    3  A    between atoms: C_8  and  C_9
REMARK    4  A    between atoms: C_9  and  C_10
REMARK    5  A    between atoms: C_10  and  O_11
REMARK    6  A    between atoms: O_11  and  C_12
REMARK    7  A    between atoms: C_15  and  C_16
REMARK    8  A    between atoms: C_16  and  N_17
REMARK    9  A    between atoms: C_18  and  C_20
REMARK                            x       y       z     vdW  Elec       q    Type
REMARK                         _______ _______ _______ _____ _____    ______ ____
ROOT
ATOM      1  C   UNL     1      48.644   8.529  13.569  0.00  0.00    +0.000 A 
ATOM      2  C   UNL     1      47.356   8.925  13.953  0.00  0.00    +0.000 A 
ATOM      3  C   UNL     1      46.223   8.480  13.264  0.00  0.00    +0.000 A 
ATOM      4  C   UNL     1      46.341   7.617  12.170  0.00  0.00    +0.000 A 
ATOM      5  C   UNL     1      47.627   7.241  11.756  0.00  0.00    +0.000 A 
ATOM      6  C   UNL     1      48.759   7.688  12.454  0.00  0.00    +0.000 A 
ATOM      7  F   UNL     1      49.967   7.275  12.038  0.00  0.00    +0.000 F 
ENDROOT
BRANCH   1   8
ATOM      8  O   UNL     1      49.799   8.914  14.221  0.00  0.00    +0.000 OA
BRANCH   8   9
ATOM      9  C   UNL     1      49.918   8.416  15.566  0.00  0.00    +0.000 C 
BRANCH   9  10
ATOM     10  C   UNL     1      50.153   6.905  15.624  0.00  0.00    +0.000 C 
BRANCH  10  16
ATOM     11  C   UNL     1      48.192   5.326  16.218  0.00  0.00    +0.000 A 
ATOM     12  C   UNL     1      47.336   4.779  17.185  0.00  0.00    +0.000 A 
ATOM     13  C   UNL     1      47.494   5.088  18.536  0.00  0.00    +0.000 A 
ATOM     14  C   UNL     1      48.520   5.934  18.935  0.00  0.00    +0.000 A 
ATOM     15  C   UNL     1      49.374   6.493  17.982  0.00  0.00    +0.000 A 
ATOM     16  C   UNL     1      49.220   6.213  16.611  0.00  0.00    +0.000 A 
BRANCH  11  18
ATOM     17  C   UNL     1      46.822   4.686  14.380  0.00  0.00    +0.000 C 
ATOM     18  O   UNL     1      48.116   5.010  14.885  0.00  0.00    +0.000 OA
ENDBRANCH  11  18
ENDBRANCH  10  16
ENDBRANCH   9  10
ENDBRANCH   8   9
ENDBRANCH   1   8
BRANCH   4  19
ATOM     19  C   UNL     1      45.101   7.101  11.480  0.00  0.00    +0.000 C 
BRANCH  19  20
ATOM     20  N   UNL     1      45.290   5.785  10.923  0.00  0.00    +0.000 N 
ATOM     21  C   UNL     1      44.208   5.040  10.492  0.00  0.00    +0.000 C 
ATOM     22  O   UNL     1      43.054   5.434  10.559  0.00  0.00    +0.000 OA
ATOM     23  H   UNL     1      46.208   5.518  10.602  0.00  0.00    +0.000 HD
BRANCH  21  24
ATOM     24  C   UNL     1      44.575   3.745   9.915  0.00  0.00    +0.000 A 
ATOM     25  C   UNL     1      44.102   2.510  10.337  0.00  0.00    +0.000 A 
ATOM     26  N   UNL     1      44.656   1.539   9.545  0.00  0.00    +0.000 N 
ATOM     27  C   UNL     1      45.492   2.110   8.629  0.00  0.00    +0.000 A 
ATOM     28  N   UNL     1      46.208   1.410   7.730  0.00  0.00    +0.000 NA
ATOM     29  C   UNL     1      46.967   2.200   6.935  0.00  0.00    +0.000 A 
ATOM     30  C   UNL     1      47.027   3.584   6.994  0.00  0.00    +0.000 A 
ATOM     31  C   UNL     1      46.253   4.258   7.943  0.00  0.00    +0.000 A 
ATOM     32  C   UNL     1      45.453   3.490   8.809  0.00  0.00    +0.000 A 
ATOM     33  H   UNL     1      44.498   0.541   9.606  0.00  0.00    +0.000 HD
ENDBRANCH  21  24
ENDBRANCH  19  20
ENDBRANCH   4  19
TORSDOF 8
ENDMDL
MODEL 3
REMARK VINA RESULT:    -7.110      3.374      8.631
REMARK INTER + INTRA:         -11.679
REMARK INTER:                  -9.863
REMARK INTRA:                  -1.816
REMARK UNBOUND:                -1.243
REMARK  Name = 
REMARK  9 active torsions:
REMARK  status: ('A' for Active; 'I' for Inactive)
REMARK    1  A    between atoms: C_1  and  O_2
REMARK    2  A    between atoms: O_2  and  C_3
REMARK    3  A    between atoms: C_8  and  C_9
REMARK    4  A    between atoms: C_9  and  C_10
REMARK    5  A    between atoms: C_10  and  O_11
REMARK    6  A    between atoms: O_11  and  C_12
REMARK    7  A    between atoms: C_15  and  C_16
REMARK    8  A    between atoms: C_16  and  N_17
REMARK    9  A    between atoms: C_18  and  C_20
REMARK                            x       y       z     vdW  Elec       q    Type
REMARK                         _______ _______ _______ _____ _____    ______ ____
ROOT
ATOM      1  C   UNL     1      49.031   8.055  16.318  0.00  0.00    +0.000 A 
ATOM      2  C   UNL     1      48.119   8.968  15.773  0.00  0.00    +0.000 A 
ATOM      3  C   UNL     1      47.730   8.894  14.432  0.00  0.00    +0.000 A 
ATOM      4  C   UNL     1      48.237   7.896  13.592  0.00  0.00    +0.000 A 
ATOM      5  C   UNL     1      49.175   6.998  14.118  0.00  0.00    +0.000 A 
ATOM      6  C   UNL     1      49.557   7.075  15.466  0.00  0.00    +0.000 A 
ATOM      7  F   UNL     1      50.435   6.172  15.931  0.00  0.00    +0.000 F 
ENDROOT
BRANCH   1   8
ATOM      8  O   UNL     1      49.436   8.060  17.639  0.00  0.00    +0.000 OA
BRANCH   8   9
ATOM      9  C   UNL     1      48.435   7.615  18.571  0.00  0.00    +0.000 C 
BRANCH   9  10
ATOM     10  C   UNL     1      48.845   6.350  19.330  0.00  0.00    +0.000 C 
BRANCH  10  16
ATOM     11  C   UNL     1      49.656   4.110  18.324  0.00  0.00    +0.000 A 
ATOM     12  C   UNL     1      49.420   3.008  17.490  0.00  0.00    +0.000 A 
ATOM     13  C   UNL     1      48.197   2.856  16.836  0.00  0.00    +0.000 A 
ATOM     14  C   UNL     1      47.193   3.796  17.024  0.00  0.00    +0.000 A 
ATOM     15  C   UNL     1      47.419   4.903  17.844  0.00  0.00    +0.000 A 
ATOM     16  C   UNL     1      48.652   5.089  18.496  0.00  0.00    +0.000 A 
BRANCH  11  18
ATOM     17  C   UNL     1      52.013   4.445  18.272  0.00  0.00    +0.000 C 
ATOM     18  O   UNL     1      50.819   4.277  19.034  0.00  0.00    +0.000 OA
ENDBRANCH  11  18
ENDBRANCH  10  16
ENDBRANCH   9  10
ENDBRANCH   8   9
ENDBRANCH   1   8
BRANCH   4  19
ATOM     19  C   UNL     1      47.756   7.799  12.164  0.00  0.00    +0.000 C 
BRANCH  19  20
ATOM     20  N   UNL     1      47.136   6.529  11.879  0.00  0.00    +0.000 N 
ATOM     21  C   UNL     1      45.799   6.318  12.163  0.00  0.00    +0.000 C 
ATOM     22  O   UNL     1      45.079   7.167  12.667  0.00  0.00    +0.000 OA
ATOM     23  H   UNL     1      47.590   5.896  11.238  0.00  0.00    +0.000 HD
BRANCH  21  24
ATOM     24  C   UNL     1      45.315   4.991  11.776  0.00  0.00    +0.000 A 
ATOM     25  C   UNL     1      44.835   4.021  12.644  0.00  0.00    +0.000 A 
ATOM     26  N   UNL     1      44.460   2.927  11.910  0.00  0.00    +0.000 N 
ATOM     27  C   UNL     1      44.702   3.154  10.585  0.00  0.00    +0.000 A 
ATOM     28  N   UNL     1      44.467   2.251   9.616  0.00  0.00    +0.000 NA
ATOM     29  C   UNL     1      44.794   2.707   8.385  0.00  0.00    +0.000 A 
ATOM     30  C   UNL     1      45.308   3.963   8.099  0.00  0.00    +0.000 A 
ATOM     31  C   UNL     1      45.522   4.864   9.147  0.00  0.00    +0.000 A 
ATOM     32  C   UNL     1      45.215   4.442  10.454  0.00  0.00    +0.000 A 
ATOM     33  H   UNL     1      44.068   2.063  12.262  0.00  0.00    +0.000 HD
ENDBRANCH  21  24
ENDBRANCH  19  20
ENDBRANCH   4  19
TORSDOF 8
ENDMDL
MODEL 4
REMARK VINA RESULT:    -7.027      3.307      8.435
REMARK INTER + INTRA:         -11.556
REMARK INTER:                 -10.122
REMARK INTRA:                  -1.435
REMARK UNBOUND:                -1.243
REMARK  Name = 
REMARK  9 active torsions:
REMARK  status: ('A' for Active; 'I' for Inactive)
REMARK    1  A    between atoms: C_1  and  O_2
REMARK    2  A    between atoms: O_2  and  C_3
REMARK    3  A    between atoms: C_8  and  C_9
REMARK    4  A    between atoms: C_9  and  C_10
REMARK    5  A    between atoms: C_10  and  O_11
REMARK    6  A    between atoms: O_11  and  C_12
REMARK    7  A    between atoms: C_15  and  C_16
REMARK    8  A    between atoms: C_16  and  N_17
REMARK    9  A    between atoms: C_18  and  C_20
REMARK                            x       y       z     vdW  Elec       q    Type
REMARK                         _______ _______ _______ _____ _____    ______ ____
ROOT
ATOM      1  C   UNL     1      49.500   7.899  14.654  0.00  0.00    +0.000 A 
ATOM      2  C   UNL     1      49.323   6.968  13.622  0.00  0.00    +0.000 A 
ATOM      3  C   UNL     1      48.146   6.934  12.869  0.00  0.00    +0.000 A 
ATOM      4  C   UNL     1      47.107   7.838  13.118  0.00  0.00    +0.000 A 
ATOM      5  C   UNL     1      47.260   8.752  14.169  0.00  0.00    +0.000 A 
ATOM      6  C   UNL     1      48.446   8.783  14.919  0.00  0.00    +0.000 A 
ATOM      7  F   UNL     1      48.557   9.698  15.896  0.00  0.00    +0.000 F 
ENDROOT
BRANCH   1   8
ATOM      8  O   UNL     1      50.647   8.000  15.418  0.00  0.00    +0.000 OA
BRANCH   8   9
ATOM      9  C   UNL     1      50.986   6.805  16.144  0.00  0.00    +0.000 C 
BRANCH   9  10
ATOM     10  C   UNL     1      50.037   6.525  17.312  0.00  0.00    +0.000 C 
BRANCH  10  16
ATOM     11  C   UNL     1      49.922   3.974  17.721  0.00  0.00    +0.000 A 
ATOM     12  C   UNL     1      49.269   2.750  17.518  0.00  0.00    +0.000 A 
ATOM     13  C   UNL     1      48.065   2.690  16.816  0.00  0.00    +0.000 A 
ATOM     14  C   UNL     1      47.493   3.856  16.326  0.00  0.00    +0.000 A 
ATOM     15  C   UNL     1      48.138   5.080  16.512  0.00  0.00    +0.000 A 
ATOM     16  C   UNL     1      49.365   5.163  17.197  0.00  0.00    +0.000 A 
BRANCH  11  18
ATOM     17  C   UNL     1      52.257   3.539  17.874  0.00  0.00    +0.000 C 
ATOM     18  O   UNL     1      51.077   4.096  18.451  0.00  0.00    +0.000 OA
ENDBRANCH  11  18
ENDBRANCH  10  16
ENDBRANCH   9  10
ENDBRANCH   8   9
ENDBRANCH   1   8
BRANCH   4  19
ATOM     19  C   UNL     1      45.871   7.822  12.251  0.00  0.00    +0.000 C 
BRANCH  19  20
ATOM     20  N   UNL     1      45.595   6.513  11.713  0.00  0.00    +0.000 N 
ATOM     21  C   UNL     1      44.635   5.701  12.290  0.00  0.00    +0.000 C 
ATOM     22  O   UNL     1      43.982   6.028  13.269  0.00  0.00    +0.000 OA
ATOM     23  H   UNL     1      45.899   6.296  10.776  0.00  0.00    +0.000 HD
BRANCH  21  24
ATOM     24  C   UNL     1      44.449   4.424  11.599  0.00  0.00    +0.000 A 
ATOM     25  C   UNL     1      43.802   3.312  12.118  0.00  0.00    +0.000 A 
ATOM     26  N   UNL     1      43.813   2.321  11.172  0.00  0.00    +0.000 N 
ATOM     27  C   UNL     1      44.468   2.755  10.055  0.00  0.00    +0.000 A 
ATOM     28  N   UNL     1      44.671   1.995   8.964  0.00  0.00    +0.000 NA
ATOM     29  C   UNL     1      45.351   2.646   7.991  0.00  0.00    +0.000 A 
ATOM     30  C   UNL     1      45.802   3.956   8.060  0.00  0.00    +0.000 A 
ATOM     31  C   UNL     1      45.554   4.700   9.217  0.00  0.00    +0.000 A 
ATOM     32  C   UNL     1      44.862   4.073  10.270  0.00  0.00    +0.000 A 
ATOM     33  H   UNL     1      43.412   1.395  11.256  0.00  0.00    +0.000 HD
ENDBRANCH  21  24
ENDBRANCH  19  20
ENDBRANCH   4  19
TORSDOF 8
ENDMDL
MODEL 5
REMARK VINA RESULT:    -6.983      3.195      8.342
REMARK INTER + INTRA:         -11.492
REMARK INTER:                 -10.124
REMARK INTRA:                  -1.368
REMARK UNBOUND:                -1.243
REMARK  Name = 
REMARK  9 active torsions:
REMARK  status: ('A' for Active; 'I' for Inactive)
REMARK    1  A    between atoms: C_1  and  O_2
REMARK    2  A    between atoms: O_2  and  C_3
REMARK    3  A    between atoms: C_8  and  C_9
REMARK    4  A    between atoms: C_9  and  C_10
REMARK    5  A    between atoms: C_10  and  O_11
REMARK    6  A    between atoms: O_11  and  C_12
REMARK    7  A    between atoms: C_15  and  C_16
REMARK    8  A    between atoms: C_16  and  N_17
REMARK    9  A    between atoms: C_18  and  C_20
REMARK                            x       y       z     vdW  Elec       q    Type
REMARK                         _______ _______ _______ _____ _____    ______ ____
ROOT
ATOM      1  C   UNL     1      49.325   8.069  14.856  0.00  0.00    +0.000 A 
ATOM      2  C   UNL     1      49.502   7.268  13.720  0.00  0.00    +0.000 A 
ATOM      3  C   UNL     1      48.503   7.156  12.747  0.00  0.00    +0.000 A 
ATOM      4  C   UNL     1      47.295   7.849  12.876  0.00  0.00    +0.000 A 
ATOM      5  C   UNL     1      47.094   8.626  14.025  0.00  0.00    +0.000 A 
ATOM      6  C   UNL     1      48.102   8.738  14.995  0.00  0.00    +0.000 A 
ATOM      7  F   UNL     1      47.874   9.520  16.062  0.00  0.00    +0.000 F 
ENDROOT
BRANCH   1   8
ATOM      8  O   UNL     1      50.280   8.239  15.839  0.00  0.00    +0.000 OA
BRANCH   8   9
ATOM      9  C   UNL     1      50.679   7.025  16.500  0.00  0.00    +0.000 C 
BRANCH   9  10
ATOM     10  C   UNL     1      49.533   6.354  17.260  0.00  0.00    +0.000 C 
BRANCH  10  16
ATOM     11  C   UNL     1      48.490   4.038  16.772  0.00  0.00    +0.000 A 
ATOM     12  C   UNL     1      48.606   2.641  16.773  0.00  0.00    +0.000 A 
ATOM     13  C   UNL     1      49.800   2.023  17.145  0.00  0.00    +0.000 A 
ATOM     14  C   UNL     1      50.895   2.797  17.504  0.00  0.00    +0.000 A 
ATOM     15  C   UNL     1      50.790   4.189  17.517  0.00  0.00    +0.000 A 
ATOM     16  C   UNL     1      49.589   4.834  17.167  0.00  0.00    +0.000 A 
BRANCH  11  18
ATOM     17  C   UNL     1      47.039   4.608  14.973  0.00  0.00    +0.000 C 
ATOM     18  O   UNL     1      47.358   4.696  16.361  0.00  0.00    +0.000 OA
ENDBRANCH  11  18
ENDBRANCH  10  16
ENDBRANCH   9  10
ENDBRANCH   8   9
ENDBRANCH   1   8
BRANCH   4  19
ATOM     19  C   UNL     1      46.256   7.761  11.784  0.00  0.00    +0.000 C 
BRANCH  19  20
ATOM     20  N   UNL     1      45.989   6.400  11.389  0.00  0.00    +0.000 N 
ATOM     21  C   UNL     1      44.701   5.897  11.421  0.00  0.00    +0.000 C 
ATOM     22  O   UNL     1      43.735   6.552  11.781  0.00  0.00    +0.000 OA
ATOM     23  H   UNL     1      46.678   5.905  10.844  0.00  0.00    +0.000 HD
BRANCH  21  24
ATOM     24  C   UNL     1      44.596   4.514  10.951  0.00  0.00    +0.000 A 
ATOM     25  C   UNL     1      43.954   3.481  11.619  0.00  0.00    +0.000 A 
ATOM     26  N   UNL     1      44.051   2.345  10.858  0.00  0.00    +0.000 N 
ATOM     27  C   UNL     1      44.757   2.609   9.720  0.00  0.00    +0.000 A 
ATOM     28  N   UNL     1      45.047   1.685   8.787  0.00  0.00    +0.000 NA
ATOM     29  C   UNL     1      45.761   2.187   7.755  0.00  0.00    +0.000 A 
ATOM     30  C   UNL     1      46.167   3.507   7.621  0.00  0.00    +0.000 A 
ATOM     31  C   UNL     1      45.828   4.427   8.618  0.00  0.00    +0.000 A 
ATOM     32  C   UNL     1      45.097   3.959   9.725  0.00  0.00    +0.000 A 
ATOM     33  H   UNL     1      43.675   1.432  11.079  0.00  0.00    +0.000 HD
ENDBRANCH  21  24
ENDBRANCH  19  20
ENDBRANCH   4  19
TORSDOF 8
ENDMDL
MODEL 6
REMARK VINA RESULT:    -6.861      3.364      8.725
REMARK INTER + INTRA:         -11.314
REMARK INTER:                 -10.204
REMARK INTRA:                  -1.109
REMARK UNBOUND:                -1.243
REMARK  Name = 
REMARK  9 active torsions:
REMARK  status: ('A' for Active; 'I' for Inactive)
REMARK    1  A    between atoms: C_1  and  O_2
REMARK    2  A    between atoms: O_2  and  C_3
REMARK    3  A    between atoms: C_8  and  C_9
REMARK    4  A    between atoms: C_9  and  C_10
REMARK    5  A    between atoms: C_10  and  O_11
REMARK    6  A    between atoms: O_11  and  C_12
REMARK    7  A    between atoms: C_15  and  C_16
REMARK    8  A    between atoms: C_16  and  N_17
REMARK    9  A    between atoms: C_18  and  C_20
REMARK                            x       y       z     vdW  Elec       q    Type
REMARK                         _______ _______ _______ _____ _____    ______ ____
ROOT
ATOM      1  C   UNL     1      50.535   7.407  15.622  0.00  0.00    +0.000 A 
ATOM      2  C   UNL     1      50.955   7.971  14.410  0.00  0.00    +0.000 A 
ATOM      3  C   UNL     1      50.097   8.050  13.309  0.00  0.00    +0.000 A 
ATOM      4  C   UNL     1      48.784   7.574  13.387  0.00  0.00    +0.000 A 
ATOM      5  C   UNL     1      48.363   6.979  14.584  0.00  0.00    +0.000 A 
ATOM      6  C   UNL     1      49.228   6.906  15.686  0.00  0.00    +0.000 A 
ATOM      7  F   UNL     1      48.768   6.355  16.821  0.00  0.00    +0.000 F 
ENDROOT
BRANCH   1   8
ATOM      8  O   UNL     1      51.326   7.321  16.751  0.00  0.00    +0.000 OA
BRANCH   8   9
ATOM      9  C   UNL     1      52.029   6.074  16.893  0.00  0.00    +0.000 C 
BRANCH   9  10
ATOM     10  C   UNL     1      51.544   5.246  18.085  0.00  0.00    +0.000 C 
BRANCH  10  16
ATOM     11  C   UNL     1      50.810   2.869  17.380  0.00  0.00    +0.000 A 
ATOM     12  C   UNL     1      51.092   1.498  17.290  0.00  0.00    +0.000 A 
ATOM     13  C   UNL     1      52.332   0.996  17.685  0.00  0.00    +0.000 A 
ATOM     14  C   UNL     1      53.308   1.863  18.157  0.00  0.00    +0.000 A 
ATOM     15  C   UNL     1      53.037   3.228  18.262  0.00  0.00    +0.000 A 
ATOM     16  C   UNL     1      51.786   3.755  17.890  0.00  0.00    +0.000 A 
BRANCH  11  18
ATOM     17  C   UNL     1      48.478   3.167  17.757  0.00  0.00    +0.000 C 
ATOM     18  O   UNL     1      49.628   3.421  16.953  0.00  0.00    +0.000 OA
ENDBRANCH  11  18
ENDBRANCH  10  16
ENDBRANCH   9  10
ENDBRANCH   8   9
ENDBRANCH   1   8
BRANCH   4  19
ATOM     19  C   UNL     1      47.856   7.726  12.205  0.00  0.00    +0.000 C 
BRANCH  19  20
ATOM     20  N   UNL     1      47.081   6.535  11.959  0.00  0.00    +0.000 N 
ATOM     21  C   UNL     1      45.743   6.482  12.301  0.00  0.00    +0.000 C 
ATOM     22  O   UNL     1      45.148   7.412  12.826  0.00  0.00    +0.000 OA
ATOM     23  H   UNL     1      47.431   5.851  11.306  0.00  0.00    +0.000 HD
BRANCH  21  24
ATOM     24  C   UNL     1      45.092   5.219  11.948  0.00  0.00    +0.000 A 
ATOM     25  C   UNL     1      44.389   4.401  12.820  0.00  0.00    +0.000 A 
ATOM     26  N   UNL     1      43.913   3.324  12.119  0.00  0.00    +0.000 N 
ATOM     27  C   UNL     1      44.306   3.412  10.814  0.00  0.00    +0.000 A 
ATOM     28  N   UNL     1      44.020   2.485   9.883  0.00  0.00    +0.000 NA
ATOM     29  C   UNL     1      44.524   2.792   8.665  0.00  0.00    +0.000 A 
ATOM     30  C   UNL     1      45.254   3.931   8.358  0.00  0.00    +0.000 A 
ATOM     31  C   UNL     1      45.513   4.865   9.366  0.00  0.00    +0.000 A 
ATOM     32  C   UNL     1      45.026   4.593  10.658  0.00  0.00    +0.000 A 
ATOM     33  H   UNL     1      43.358   2.559  12.481  0.00  0.00    +0.000 HD
ENDBRANCH  21  24
ENDBRANCH  19  20
ENDBRANCH   4  19
TORSDOF 8
ENDMDL
MODEL 7
REMARK VINA RESULT:    -6.486      4.891      8.063
REMARK INTER + INTRA:         -10.762
REMARK INTER:                  -9.735
REMARK INTRA:                  -1.027
REMARK UNBOUND:                -1.243
REMARK  Name = 
REMARK  9 active torsions:
REMARK  status: ('A' for Active; 'I' for Inactive)
REMARK    1  A    between atoms: C_1  and  O_2
REMARK    2  A    between atoms: O_2  and  C_3
REMARK    3  A    between atoms: C_8  and  C_9
REMARK    4  A    between atoms: C_9  and  C_10
REMARK    5  A    between atoms: C_10  and  O_11
REMARK    6  A    between atoms: O_11  and  C_12
REMARK    7  A    between atoms: C_15  and  C_16
REMARK    8  A    between atoms: C_16  and  N_17
REMARK    9  A    between atoms: C_18  and  C_20
REMARK                            x       y       z     vdW  Elec       q    Type
REMARK                         _______ _______ _______ _____ _____    ______ ____
ROOT
ATOM      1  C   UNL     1      49.542   9.345  11.467  0.00  0.00    +0.000 A 
ATOM      2  C   UNL     1      49.311   7.963  11.437  0.00  0.00    +0.000 A 
ATOM      3  C   UNL     1      48.065   7.427  11.776  0.00  0.00    +0.000 A 
ATOM      4  C   UNL     1      47.004   8.257  12.151  0.00  0.00    +0.000 A 
ATOM      5  C   UNL     1      47.233   9.638  12.217  0.00  0.00    +0.000 A 
ATOM      6  C   UNL     1      48.484  10.171  11.871  0.00  0.00    +0.000 A 
ATOM      7  F   UNL     1      48.645  11.503  11.920  0.00  0.00    +0.000 F 
ENDROOT
BRANCH   1   8
ATOM      8  O   UNL     1      50.740   9.938  11.121  0.00  0.00    +0.000 OA
BRANCH   8   9
ATOM      9  C   UNL     1      51.846   9.024  11.007  0.00  0.00    +0.000 C 
BRANCH   9  10
ATOM     10  C   UNL     1      52.645   9.212   9.715  0.00  0.00    +0.000 C 
BRANCH  10  16
ATOM     11  C   UNL     1      52.955   7.622   7.699  0.00  0.00    +0.000 A 
ATOM     12  C   UNL     1      53.283   6.351   7.206  0.00  0.00    +0.000 A 
ATOM     13  C   UNL     1      53.713   5.341   8.066  0.00  0.00    +0.000 A 
ATOM     14  C   UNL     1      53.835   5.597   9.425  0.00  0.00    +0.000 A 
ATOM     15  C   UNL     1      53.502   6.855   9.930  0.00  0.00    +0.000 A 
ATOM     16  C   UNL     1      53.044   7.883   9.085  0.00  0.00    +0.000 A 
BRANCH  11  18
ATOM     17  C   UNL     1      53.426   8.941   5.773  0.00  0.00    +0.000 C 
ATOM     18  O   UNL     1      52.582   8.667   6.890  0.00  0.00    +0.000 OA
ENDBRANCH  11  18
ENDBRANCH  10  16
ENDBRANCH   9  10
ENDBRANCH   8   9
ENDBRANCH   1   8
BRANCH   4  19
ATOM     19  C   UNL     1      45.651   7.660  12.455  0.00  0.00    +0.000 C 
BRANCH  19  20
ATOM     20  N   UNL     1      45.513   6.321  11.937  0.00  0.00    +0.000 N 
ATOM     21  C   UNL     1      44.302   5.879  11.437  0.00  0.00    +0.000 C 
ATOM     22  O   UNL     1      43.296   6.572  11.409  0.00  0.00    +0.000 OA
ATOM     23  H   UNL     1      46.344   5.805  11.692  0.00  0.00    +0.000 HD
BRANCH  21  24
ATOM     24  C   UNL     1      44.342   4.513  10.913  0.00  0.00    +0.000 A 
ATOM     25  C   UNL     1      43.725   3.410  11.486  0.00  0.00    +0.000 A 
ATOM     26  N   UNL     1      43.973   2.316  10.699  0.00  0.00    +0.000 N 
ATOM     27  C   UNL     1      44.753   2.676   9.638  0.00  0.00    +0.000 A 
ATOM     28  N   UNL     1      45.191   1.813   8.704  0.00  0.00    +0.000 NA
ATOM     29  C   UNL     1      45.953   2.407   7.757  0.00  0.00    +0.000 A 
ATOM     30  C   UNL     1      46.268   3.757   7.705  0.00  0.00    +0.000 A 
ATOM     31  C   UNL     1      45.776   4.608   8.698  0.00  0.00    +0.000 A 
ATOM     32  C   UNL     1      44.988   4.045   9.719  0.00  0.00    +0.000 A 
ATOM     33  H   UNL     1      43.649   1.369  10.854  0.00  0.00    +0.000 HD
ENDBRANCH  21  24
ENDBRANCH  19  20
ENDBRANCH   4  19
TORSDOF 8
ENDMDL
MODEL 8
REMARK VINA RESULT:    -6.327      4.597      8.376
REMARK INTER + INTRA:         -10.529
REMARK INTER:                  -9.533
REMARK INTRA:                  -0.996
REMARK UNBOUND:                -1.243
REMARK  Name = 
REMARK  9 active torsions:
REMARK  status: ('A' for Active; 'I' for Inactive)
REMARK    1  A    between atoms: C_1  and  O_2
REMARK    2  A    between atoms: O_2  and  C_3
REMARK    3  A    between atoms: C_8  and  C_9
REMARK    4  A    between atoms: C_9  and  C_10
REMARK    5  A    between atoms: C_10  and  O_11
REMARK    6  A    between atoms: O_11  and  C_12
REMARK    7  A    between atoms: C_15  and  C_16
REMARK    8  A    between atoms: C_16  and  N_17
REMARK    9  A    between atoms: C_18  and  C_20
REMARK                            x       y       z     vdW  Elec       q    Type
REMARK                         _______ _______ _______ _____ _____    ______ ____
ROOT
ATOM      1  C   UNL     1      49.121   9.536  11.521  0.00  0.00    +0.000 A 
ATOM      2  C   UNL     1      48.978   8.145  11.601  0.00  0.00    +0.000 A 
ATOM      3  C   UNL     1      47.745   7.557  11.897  0.00  0.00    +0.000 A 
ATOM      4  C   UNL     1      46.609   8.343  12.116  0.00  0.00    +0.000 A 
ATOM      5  C   UNL     1      46.747   9.737  12.071  0.00  0.00    +0.000 A 
ATOM      6  C   UNL     1      47.987  10.321  11.769  0.00  0.00    +0.000 A 
ATOM      7  F   UNL     1      48.062  11.660  11.706  0.00  0.00    +0.000 F 
ENDROOT
BRANCH   1   8
ATOM      8  O   UNL     1      50.305  10.176  11.210  0.00  0.00    +0.000 OA
BRANCH   8   9
ATOM      9  C   UNL     1      51.490   9.467  11.614  0.00  0.00    +0.000 C 
BRANCH   9  10
ATOM     10  C   UNL     1      52.531   9.359  10.497  0.00  0.00    +0.000 C 
BRANCH  10  16
ATOM     11  C   UNL     1      54.278   7.637  11.317  0.00  0.00    +0.000 A 
ATOM     12  C   UNL     1      54.886   6.380  11.183  0.00  0.00    +0.000 A 
ATOM     13  C   UNL     1      54.437   5.467  10.230  0.00  0.00    +0.000 A 
ATOM     14  C   UNL     1      53.363   5.795   9.412  0.00  0.00    +0.000 A 
ATOM     15  C   UNL     1      52.756   7.047   9.528  0.00  0.00    +0.000 A 
ATOM     16  C   UNL     1      53.207   7.993  10.468  0.00  0.00    +0.000 A 
BRANCH  11  18
ATOM     17  C   UNL     1      54.749   8.060  13.612  0.00  0.00    +0.000 C 
ATOM     18  O   UNL     1      54.644   8.548  12.276  0.00  0.00    +0.000 OA
ENDBRANCH  11  18
ENDBRANCH  10  16
ENDBRANCH   9  10
ENDBRANCH   8   9
ENDBRANCH   1   8
BRANCH   4  19
ATOM     19  C   UNL     1      45.275   7.684  12.373  0.00  0.00    +0.000 C 
BRANCH  19  20
ATOM     20  N   UNL     1      45.234   6.324  11.898  0.00  0.00    +0.000 N 
ATOM     21  C   UNL     1      44.080   5.805  11.340  0.00  0.00    +0.000 C 
ATOM     22  O   UNL     1      43.046   6.446  11.224  0.00  0.00    +0.000 OA
ATOM     23  H   UNL     1      46.103   5.840  11.725  0.00  0.00    +0.000 HD
BRANCH  21  24
ATOM     24  C   UNL     1      44.218   4.425  10.872  0.00  0.00    +0.000 A 
ATOM     25  C   UNL     1      43.665   3.307  11.480  0.00  0.00    +0.000 A 
ATOM     26  N   UNL     1      43.997   2.202  10.741  0.00  0.00    +0.000 N 
ATOM     27  C   UNL     1      44.768   2.571   9.676  0.00  0.00    +0.000 A 
ATOM     28  N   UNL     1      45.277   1.703   8.784  0.00  0.00    +0.000 NA
ATOM     29  C   UNL     1      46.013   2.310   7.824  0.00  0.00    +0.000 A 
ATOM     30  C   UNL     1      46.239   3.674   7.722  0.00  0.00    +0.000 A 
ATOM     31  C   UNL     1      45.676   4.530   8.674  0.00  0.00    +0.000 A 
ATOM     32  C   UNL     1      44.911   3.956   9.706  0.00  0.00    +0.000 A 
ATOM     33  H   UNL     1      43.734   1.242  10.929  0.00  0.00    +0.000 HD
ENDBRANCH  21  24
ENDBRANCH  19  20
ENDBRANCH   4  19
TORSDOF 8
ENDMDL
MODEL 9
REMARK VINA RESULT:    -6.227      3.331      9.227
REMARK INTER + INTRA:         -10.383
REMARK INTER:                  -9.077
REMARK INTRA:                  -1.306
REMARK UNBOUND:                -1.243
REMARK  Name = 
REMARK  9 active torsions:
REMARK  status: ('A' for Active; 'I' for Inactive)
REMARK    1  A    between atoms: C_1  and  O_2
REMARK    2  A    between atoms: O_2  and  C_3
REMARK    3  A    between atoms: C_8  and  C_9
REMARK    4  A    between atoms: C_9  and  C_10
REMARK    5  A    between atoms: C_10  and  O_11
REMARK    6  A    between atoms: O_11  and  C_12
REMARK    7  A    between atoms: C_15  and  C_16
REMARK    8  A    between atoms: C_16  and  N_17
REMARK    9  A    between atoms: C_18  and  C_20
REMARK                            x       y       z     vdW  Elec       q    Type
REMARK                         _______ _______ _______ _____ _____    ______ ____
ROOT
ATOM      1  C   UNL     1      48.349   8.954  14.183  0.00  0.00    +0.000 A 
ATOM      2  C   UNL     1      47.767   9.871  13.298  0.00  0.00    +0.000 A 
ATOM      3  C   UNL     1      46.737   9.491  12.431  0.00  0.00    +0.000 A 
ATOM      4  C   UNL     1      46.249   8.181  12.427  0.00  0.00    +0.000 A 
ATOM      5  C   UNL     1      46.846   7.247  13.285  0.00  0.00    +0.000 A 
ATOM      6  C   UNL     1      47.876   7.635  14.155  0.00  0.00    +0.000 A 
ATOM      7  F   UNL     1      48.394   6.711  14.981  0.00  0.00    +0.000 F 
ENDROOT
BRANCH   1   8
ATOM      8  O   UNL     1      49.351   9.271  15.079  0.00  0.00    +0.000 OA
BRANCH   8   9
ATOM      9  C   UNL     1      48.910  10.019  16.227  0.00  0.00    +0.000 C 
BRANCH   9  10
ATOM     10  C   UNL     1      49.599   9.585  17.523  0.00  0.00    +0.000 C 
BRANCH  10  16
ATOM     11  C   UNL     1      49.995   7.036  17.700  0.00  0.00    +0.000 A 
ATOM     12  C   UNL     1      49.525   5.766  18.067  0.00  0.00    +0.000 A 
ATOM     13  C   UNL     1      48.285   5.614  18.687  0.00  0.00    +0.000 A 
ATOM     14  C   UNL     1      47.510   6.733  18.963  0.00  0.00    +0.000 A 
ATOM     15  C   UNL     1      47.961   8.002  18.594  0.00  0.00    +0.000 A 
ATOM     16  C   UNL     1      49.199   8.177  17.947  0.00  0.00    +0.000 A 
BRANCH  11  18
ATOM     17  C   UNL     1      52.357   6.827  17.907  0.00  0.00    +0.000 C 
ATOM     18  O   UNL     1      51.230   7.245  17.140  0.00  0.00    +0.000 OA
ENDBRANCH  11  18
ENDBRANCH  10  16
ENDBRANCH   9  10
ENDBRANCH   8   9
ENDBRANCH   1   8
BRANCH   4  19
ATOM     19  C   UNL     1      45.096   7.810  11.526  0.00  0.00    +0.000 C 
BRANCH  19  20
ATOM     20  N   UNL     1      45.133   6.424  11.129  0.00  0.00    +0.000 N 
ATOM     21  C   UNL     1      43.966   5.692  11.011  0.00  0.00    +0.000 C 
ATOM     22  O   UNL     1      42.859   6.157  11.237  0.00  0.00    +0.000 OA
ATOM     23  H   UNL     1      45.964   6.066  10.684  0.00  0.00    +0.000 HD
BRANCH  21  24
ATOM     24  C   UNL     1      44.174   4.316  10.560  0.00  0.00    +0.000 A 
ATOM     25  C   UNL     1      43.615   3.184  11.135  0.00  0.00    +0.000 A 
ATOM     26  N   UNL     1      44.027   2.086  10.426  0.00  0.00    +0.000 N 
ATOM     27  C   UNL     1      44.856   2.474   9.413  0.00  0.00    +0.000 A 
ATOM     28  N   UNL     1      45.448   1.619   8.561  0.00  0.00    +0.000 NA
ATOM     29  C   UNL     1      46.229   2.244   7.649  0.00  0.00    +0.000 A 
ATOM     30  C   UNL     1      46.422   3.614   7.555  0.00  0.00    +0.000 A 
ATOM     31  C   UNL     1      45.773   4.455   8.464  0.00  0.00    +0.000 A 
ATOM     32  C   UNL     1      44.958   3.863   9.446  0.00  0.00    +0.000 A 
ATOM     33  H   UNL     1      43.779   1.120  10.601  0.00  0.00    +0.000 HD
ENDBRANCH  21  24
ENDBRANCH  19  20
ENDBRANCH   4  19
TORSDOF 8
ENDMDL
