MODEL 1
REMARK VINA RESULT:    -7.418      0.000      0.000
REMARK INTER + INTRA:         -13.232
REMARK INTER:                 -11.971
REMARK INTRA:                  -1.261
REMARK UNBOUND:                -1.261
REMARK  Name = 
REMARK  11 active torsions:
REMARK  status: ('A' for Active; 'I' for Inactive)
REMARK    1  A    between atoms: C_2  and  O_3
REMARK    2  A    between atoms: C_2  and  C_15
REMARK    3  A    between atoms: O_3  and  C_4
REMARK    4  A    between atoms: C_4  and  C_5
REMARK    5  A    between atoms: N_8  and  C_9
REMARK    6  A    between atoms: C_9  and  C_10
REMARK    7  A    between atoms: C_10  and  C_11
REMARK    8  A    between atoms: C_11  and  O_12
REMARK    9  A    between atoms: C_18  and  C_19
REMARK   10  A    between atoms: C_19  and  N_20
REMARK   11  A    between atoms: C_21  and  C_23
REMARK                            x       y       z     vdW  Elec       q    Type
REMARK                         _______ _______ _______ _____ _____    ______ ____
ROOT
ATOM      1  C   UNL     1      45.354   5.468  13.127  0.00  0.00    +0.000 A 
ATOM      2  C   UNL     1      45.359   6.692  12.446  0.00  0.00    +0.000 A 
ATOM      3  C   UNL     1      46.500   7.505  12.465  0.00  0.00    +0.000 A 
ATOM      4  C   UNL     1      47.652   7.100  13.156  0.00  0.00    +0.000 A 
ATOM      5  C   UNL     1      47.633   5.885  13.851  0.00  0.00    +0.000 A 
ATOM      6  C   UNL     1      46.501   5.070  13.826  0.00  0.00    +0.000 A 
ENDROOT
BRANCH   1   8
ATOM      7  O   UNL     1      43.012   5.139  13.497  0.00  0.00    +0.000 OA
ATOM      8  C   UNL     1      44.093   4.675  13.173  0.00  0.00    +0.000 C 
BRANCH   8   9
ATOM      9  O   UNL     1      44.364   3.368  12.924  0.00  0.00    +0.000 OA
BRANCH   9  10
ATOM     10  C   UNL     1      44.995   3.071  11.671  0.00  0.00    +0.000 C 
BRANCH  10  11
ATOM     11  C   UNL     1      43.992   3.045  10.509  0.00  0.00    +0.000 C 
ATOM     12  C   UNL     1      44.310   1.958   9.481  0.00  0.00    +0.000 C 
ATOM     13  C   UNL     1      45.584   2.267   8.693  0.00  0.00    +0.000 C 
ATOM     14  N   UNL     1      45.513   3.583   8.033  0.00  0.00    +0.000 NA
ATOM     15  C   UNL     1      45.246   4.663   8.994  0.00  0.00    +0.000 C 
ATOM     16  C   UNL     1      43.964   4.402   9.792  0.00  0.00    +0.000 C 
BRANCH  14  17
ATOM     17  C   UNL     1      46.739   3.871   7.269  0.00  0.00    +0.000 C 
BRANCH  17  18
ATOM     18  C   UNL     1      47.544   2.621   6.892  0.00  0.00    +0.000 C 
BRANCH  18  19
ATOM     19  C   UNL     1      47.414   2.267   5.416  0.00  0.00    +0.000 C 
BRANCH  19  20
ATOM     20  O   UNL     1      48.421   1.328   5.051  0.00  0.00    +0.000 OA
ATOM     21  H   UNL     1      49.167   1.830   4.680  0.00  0.00    +0.000 HD
ENDBRANCH  19  20
ENDBRANCH  18  19
ENDBRANCH  17  18
ENDBRANCH  14  17
ENDBRANCH  10  11
ENDBRANCH   9  10
ENDBRANCH   8   9
ENDBRANCH   1   8
BRANCH   4  22
ATOM     22  C   UNL     1      48.899   7.947  13.166  0.00  0.00    +0.000 C 
BRANCH  22  23
ATOM     23  N   UNL     1      49.957   7.350  13.938  0.00  0.00    +0.000 N 
ATOM     24  C   UNL     1      50.212   7.670  15.245  0.00  0.00    +0.000 C 
ATOM     25  O   UNL     1      49.525   8.473  15.869  0.00  0.00    +0.000 OA
ATOM     26  H   UNL     1      50.625   6.782  13.423  0.00  0.00    +0.000 HD
BRANCH  24  27
ATOM     27  C   UNL     1      51.325   6.955  15.888  0.00  0.00    +0.000 A 
ATOM     28  C   UNL     1      52.631   7.363  15.655  0.00  0.00    +0.000 A 
ATOM     29  S   UNL     1      53.798   6.414  16.460  0.00  0.00    +0.000 S 
ATOM     30  C   UNL     1      52.599   5.409  17.128  0.00  0.00    +0.000 A 
ATOM     31  N   UNL     1      52.934   4.347  17.910  0.00  0.00    +0.000 NA
ATOM     32  C   UNL     1      51.930   3.653  18.328  0.00  0.00    +0.000 A 
ATOM     33  N   UNL     1      50.617   3.935  18.050  0.00  0.00    +0.000 N 
ATOM     34  C   UNL     1      50.232   5.033  17.324  0.00  0.00    +0.000 A 
ATOM     35  O   UNL     1      49.044   5.327  17.204  0.00  0.00    +0.000 OA
ATOM     36  C   UNL     1      51.325   5.814  16.777  0.00  0.00    +0.000 A 
ATOM     37  H   UNL     1      49.875   3.373  18.443  0.00  0.00    +0.000 HD
ENDBRANCH  24  27
ENDBRANCH  22  23
ENDBRANCH   4  22
TORSDOF 11
ENDMDL
MODEL 2
REMARK VINA RESULT:    -7.391      2.085      2.145
REMARK INTER + INTRA:         -13.189
REMARK INTER:                 -11.801
REMARK INTRA:                  -1.388
REMARK UNBOUND:                -1.261
REMARK  Name = 
REMARK  11 active torsions:
REMARK  status: ('A' for Active; 'I' for Inactive)
REMARK    1  A    between atoms: C_2  and  O_3
REMARK    2  A    between atoms: C_2  and  C_15
REMARK    3  A    between atoms: O_3  and  C_4
REMARK    4  A    between atoms: C_4  and  C_5
REMARK    5  A    between atoms: N_8  and  C_9
REMARK    6  A    between atoms: C_9  and  C_10
REMARK    7  A    between atoms: C_10  and  C_11
REMARK    8  A    between atoms: C_11  and  O_12
REMARK    9  A    between atoms: C_18  and  C_19
REMARK   10  A    between atoms: C_19  and  N_20
REMARK   11  A    between atoms: C_21  and  C_23
REMARK                            x       y       z     vdW  Elec       q    Type
REMARK                         _______ _______ _______ _____ _____    ______ ____
ROOT
ATOM      1  C   UNL     1      45.320   5.241  13.228  0.00  0.00    +0.000 A 
ATOM      2  C   UNL     1      45.593   6.520  12.723  0.00  0.00    +0.000 A 
ATOM      3  C   UNL     1      46.786   7.171  13.062  0.00  0.00    +0.000 A 
ATOM      4  C   UNL     1      47.725   6.549  13.899  0.00  0.00    +0.000 A 
ATOM      5  C   UNL     1      47.436   5.281  14.416  0.00  0.00    +0.000 A 
ATOM      6  C   UNL     1      46.252   4.627  14.073  0.00  0.00    +0.000 A 
ENDROOT
BRANCH   1   8
ATOM      7  O   UNL     1      42.930   5.183  13.100  0.00  0.00    +0.000 OA
ATOM      8  C   UNL     1      43.999   4.618  12.933  0.00  0.00    +0.000 C 
BRANCH   8   9
ATOM      9  O   UNL     1      44.173   3.319  12.580  0.00  0.00    +0.000 OA
BRANCH   9  10
ATOM     10  C   UNL     1      44.927   3.075  11.385  0.00  0.00    +0.000 C 
BRANCH  10  11
ATOM     11  C   UNL     1      44.043   3.077  10.131  0.00  0.00    +0.000 C 
ATOM     12  C   UNL     1      44.263   1.844   9.252  0.00  0.00    +0.000 C 
ATOM     13  C   UNL     1      45.635   1.856   8.579  0.00  0.00    +0.000 C 
ATOM     14  N   UNL     1      45.847   3.083   7.790  0.00  0.00    +0.000 NA
ATOM     15  C   UNL     1      45.681   4.294   8.608  0.00  0.00    +0.000 C 
ATOM     16  C   UNL     1      44.307   4.331   9.286  0.00  0.00    +0.000 C 
BRANCH  14  17
ATOM     17  C   UNL     1      47.167   3.085   7.136  0.00  0.00    +0.000 C 
BRANCH  17  18
ATOM     18  C   UNL     1      47.779   1.690   6.968  0.00  0.00    +0.000 C 
BRANCH  18  19
ATOM     19  C   UNL     1      47.645   1.162   5.545  0.00  0.00    +0.000 C 
BRANCH  19  20
ATOM     20  O   UNL     1      48.130   2.130   4.620  0.00  0.00    +0.000 OA
ATOM     21  H   UNL     1      49.013   1.842   4.332  0.00  0.00    +0.000 HD
ENDBRANCH  19  20
ENDBRANCH  18  19
ENDBRANCH  17  18
ENDBRANCH  14  17
ENDBRANCH  10  11
ENDBRANCH   9  10
ENDBRANCH   8   9
ENDBRANCH   1   8
BRANCH   4  22
ATOM     22  C   UNL     1      49.027   7.222  14.253  0.00  0.00    +0.000 C 
BRANCH  22  23
ATOM     23  N   UNL     1      49.361   7.066  15.644  0.00  0.00    +0.000 N 
ATOM     24  C   UNL     1      48.937   7.923  16.623  0.00  0.00    +0.000 C 
ATOM     25  O   UNL     1      48.204   8.878  16.387  0.00  0.00    +0.000 OA
ATOM     26  H   UNL     1      50.068   6.368  15.861  0.00  0.00    +0.000 HD
BRANCH  24  27
ATOM     27  C   UNL     1      49.362   7.608  17.996  0.00  0.00    +0.000 A 
ATOM     28  C   UNL     1      50.241   8.455  18.657  0.00  0.00    +0.000 A 
ATOM     29  S   UNL     1      50.644   7.931  20.230  0.00  0.00    +0.000 S 
ATOM     30  C   UNL     1      49.677   6.540  20.073  0.00  0.00    +0.000 A 
ATOM     31  N   UNL     1      49.606   5.623  21.076  0.00  0.00    +0.000 NA
ATOM     32  C   UNL     1      48.858   4.604  20.816  0.00  0.00    +0.000 A 
ATOM     33  N   UNL     1      48.160   4.426  19.649  0.00  0.00    +0.000 N 
ATOM     34  C   UNL     1      48.149   5.357  18.642  0.00  0.00    +0.000 A 
ATOM     35  O   UNL     1      47.411   5.226  17.667  0.00  0.00    +0.000 OA
ATOM     36  C   UNL     1      49.023   6.495  18.856  0.00  0.00    +0.000 A 
ATOM     37  H   UNL     1      47.560   3.623  19.524  0.00  0.00    +0.000 HD
ENDBRANCH  24  27
ENDBRANCH  22  23
ENDBRANCH   4  22
TORSDOF 11
ENDMDL
MODEL 3
REMARK VINA RESULT:    -7.174      2.646      4.104
REMARK INTER + INTRA:         -12.838
REMARK INTER:                 -11.437
REMARK INTRA:                  -1.401
REMARK UNBOUND:                -1.261
REMARK  Name = 
REMARK  11 active torsions:
REMARK  status: ('A' for Active; 'I' for Inactive)
REMARK    1  A    between atoms: C_2  and  O_3
REMARK    2  A    between atoms: C_2  and  C_15
REMARK    3  A    between atoms: O_3  and  C_4
REMARK    4  A    between atoms: C_4  and  C_5
REMARK    5  A    between atoms: N_8  and  C_9
REMARK    6  A    between atoms: C_9  and  C_10
REMARK    7  A    between atoms: C_10  and  C_11
REMARK    8  A    between atoms: C_11  and  O_12
REMARK    9  A    between atoms: C_18  and  C_19
REMARK   10  A    between atoms: C_19  and  N_20
REMARK   11  A    between atoms: C_21  and  C_23
REMARK                            x       y       z     vdW  Elec       q    Type
REMARK                         _______ _______ _______ _____ _____    ______ ____
ROOT
ATOM      1  C   UNL     1      47.578   4.863  15.258  0.00  0.00    +0.000 A 
ATOM      2  C   UNL     1      48.357   5.934  15.715  0.00  0.00    +0.000 A 
ATOM      3  C   UNL     1      48.892   5.914  17.010  0.00  0.00    +0.000 A 
ATOM      4  C   UNL     1      48.664   4.821  17.859  0.00  0.00    +0.000 A 
ATOM      5  C   UNL     1      47.867   3.764  17.403  0.00  0.00    +0.000 A 
ATOM      6  C   UNL     1      47.341   3.777  16.110  0.00  0.00    +0.000 A 
ENDROOT
BRANCH   1   8
ATOM      7  O   UNL     1      47.460   5.502  12.954  0.00  0.00    +0.000 OA
ATOM      8  C   UNL     1      46.939   4.959  13.915  0.00  0.00    +0.000 C 
BRANCH   8   9
ATOM      9  O   UNL     1      45.675   4.470  13.973  0.00  0.00    +0.000 OA
BRANCH   9  10
ATOM     10  C   UNL     1      44.662   5.232  13.301  0.00  0.00    +0.000 C 
BRANCH  10  11
ATOM     11  C   UNL     1      43.502   4.351  12.815  0.00  0.00    +0.000 C 
ATOM     12  C   UNL     1      43.973   2.995  12.287  0.00  0.00    +0.000 C 
ATOM     13  C   UNL     1      44.743   3.126  10.972  0.00  0.00    +0.000 C 
ATOM     14  N   UNL     1      43.952   3.823   9.942  0.00  0.00    +0.000 NA
ATOM     15  C   UNL     1      43.511   5.150  10.397  0.00  0.00    +0.000 C 
ATOM     16  C   UNL     1      42.715   5.061  11.704  0.00  0.00    +0.000 C 
BRANCH  14  17
ATOM     17  C   UNL     1      44.696   3.939   8.676  0.00  0.00    +0.000 C 
BRANCH  17  18
ATOM     18  C   UNL     1      45.602   2.739   8.375  0.00  0.00    +0.000 C 
BRANCH  18  19
ATOM     19  C   UNL     1      46.626   3.039   7.288  0.00  0.00    +0.000 C 
BRANCH  19  20
ATOM     20  O   UNL     1      46.631   4.433   6.997  0.00  0.00    +0.000 OA
ATOM     21  H   UNL     1      47.220   4.570   6.235  0.00  0.00    +0.000 HD
ENDBRANCH  19  20
ENDBRANCH  18  19
ENDBRANCH  17  18
ENDBRANCH  14  17
ENDBRANCH  10  11
ENDBRANCH   9  10
ENDBRANCH   8   9
ENDBRANCH   1   8
BRANCH   4  22
ATOM     22  C   UNL     1      49.254   4.768  19.245  0.00  0.00    +0.000 C 
BRANCH  22  23
ATOM     23  N   UNL     1      50.462   3.988  19.293  0.00  0.00    +0.000 N 
ATOM     24  C   UNL     1      51.706   4.505  19.049  0.00  0.00    +0.000 C 
ATOM     25  O   UNL     1      51.885   5.694  18.803  0.00  0.00    +0.000 OA
ATOM     26  H   UNL     1      50.345   2.980  19.363  0.00  0.00    +0.000 HD
BRANCH  24  27
ATOM     27  C   UNL     1      52.836   3.568  19.153  0.00  0.00    +0.000 A 
ATOM     28  C   UNL     1      53.918   3.881  19.964  0.00  0.00    +0.000 A 
ATOM     29  S   UNL     1      55.147   2.698  19.953  0.00  0.00    +0.000 S 
ATOM     30  C   UNL     1      54.286   1.737  18.844  0.00  0.00    +0.000 A 
ATOM     31  N   UNL     1      54.809   0.570  18.378  0.00  0.00    +0.000 NA
ATOM     32  C   UNL     1      54.065  -0.045  17.522  0.00  0.00    +0.000 A 
ATOM     33  N   UNL     1      52.835   0.392  17.102  0.00  0.00    +0.000 N 
ATOM     34  C   UNL     1      52.241   1.524  17.597  0.00  0.00    +0.000 A 
ATOM     35  O   UNL     1      51.085   1.815  17.296  0.00  0.00    +0.000 OA
ATOM     36  C   UNL     1      53.061   2.289  18.517  0.00  0.00    +0.000 A 
ATOM     37  H   UNL     1      52.284  -0.160  16.459  0.00  0.00    +0.000 HD
ENDBRANCH  24  27
ENDBRANCH  22  23
ENDBRANCH   4  22
TORSDOF 11
ENDMDL
MODEL 4
REMARK VINA RESULT:    -7.026      2.613      3.962
REMARK INTER + INTRA:         -12.600
REMARK INTER:                 -11.573
REMARK INTRA:                  -1.027
REMARK UNBOUND:                -1.261
REMARK  Name = 
REMARK  11 active torsions:
REMARK  status: ('A' for Active; 'I' for Inactive)
REMARK    1  A    between atoms: C_2  and  O_3
REMARK    2  A    between atoms: C_2  and  C_15
REMARK    3  A    between atoms: O_3  and  C_4
REMARK    4  A    between atoms: C_4  and  C_5
REMARK    5  A    between atoms: N_8  and  C_9
REMARK    6  A    between atoms: C_9  and  C_10
REMARK    7  A    between atoms: C_10  and  C_11
REMARK    8  A    between atoms: C_11  and  O_12
REMARK    9  A    between atoms: C_18  and  C_19
REMARK   10  A    between atoms: C_19  and  N_20
REMARK   11  A    between atoms: C_21  and  C_23
REMARK                            x       y       z     vdW  Elec       q    Type
REMARK                         _______ _______ _______ _____ _____    ______ ____
ROOT
ATOM      1  C   UNL     1      45.046   3.872  10.557  0.00  0.00    +0.000 A 
ATOM      2  C   UNL     1      45.067   3.807  11.957  0.00  0.00    +0.000 A 
ATOM      3  C   UNL     1      45.487   4.912  12.708  0.00  0.00    +0.000 A 
ATOM      4  C   UNL     1      45.881   6.099  12.071  0.00  0.00    +0.000 A 
ATOM      5  C   UNL     1      45.877   6.149  10.672  0.00  0.00    +0.000 A 
ATOM      6  C   UNL     1      45.451   5.053   9.922  0.00  0.00    +0.000 A 
ENDROOT
BRANCH   1   8
ATOM      7  O   UNL     1      43.613   2.085   9.863  0.00  0.00    +0.000 OA
ATOM      8  C   UNL     1      44.693   2.648   9.784  0.00  0.00    +0.000 C 
BRANCH   8   9
ATOM      9  O   UNL     1      45.779   2.208   9.099  0.00  0.00    +0.000 OA
BRANCH   9  10
ATOM     10  C   UNL     1      45.836   2.541   7.705  0.00  0.00    +0.000 C 
BRANCH  10  11
ATOM     11  C   UNL     1      47.270   2.504   7.159  0.00  0.00    +0.000 C 
ATOM     12  C   UNL     1      47.393   3.157   5.782  0.00  0.00    +0.000 C 
ATOM     13  C   UNL     1      46.700   2.337   4.693  0.00  0.00    +0.000 C 
ATOM     14  N   UNL     1      47.206   0.954   4.644  0.00  0.00    +0.000 NA
ATOM     15  C   UNL     1      47.071   0.276   5.942  0.00  0.00    +0.000 C 
ATOM     16  C   UNL     1      47.772   1.056   7.060  0.00  0.00    +0.000 C 
BRANCH  14  17
ATOM     17  C   UNL     1      46.541   0.172   3.588  0.00  0.00    +0.000 C 
BRANCH  17  18
ATOM     18  C   UNL     1      47.238  -1.156   3.265  0.00  0.00    +0.000 C 
BRANCH  18  19
ATOM     19  C   UNL     1      46.277  -2.338   3.283  0.00  0.00    +0.000 C 
BRANCH  19  20
ATOM     20  O   UNL     1      46.263  -2.934   4.576  0.00  0.00    +0.000 OA
ATOM     21  H   UNL     1      45.875  -2.288   5.191  0.00  0.00    +0.000 HD
ENDBRANCH  19  20
ENDBRANCH  18  19
ENDBRANCH  17  18
ENDBRANCH  14  17
ENDBRANCH  10  11
ENDBRANCH   9  10
ENDBRANCH   8   9
ENDBRANCH   1   8
BRANCH   4  22
ATOM     22  C   UNL     1      46.309   7.308  12.862  0.00  0.00    +0.000 C 
BRANCH  22  23
ATOM     23  N   UNL     1      46.944   6.950  14.103  0.00  0.00    +0.000 N 
ATOM     24  C   UNL     1      48.259   6.581  14.199  0.00  0.00    +0.000 C 
ATOM     25  O   UNL     1      49.008   6.563  13.227  0.00  0.00    +0.000 OA
ATOM     26  H   UNL     1      46.330   6.827  14.903  0.00  0.00    +0.000 HD
BRANCH  24  27
ATOM     27  C   UNL     1      48.750   6.259  15.548  0.00  0.00    +0.000 A 
ATOM     28  C   UNL     1      49.677   7.092  16.161  0.00  0.00    +0.000 A 
ATOM     29  S   UNL     1      50.154   6.562  17.711  0.00  0.00    +0.000 S 
ATOM     30  C   UNL     1      49.158   5.187  17.606  0.00  0.00    +0.000 A 
ATOM     31  N   UNL     1      49.125   4.270  18.612  0.00  0.00    +0.000 NA
ATOM     32  C   UNL     1      48.349   3.263  18.392  0.00  0.00    +0.000 A 
ATOM     33  N   UNL     1      47.588   3.097  17.264  0.00  0.00    +0.000 N 
ATOM     34  C   UNL     1      47.538   4.028  16.258  0.00  0.00    +0.000 A 
ATOM     35  O   UNL     1      46.748   3.908  15.324  0.00  0.00    +0.000 OA
ATOM     36  C   UNL     1      48.440   5.152  16.425  0.00  0.00    +0.000 A 
ATOM     37  H   UNL     1      46.969   2.303  17.172  0.00  0.00    +0.000 HD
ENDBRANCH  24  27
ENDBRANCH  22  23
ENDBRANCH   4  22
TORSDOF 11
ENDMDL
MODEL 5
REMARK VINA RESULT:    -6.796      4.154      7.941
REMARK INTER + INTRA:         -12.229
REMARK INTER:                 -10.965
REMARK INTRA:                  -1.264
REMARK UNBOUND:                -1.261
REMARK  Name = 
REMARK  11 active torsions:
REMARK  status: ('A' for Active; 'I' for Inactive)
REMARK    1  A    between atoms: C_2  and  O_3
REMARK    2  A    between atoms: C_2  and  C_15
REMARK    3  A    between atoms: O_3  and  C_4
REMARK    4  A    between atoms: C_4  and  C_5
REMARK    5  A    between atoms: N_8  and  C_9
REMARK    6  A    between atoms: C_9  and  C_10
REMARK    7  A    between atoms: C_10  and  C_11
REMARK    8  A    between atoms: C_11  and  O_12
REMARK    9  A    between atoms: C_18  and  C_19
REMARK   10  A    between atoms: C_19  and  N_20
REMARK   11  A    between atoms: C_21  and  C_23
REMARK                            x       y       z     vdW  Elec       q    Type
REMARK                         _______ _______ _______ _____ _____    ______ ____
ROOT
ATOM      1  C   UNL     1      46.806   2.123   6.853  0.00  0.00    +0.000 A 
ATOM      2  C   UNL     1      46.460   3.481   6.889  0.00  0.00    +0.000 A 
ATOM      3  C   UNL     1      45.626   3.969   7.903  0.00  0.00    +0.000 A 
ATOM      4  C   UNL     1      45.137   3.110   8.899  0.00  0.00    +0.000 A 
ATOM      5  C   UNL     1      45.470   1.752   8.845  0.00  0.00    +0.000 A 
ATOM      6  C   UNL     1      46.307   1.265   7.841  0.00  0.00    +0.000 A 
ENDROOT
BRANCH   1   8
ATOM      7  O   UNL     1      48.828   1.664   5.657  0.00  0.00    +0.000 OA
ATOM      8  C   UNL     1      47.609   1.615   5.706  0.00  0.00    +0.000 C 
BRANCH   8   9
ATOM      9  O   UNL     1      46.782   1.218   4.706  0.00  0.00    +0.000 OA
BRANCH   9  10
ATOM     10  C   UNL     1      46.921  -0.137   4.258  0.00  0.00    +0.000 C 
BRANCH  10  11
ATOM     11  C   UNL     1      46.949  -0.241   2.727  0.00  0.00    +0.000 C 
ATOM     12  C   UNL     1      45.649  -0.805   2.150  0.00  0.00    +0.000 C 
ATOM     13  C   UNL     1      45.464  -2.284   2.489  0.00  0.00    +0.000 C 
ATOM     14  N   UNL     1      46.610  -3.095   2.041  0.00  0.00    +0.000 NA
ATOM     15  C   UNL     1      47.878  -2.609   2.604  0.00  0.00    +0.000 C 
ATOM     16  C   UNL     1      48.113  -1.132   2.269  0.00  0.00    +0.000 C 
BRANCH  14  17
ATOM     17  C   UNL     1      46.421  -4.521   2.362  0.00  0.00    +0.000 C 
BRANCH  17  18
ATOM     18  C   UNL     1      47.491  -5.093   3.300  0.00  0.00    +0.000 C 
BRANCH  18  19
ATOM     19  C   UNL     1      46.959  -5.347   4.705  0.00  0.00    +0.000 C 
BRANCH  19  20
ATOM     20  O   UNL     1      45.839  -4.505   4.960  0.00  0.00    +0.000 OA
ATOM     21  H   UNL     1      45.959  -3.692   4.439  0.00  0.00    +0.000 HD
ENDBRANCH  19  20
ENDBRANCH  18  19
ENDBRANCH  17  18
ENDBRANCH  14  17
ENDBRANCH  10  11
ENDBRANCH   9  10
ENDBRANCH   8   9
ENDBRANCH   1   8
BRANCH   4  22
ATOM     22  C   UNL     1      44.261   3.622  10.015  0.00  0.00    +0.000 C 
BRANCH  22  23
ATOM     23  N   UNL     1      44.802   4.804  10.633  0.00  0.00    +0.000 N 
ATOM     24  C   UNL     1      44.030   5.838  11.091  0.00  0.00    +0.000 C 
ATOM     25  O   UNL     1      42.804   5.814  11.038  0.00  0.00    +0.000 OA
ATOM     26  H   UNL     1      45.811   4.920  10.576  0.00  0.00    +0.000 HD
BRANCH  24  27
ATOM     27  C   UNL     1      44.747   6.965  11.707  0.00  0.00    +0.000 A 
ATOM     28  C   UNL     1      44.386   8.268  11.389  0.00  0.00    +0.000 A 
ATOM     29  S   UNL     1      45.330   9.451  12.175  0.00  0.00    +0.000 S 
ATOM     30  C   UNL     1      46.272   8.264  12.948  0.00  0.00    +0.000 A 
ATOM     31  N   UNL     1      47.307   8.613  13.759  0.00  0.00    +0.000 NA
ATOM     32  C   UNL     1      47.954   7.615  14.260  0.00  0.00    +0.000 A 
ATOM     33  N   UNL     1      47.649   6.297  14.038  0.00  0.00    +0.000 N 
ATOM     34  C   UNL     1      46.573   5.902  13.284  0.00  0.00    +0.000 A 
ATOM     35  O   UNL     1      46.252   4.717  13.212  0.00  0.00    +0.000 OA
ATOM     36  C   UNL     1      45.847   6.983  12.646  0.00  0.00    +0.000 A 
ATOM     37  H   UNL     1      48.172   5.563  14.493  0.00  0.00    +0.000 HD
ENDBRANCH  24  27
ENDBRANCH  22  23
ENDBRANCH   4  22
TORSDOF 11
ENDMDL
MODEL 6
REMARK VINA RESULT:    -6.749      3.779      8.856
REMARK INTER + INTRA:         -12.152
REMARK INTER:                 -10.053
REMARK INTRA:                  -2.099
REMARK UNBOUND:                -1.261
REMARK  Name = 
REMARK  11 active torsions:
REMARK  status: ('A' for Active; 'I' for Inactive)
REMARK    1  A    between atoms: C_2  and  O_3
REMARK    2  A    between atoms: C_2  and  C_15
REMARK    3  A    between atoms: O_3  and  C_4
REMARK    4  A    between atoms: C_4  and  C_5
REMARK    5  A    between atoms: N_8  and  C_9
REMARK    6  A    between atoms: C_9  and  C_10
REMARK    7  A    between atoms: C_10  and  C_11
REMARK    8  A    between atoms: C_11  and  O_12
REMARK    9  A    between atoms: C_18  and  C_19
REMARK   10  A    between atoms: C_19  and  N_20
REMARK   11  A    between atoms: C_21  and  C_23
REMARK                            x       y       z     vdW  Elec       q    Type
REMARK                         _______ _______ _______ _____ _____    ______ ____
ROOT
ATOM      1  C   UNL     1      49.047   9.337  18.270  0.00  0.00    +0.000 A 
ATOM      2  C   UNL     1      50.261   8.689  18.009  0.00  0.00    +0.000 A 
ATOM      3  C   UNL     1      50.499   8.117  16.752  0.00  0.00    +0.000 A 
ATOM      4  C   UNL     1      49.532   8.195  15.739  0.00  0.00    +0.000 A 
ATOM      5  C   UNL     1      48.313   8.826  16.014  0.00  0.00    +0.000 A 
ATOM      6  C   UNL     1      48.077   9.404  17.262  0.00  0.00    +0.000 A 
ENDROOT
BRANCH   1   8
ATOM      7  O   UNL     1      49.371  10.791  20.144  0.00  0.00    +0.000 OA
ATOM      8  C   UNL     1      48.783   9.845  19.646  0.00  0.00    +0.000 C 
BRANCH   8   9
ATOM      9  O   UNL     1      47.901   9.028  20.275  0.00  0.00    +0.000 OA
BRANCH   9  10
ATOM     10  C   UNL     1      48.446   7.860  20.907  0.00  0.00    +0.000 C 
BRANCH  10  11
ATOM     11  C   UNL     1      47.468   6.678  20.881  0.00  0.00    +0.000 C 
ATOM     12  C   UNL     1      48.103   5.376  21.373  0.00  0.00    +0.000 C 
ATOM     13  C   UNL     1      49.151   4.844  20.396  0.00  0.00    +0.000 C 
ATOM     14  N   UNL     1      48.593   4.655  19.044  0.00  0.00    +0.000 NA
ATOM     15  C   UNL     1      48.005   5.895  18.518  0.00  0.00    +0.000 C 
ATOM     16  C   UNL     1      46.932   6.453  19.460  0.00  0.00    +0.000 C 
BRANCH  14  17
ATOM     17  C   UNL     1      49.605   4.133  18.110  0.00  0.00    +0.000 C 
BRANCH  17  18
ATOM     18  C   UNL     1      49.092   3.006  17.204  0.00  0.00    +0.000 C 
BRANCH  18  19
ATOM     19  C   UNL     1      47.606   2.734  17.398  0.00  0.00    +0.000 C 
BRANCH  19  20
ATOM     20  O   UNL     1      46.846   3.499  16.468  0.00  0.00    +0.000 OA
ATOM     21  H   UNL     1      47.232   4.391  16.439  0.00  0.00    +0.000 HD
ENDBRANCH  19  20
ENDBRANCH  18  19
ENDBRANCH  17  18
ENDBRANCH  14  17
ENDBRANCH  10  11
ENDBRANCH   9  10
ENDBRANCH   8   9
ENDBRANCH   1   8
BRANCH   4  22
ATOM     22  C   UNL     1      49.780   7.611  14.372  0.00  0.00    +0.000 C 
BRANCH  22  23
ATOM     23  N   UNL     1      48.556   7.361  13.656  0.00  0.00    +0.000 N 
ATOM     24  C   UNL     1      47.788   6.243  13.842  0.00  0.00    +0.000 C 
ATOM     25  O   UNL     1      48.073   5.381  14.668  0.00  0.00    +0.000 OA
ATOM     26  H   UNL     1      48.356   7.981  12.876  0.00  0.00    +0.000 HD
BRANCH  24  27
ATOM     27  C   UNL     1      46.561   6.152  13.035  0.00  0.00    +0.000 A 
ATOM     28  C   UNL     1      46.014   7.302  12.482  0.00  0.00    +0.000 A 
ATOM     29  S   UNL     1      44.583   7.022  11.596  0.00  0.00    +0.000 S 
ATOM     30  C   UNL     1      44.631   5.357  11.942  0.00  0.00    +0.000 A 
ATOM     31  N   UNL     1      43.650   4.524  11.499  0.00  0.00    +0.000 NA
ATOM     32  C   UNL     1      43.795   3.292  11.854  0.00  0.00    +0.000 A 
ATOM     33  N   UNL     1      44.842   2.813  12.600  0.00  0.00    +0.000 N 
ATOM     34  C   UNL     1      45.886   3.604  13.007  0.00  0.00    +0.000 A 
ATOM     35  O   UNL     1      46.870   3.117  13.560  0.00  0.00    +0.000 OA
ATOM     36  C   UNL     1      45.743   5.012  12.687  0.00  0.00    +0.000 A 
ATOM     37  H   UNL     1      44.917   1.828  12.810  0.00  0.00    +0.000 HD
ENDBRANCH  24  27
ENDBRANCH  22  23
ENDBRANCH   4  22
TORSDOF 11
ENDMDL
MODEL 7
REMARK VINA RESULT:    -6.627      3.006      8.799
REMARK INTER + INTRA:         -11.956
REMARK INTER:                  -9.766
REMARK INTRA:                  -2.190
REMARK UNBOUND:                -1.261
REMARK  Name = 
REMARK  11 active torsions:
REMARK  status: ('A' for Active; 'I' for Inactive)
REMARK    1  A    between atoms: C_2  and  O_3
REMARK    2  A    between atoms: C_2  and  C_15
REMARK    3  A    between atoms: O_3  and  C_4
REMARK    4  A    between atoms: C_4  and  C_5
REMARK    5  A    between atoms: N_8  and  C_9
REMARK    6  A    between atoms: C_9  and  C_10
REMARK    7  A    between atoms: C_10  and  C_11
REMARK    8  A    between atoms: C_11  and  O_12
REMARK    9  A    between atoms: C_18  and  C_19
REMARK   10  A    between atoms: C_19  and  N_20
REMARK   11  A    between atoms: C_21  and  C_23
REMARK                            x       y       z     vdW  Elec       q    Type
REMARK                         _______ _______ _______ _____ _____    ______ ____
ROOT
ATOM      1  C   UNL     1      50.395   8.028  14.698  0.00  0.00    +0.000 A 
ATOM      2  C   UNL     1      50.639   8.047  13.319  0.00  0.00    +0.000 A 
ATOM      3  C   UNL     1      49.569   8.077  12.414  0.00  0.00    +0.000 A 
ATOM      4  C   UNL     1      48.245   8.098  12.877  0.00  0.00    +0.000 A 
ATOM      5  C   UNL     1      48.009   8.059  14.256  0.00  0.00    +0.000 A 
ATOM      6  C   UNL     1      49.073   8.038  15.159  0.00  0.00    +0.000 A 
ENDROOT
BRANCH   1   8
ATOM      7  O   UNL     1      52.688   8.233  15.354  0.00  0.00    +0.000 OA
ATOM      8  C   UNL     1      51.549   7.893  15.631  0.00  0.00    +0.000 C 
BRANCH   8   9
ATOM      9  O   UNL     1      51.158   7.237  16.753  0.00  0.00    +0.000 OA
BRANCH   9  10
ATOM     10  C   UNL     1      51.642   5.896  16.913  0.00  0.00    +0.000 C 
BRANCH  10  11
ATOM     11  C   UNL     1      51.236   5.291  18.264  0.00  0.00    +0.000 C 
ATOM     12  C   UNL     1      51.159   3.764  18.227  0.00  0.00    +0.000 C 
ATOM     13  C   UNL     1      49.987   3.268  17.379  0.00  0.00    +0.000 C 
ATOM     14  N   UNL     1      48.704   3.828  17.839  0.00  0.00    +0.000 NA
ATOM     15  C   UNL     1      48.723   5.298  17.854  0.00  0.00    +0.000 C 
ATOM     16  C   UNL     1      49.873   5.838  18.711  0.00  0.00    +0.000 C 
BRANCH  14  17
ATOM     17  C   UNL     1      47.578   3.340  17.024  0.00  0.00    +0.000 C 
BRANCH  17  18
ATOM     18  C   UNL     1      47.135   4.316  15.928  0.00  0.00    +0.000 C 
BRANCH  18  19
ATOM     19  C   UNL     1      47.190   3.695  14.538  0.00  0.00    +0.000 C 
BRANCH  19  20
ATOM     20  O   UNL     1      47.383   4.712  13.559  0.00  0.00    +0.000 OA
ATOM     21  H   UNL     1      46.509   5.080  13.344  0.00  0.00    +0.000 HD
ENDBRANCH  19  20
ENDBRANCH  18  19
ENDBRANCH  17  18
ENDBRANCH  14  17
ENDBRANCH  10  11
ENDBRANCH   9  10
ENDBRANCH   8   9
ENDBRANCH   1   8
BRANCH   4  22
ATOM     22  C   UNL     1      47.081   8.159  11.921  0.00  0.00    +0.000 C 
BRANCH  22  23
ATOM     23  N   UNL     1      46.471   6.871  11.723  0.00  0.00    +0.000 N 
ATOM     24  C   UNL     1      45.125   6.691  11.547  0.00  0.00    +0.000 C 
ATOM     25  O   UNL     1      44.338   7.631  11.508  0.00  0.00    +0.000 OA
ATOM     26  H   UNL     1      47.068   6.062  11.879  0.00  0.00    +0.000 HD
BRANCH  24  27
ATOM     27  C   UNL     1      44.672   5.306  11.346  0.00  0.00    +0.000 A 
ATOM     28  C   UNL     1      43.892   4.689  12.315  0.00  0.00    +0.000 A 
ATOM     29  S   UNL     1      43.471   3.080  11.933  0.00  0.00    +0.000 S 
ATOM     30  C   UNL     1      44.339   3.143  10.471  0.00  0.00    +0.000 A 
ATOM     31  N   UNL     1      44.417   2.054   9.658  0.00  0.00    +0.000 NA
ATOM     32  C   UNL     1      45.128   2.231   8.596  0.00  0.00    +0.000 A 
ATOM     33  N   UNL     1      45.754   3.404   8.262  0.00  0.00    +0.000 N 
ATOM     34  C   UNL     1      45.644   4.544   9.016  0.00  0.00    +0.000 A 
ATOM     35  O   UNL     1      46.110   5.612   8.621  0.00  0.00    +0.000 OA
ATOM     36  C   UNL     1      44.907   4.385  10.255  0.00  0.00    +0.000 A 
ATOM     37  H   UNL     1      46.263   3.488   7.393  0.00  0.00    +0.000 HD
ENDBRANCH  24  27
ENDBRANCH  22  23
ENDBRANCH   4  22
TORSDOF 11
ENDMDL
MODEL 8
REMARK VINA RESULT:    -6.540      3.405      9.265
REMARK INTER + INTRA:         -11.815
REMARK INTER:                  -9.733
REMARK INTRA:                  -2.082
REMARK UNBOUND:                -1.261
REMARK  Name = 
REMARK  11 active torsions:
REMARK  status: ('A' for Active; 'I' for Inactive)
REMARK    1  A    between atoms: C_2  and  O_3
REMARK    2  A    between atoms: C_2  and  C_15
REMARK    3  A    between atoms: O_3  and  C_4
REMARK    4  A    between atoms: C_4  and  C_5
REMARK    5  A    between atoms: N_8  and  C_9
REMARK    6  A    between atoms: C_9  and  C_10
REMARK    7  A    between atoms: C_10  and  C_11
REMARK    8  A    between atoms: C_11  and  O_12
REMARK    9  A    between atoms: C_18  and  C_19
REMARK   10  A    between atoms: C_19  and  N_20
REMARK   11  A    between atoms: C_21  and  C_23
REMARK                            x       y       z     vdW  Elec       q    Type
REMARK                         _______ _______ _______ _____ _____    ______ ____
ROOT
ATOM      1  C   UNL     1      50.007   8.891  15.634  0.00  0.00    +0.000 A 
ATOM      2  C   UNL     1      50.227   7.668  14.986  0.00  0.00    +0.000 A 
ATOM      3  C   UNL     1      49.624   7.408  13.748  0.00  0.00    +0.000 A 
ATOM      4  C   UNL     1      48.804   8.370  13.139  0.00  0.00    +0.000 A 
ATOM      5  C   UNL     1      48.573   9.581  13.802  0.00  0.00    +0.000 A 
ATOM      6  C   UNL     1      49.179   9.845  15.031  0.00  0.00    +0.000 A 
ENDROOT
BRANCH   1   8
ATOM      7  O   UNL     1      51.734   8.839  17.292  0.00  0.00    +0.000 OA
ATOM      8  C   UNL     1      50.579   9.097  16.995  0.00  0.00    +0.000 C 
BRANCH   8   9
ATOM      9  O   UNL     1      49.599   9.486  17.850  0.00  0.00    +0.000 OA
BRANCH   9  10
ATOM     10  C   UNL     1      49.590   8.863  19.142  0.00  0.00    +0.000 C 
BRANCH  10  11
ATOM     11  C   UNL     1      48.194   8.360  19.533  0.00  0.00    +0.000 C 
ATOM     12  C   UNL     1      48.225   7.405  20.728  0.00  0.00    +0.000 C 
ATOM     13  C   UNL     1      48.874   6.066  20.375  0.00  0.00    +0.000 C 
ATOM     14  N   UNL     1      48.209   5.421  19.229  0.00  0.00    +0.000 NA
ATOM     15  C   UNL     1      48.192   6.293  18.045  0.00  0.00    +0.000 C 
ATOM     16  C   UNL     1      47.529   7.641  18.350  0.00  0.00    +0.000 C 
BRANCH  14  17
ATOM     17  C   UNL     1      48.833   4.127  18.900  0.00  0.00    +0.000 C 
BRANCH  17  18
ATOM     18  C   UNL     1      48.873   3.820  17.398  0.00  0.00    +0.000 C 
BRANCH  18  19
ATOM     19  C   UNL     1      47.808   2.815  16.980  0.00  0.00    +0.000 C 
BRANCH  19  20
ATOM     20  O   UNL     1      46.586   3.092  17.655  0.00  0.00    +0.000 OA
ATOM     21  H   UNL     1      45.859   2.885  17.042  0.00  0.00    +0.000 HD
ENDBRANCH  19  20
ENDBRANCH  18  19
ENDBRANCH  17  18
ENDBRANCH  14  17
ENDBRANCH  10  11
ENDBRANCH   9  10
ENDBRANCH   8   9
ENDBRANCH   1   8
BRANCH   4  22
ATOM     22  C   UNL     1      48.170   8.120  11.794  0.00  0.00    +0.000 C 
BRANCH  22  23
ATOM     23  N   UNL     1      47.234   7.028  11.828  0.00  0.00    +0.000 N 
ATOM     24  C   UNL     1      45.877   7.198  11.902  0.00  0.00    +0.000 C 
ATOM     25  O   UNL     1      45.354   8.308  11.909  0.00  0.00    +0.000 OA
ATOM     26  H   UNL     1      47.629   6.100  11.957  0.00  0.00    +0.000 HD
BRANCH  24  27
ATOM     27  C   UNL     1      45.065   5.971  11.915  0.00  0.00    +0.000 A 
ATOM     28  C   UNL     1      44.300   5.663  13.033  0.00  0.00    +0.000 A 
ATOM     29  S   UNL     1      43.437   4.199  12.890  0.00  0.00    +0.000 S 
ATOM     30  C   UNL     1      44.075   3.912  11.339  0.00  0.00    +0.000 A 
ATOM     31  N   UNL     1      43.760   2.780  10.653  0.00  0.00    +0.000 NA
ATOM     32  C   UNL     1      44.333   2.675   9.501  0.00  0.00    +0.000 A 
ATOM     33  N   UNL     1      45.181   3.610   8.965  0.00  0.00    +0.000 N 
ATOM     34  C   UNL     1      45.471   4.795   9.591  0.00  0.00    +0.000 A 
ATOM     35  O   UNL     1      46.130   5.665   9.024  0.00  0.00    +0.000 OA
ATOM     36  C   UNL     1      44.902   4.937  10.918  0.00  0.00    +0.000 A 
ATOM     37  H   UNL     1      45.566   3.486   8.039  0.00  0.00    +0.000 HD
ENDBRANCH  24  27
ENDBRANCH  22  23
ENDBRANCH   4  22
TORSDOF 11
ENDMDL
MODEL 9
REMARK VINA RESULT:    -6.138      4.188      9.290
REMARK INTER + INTRA:         -11.167
REMARK INTER:                  -8.367
REMARK INTRA:                  -2.800
REMARK UNBOUND:                -1.261
REMARK  Name = 
REMARK  11 active torsions:
REMARK  status: ('A' for Active; 'I' for Inactive)
REMARK    1  A    between atoms: C_2  and  O_3
REMARK    2  A    between atoms: C_2  and  C_15
REMARK    3  A    between atoms: O_3  and  C_4
REMARK    4  A    between atoms: C_4  and  C_5
REMARK    5  A    between atoms: N_8  and  C_9
REMARK    6  A    between atoms: C_9  and  C_10
REMARK    7  A    between atoms: C_10  and  C_11
REMARK    8  A    between atoms: C_11  and  O_12
REMARK    9  A    between atoms: C_18  and  C_19
REMARK   10  A    between atoms: C_19  and  N_20
REMARK   11  A    between atoms: C_21  and  C_23
REMARK                            x       y       z     vdW  Elec       q    Type
REMARK                         _______ _______ _______ _____ _____    ______ ____
ROOT
ATOM      1  C   UNL     1      50.962   5.564  18.916  0.00  0.00    +0.000 A 
ATOM      2  C   UNL     1      50.071   4.995  17.997  0.00  0.00    +0.000 A 
ATOM      3  C   UNL     1      49.925   5.552  16.720  0.00  0.00    +0.000 A 
ATOM      4  C   UNL     1      50.673   6.678  16.343  0.00  0.00    +0.000 A 
ATOM      5  C   UNL     1      51.546   7.253  17.274  0.00  0.00    +0.000 A 
ATOM      6  C   UNL     1      51.700   6.695  18.544  0.00  0.00    +0.000 A 
ENDROOT
BRANCH   1   8
ATOM      7  O   UNL     1      52.022   4.517  20.790  0.00  0.00    +0.000 OA
ATOM      8  C   UNL     1      51.020   5.011  20.299  0.00  0.00    +0.000 C 
BRANCH   8   9
ATOM      9  O   UNL     1      49.782   5.035  20.855  0.00  0.00    +0.000 OA
BRANCH   9  10
ATOM     10  C   UNL     1      49.328   6.300  21.357  0.00  0.00    +0.000 C 
BRANCH  10  11
ATOM     11  C   UNL     1      47.798   6.410  21.349  0.00  0.00    +0.000 C 
ATOM     12  C   UNL     1      47.202   6.254  19.949  0.00  0.00    +0.000 C 
ATOM     13  C   UNL     1      47.534   7.443  19.047  0.00  0.00    +0.000 C 
ATOM     14  N   UNL     1      47.099   8.719  19.642  0.00  0.00    +0.000 NA
ATOM     15  C   UNL     1      47.680   8.927  20.976  0.00  0.00    +0.000 C 
ATOM     16  C   UNL     1      47.352   7.765  21.920  0.00  0.00    +0.000 C 
BRANCH  14  17
ATOM     17  C   UNL     1      47.413   9.860  18.764  0.00  0.00    +0.000 C 
BRANCH  17  18
ATOM     18  C   UNL     1      48.778   9.754  18.073  0.00  0.00    +0.000 C 
BRANCH  18  19
ATOM     19  C   UNL     1      48.683   9.946  16.565  0.00  0.00    +0.000 C 
BRANCH  19  20
ATOM     20  O   UNL     1      47.483   9.357  16.074  0.00  0.00    +0.000 OA
ATOM     21  H   UNL     1      47.630   8.397  16.017  0.00  0.00    +0.000 HD
ENDBRANCH  19  20
ENDBRANCH  18  19
ENDBRANCH  17  18
ENDBRANCH  14  17
ENDBRANCH  10  11
ENDBRANCH   9  10
ENDBRANCH   8   9
ENDBRANCH   1   8
BRANCH   4  22
ATOM     22  C   UNL     1      50.551   7.275  14.964  0.00  0.00    +0.000 C 
BRANCH  22  23
ATOM     23  N   UNL     1      49.202   7.224  14.467  0.00  0.00    +0.000 N 
ATOM     24  C   UNL     1      48.885   7.269  13.135  0.00  0.00    +0.000 C 
ATOM     25  O   UNL     1      49.743   7.322  12.259  0.00  0.00    +0.000 OA
ATOM     26  H   UNL     1      48.463   7.312  15.160  0.00  0.00    +0.000 HD
BRANCH  24  27
ATOM     27  C   UNL     1      47.454   7.193  12.801  0.00  0.00    +0.000 A 
ATOM     28  C   UNL     1      46.821   8.290  12.231  0.00  0.00    +0.000 A 
ATOM     29  S   UNL     1      45.161   8.040  11.926  0.00  0.00    +0.000 S 
ATOM     30  C   UNL     1      45.225   6.466  12.569  0.00  0.00    +0.000 A 
ATOM     31  N   UNL     1      44.106   5.696  12.643  0.00  0.00    +0.000 NA
ATOM     32  C   UNL     1      44.289   4.535  13.176  0.00  0.00    +0.000 A 
ATOM     33  N   UNL     1      45.496   4.066  13.627  0.00  0.00    +0.000 N 
ATOM     34  C   UNL     1      46.661   4.781  13.509  0.00  0.00    +0.000 A 
ATOM     35  O   UNL     1      47.744   4.278  13.804  0.00  0.00    +0.000 OA
ATOM     36  C   UNL     1      46.502   6.119  12.972  0.00  0.00    +0.000 A 
ATOM     37  H   UNL     1      45.579   3.130  13.998  0.00  0.00    +0.000 HD
ENDBRANCH  24  27
ENDBRANCH  22  23
ENDBRANCH   4  22
TORSDOF 11
ENDMDL
