MODEL 1
REMARK VINA RESULT:    -7.871      0.000      0.000
REMARK INTER + INTRA:         -11.384
REMARK INTER:                 -10.172
REMARK INTRA:                  -1.212
REMARK UNBOUND:                -1.212
REMARK  Name = 
REMARK  5 active torsions:
REMARK  status: ('A' for Active; 'I' for Inactive)
REMARK    1  A    between atoms: C_2  and  C_4
REMARK    2  A    between atoms: C_9  and  C_10
REMARK    3  A    between atoms: C_10  and  C_11
REMARK    4  A    between atoms: C_11  and  C_12
REMARK    5  A    between atoms: C_16  and  C_17
REMARK                            x       y       z     vdW  Elec       q    Type
REMARK                         _______ _______ _______ _____ _____    ______ ____
ROOT
ATOM      1  C   UNL     1      44.333   6.567  11.402  0.00  0.00    +0.000 C 
ENDROOT
BRANCH   1   2
ATOM      2  C   UNL     1      44.271   5.096  11.042  0.00  0.00    +0.000 A 
ATOM      3  C   UNL     1      43.405   4.193  11.668  0.00  0.00    +0.000 A 
ATOM      4  C   UNL     1      43.353   2.862  11.262  0.00  0.00    +0.000 A 
ATOM      5  C   UNL     1      44.153   2.420  10.207  0.00  0.00    +0.000 A 
ATOM      6  C   UNL     1      45.011   3.299   9.528  0.00  0.00    +0.000 A 
ATOM      7  C   UNL     1      45.060   4.634   9.974  0.00  0.00    +0.000 A 
BRANCH   6   8
ATOM      8  C   UNL     1      45.797   2.859   8.358  0.00  0.00    +0.000 A 
ATOM      9  C   UNL     1      46.131   3.725   7.306  0.00  0.00    +0.000 A 
ATOM     10  C   UNL     1      46.831   3.254   6.194  0.00  0.00    +0.000 A 
ATOM     11  C   UNL     1      47.199   1.922   6.161  0.00  0.00    +0.000 A 
ATOM     12  N   UNL     1      46.914   1.049   7.152  0.00  0.00    +0.000 NA
ATOM     13  C   UNL     1      46.221   1.536   8.209  0.00  0.00    +0.000 A 
ENDBRANCH   6   8
ENDBRANCH   1   2
BRANCH   1  14
ATOM     14  C   UNL     1      45.100   6.882  12.693  0.00  0.00    +0.000 C 
BRANCH  14  20
ATOM     15  C   UNL     1      47.429   6.021  13.199  0.00  0.00    +0.000 A 
ATOM     16  N   UNL     1      48.798   6.079  13.191  0.00  0.00    +0.000 NA
ATOM     17  C   UNL     1      49.361   7.143  12.585  0.00  0.00    +0.000 A 
ATOM     18  C   UNL     1      48.638   8.159  11.990  0.00  0.00    +0.000 A 
ATOM     19  C   UNL     1      47.248   8.083  12.008  0.00  0.00    +0.000 A 
ATOM     20  C   UNL     1      46.604   6.999  12.618  0.00  0.00    +0.000 A 
BRANCH  15  22
ATOM     21  N   UNL     1      46.863   4.906  15.291  0.00  0.00    +0.000 N 
ATOM     22  C   UNL     1      46.876   4.809  13.925  0.00  0.00    +0.000 C 
ATOM     23  O   UNL     1      46.450   3.798  13.382  0.00  0.00    +0.000 OA
ATOM     24  H   UNL     1      46.482   4.148  15.835  0.00  0.00    +0.000 HD
ATOM     25  H   UNL     1      47.205   5.752  15.731  0.00  0.00    +0.000 HD
ENDBRANCH  15  22
ENDBRANCH  14  20
ENDBRANCH   1  14
TORSDOF 5
ENDMDL
MODEL 2
REMARK VINA RESULT:    -7.129      2.095      6.655
REMARK INTER + INTRA:         -10.425
REMARK INTER:                  -9.353
REMARK INTRA:                  -1.072
REMARK UNBOUND:                -1.212
REMARK  Name = 
REMARK  5 active torsions:
REMARK  status: ('A' for Active; 'I' for Inactive)
REMARK    1  A    between atoms: C_2  and  C_4
REMARK    2  A    between atoms: C_9  and  C_10
REMARK    3  A    between atoms: C_10  and  C_11
REMARK    4  A    between atoms: C_11  and  C_12
REMARK    5  A    between atoms: C_16  and  C_17
REMARK                            x       y       z     vdW  Elec       q    Type
REMARK                         _______ _______ _______ _____ _____    ______ ____
ROOT
ATOM      1  C   UNL     1      45.318   6.954  11.064  0.00  0.00    +0.000 C 
ENDROOT
BRANCH   1   2
ATOM      2  C   UNL     1      46.633   6.875  11.814  0.00  0.00    +0.000 A 
ATOM      3  C   UNL     1      47.793   7.531  11.391  0.00  0.00    +0.000 A 
ATOM      4  C   UNL     1      48.961   7.465  12.147  0.00  0.00    +0.000 A 
ATOM      5  C   UNL     1      48.977   6.759  13.351  0.00  0.00    +0.000 A 
ATOM      6  C   UNL     1      47.826   6.115  13.831  0.00  0.00    +0.000 A 
ATOM      7  C   UNL     1      46.666   6.178  13.035  0.00  0.00    +0.000 A 
BRANCH   6   8
ATOM      8  C   UNL     1      47.812   5.437  15.143  0.00  0.00    +0.000 A 
ATOM      9  C   UNL     1      48.583   5.880  16.227  0.00  0.00    +0.000 A 
ATOM     10  C   UNL     1      48.580   5.179  17.434  0.00  0.00    +0.000 A 
ATOM     11  C   UNL     1      47.789   4.050  17.539  0.00  0.00    +0.000 A 
ATOM     12  N   UNL     1      47.019   3.587  16.531  0.00  0.00    +0.000 NA
ATOM     13  C   UNL     1      47.058   4.283  15.369  0.00  0.00    +0.000 A 
ENDBRANCH   6   8
ENDBRANCH   1   2
BRANCH   1  14
ATOM     14  C   UNL     1      44.533   5.638  11.000  0.00  0.00    +0.000 C 
BRANCH  14  20
ATOM     15  C   UNL     1      44.737   3.227  10.244  0.00  0.00    +0.000 A 
ATOM     16  N   UNL     1      45.133   2.227   9.397  0.00  0.00    +0.000 NA
ATOM     17  C   UNL     1      45.781   2.597   8.274  0.00  0.00    +0.000 A 
ATOM     18  C   UNL     1      46.065   3.909   7.949  0.00  0.00    +0.000 A 
ATOM     19  C   UNL     1      45.655   4.913   8.823  0.00  0.00    +0.000 A 
ATOM     20  C   UNL     1      44.972   4.592  10.004  0.00  0.00    +0.000 A 
BRANCH  15  22
ATOM     21  N   UNL     1      44.829   2.666  12.613  0.00  0.00    +0.000 N 
ATOM     22  C   UNL     1      44.041   2.725  11.496  0.00  0.00    +0.000 C 
ATOM     23  O   UNL     1      42.865   2.394  11.561  0.00  0.00    +0.000 OA
ATOM     24  H   UNL     1      44.424   2.368  13.487  0.00  0.00    +0.000 HD
ATOM     25  H   UNL     1      45.798   2.955  12.553  0.00  0.00    +0.000 HD
ENDBRANCH  15  22
ENDBRANCH  14  20
ENDBRANCH   1  14
TORSDOF 5
ENDMDL
MODEL 3
REMARK VINA RESULT:    -6.716      1.552      2.166
REMARK INTER + INTRA:          -9.891
REMARK INTER:                  -8.904
REMARK INTRA:                  -0.986
REMARK UNBOUND:                -1.212
REMARK  Name = 
REMARK  5 active torsions:
REMARK  status: ('A' for Active; 'I' for Inactive)
REMARK    1  A    between atoms: C_2  and  C_4
REMARK    2  A    between atoms: C_9  and  C_10
REMARK    3  A    between atoms: C_10  and  C_11
REMARK    4  A    between atoms: C_11  and  C_12
REMARK    5  A    between atoms: C_16  and  C_17
REMARK                            x       y       z     vdW  Elec       q    Type
REMARK                         _______ _______ _______ _____ _____    ______ ____
ROOT
ATOM      1  C   UNL     1      46.239   7.406  12.334  0.00  0.00    +0.000 C 
ENDROOT
BRANCH   1   2
ATOM      2  C   UNL     1      45.269   6.442  11.682  0.00  0.00    +0.000 A 
ATOM      3  C   UNL     1      43.885   6.511  11.867  0.00  0.00    +0.000 A 
ATOM      4  C   UNL     1      43.035   5.630  11.202  0.00  0.00    +0.000 A 
ATOM      5  C   UNL     1      43.560   4.681  10.324  0.00  0.00    +0.000 A 
ATOM      6  C   UNL     1      44.940   4.598  10.082  0.00  0.00    +0.000 A 
ATOM      7  C   UNL     1      45.777   5.485  10.785  0.00  0.00    +0.000 A 
BRANCH   6   8
ATOM      8  C   UNL     1      45.494   3.652   9.092  0.00  0.00    +0.000 A 
ATOM      9  C   UNL     1      46.071   4.077   7.887  0.00  0.00    +0.000 A 
ATOM     10  C   UNL     1      46.536   3.146   6.956  0.00  0.00    +0.000 A 
ATOM     11  C   UNL     1      46.427   1.801   7.257  0.00  0.00    +0.000 A 
ATOM     12  N   UNL     1      45.892   1.339   8.407  0.00  0.00    +0.000 NA
ATOM     13  C   UNL     1      45.437   2.269   9.281  0.00  0.00    +0.000 A 
ENDBRANCH   6   8
ENDBRANCH   1   2
BRANCH   1  14
ATOM     14  C   UNL     1      47.655   6.853  12.545  0.00  0.00    +0.000 C 
BRANCH  14  20
ATOM     15  C   UNL     1      47.929   5.633  14.749  0.00  0.00    +0.000 A 
ATOM     16  N   UNL     1      48.355   5.501  16.044  0.00  0.00    +0.000 NA
ATOM     17  C   UNL     1      49.060   6.526  16.564  0.00  0.00    +0.000 A 
ATOM     18  C   UNL     1      49.359   7.682  15.869  0.00  0.00    +0.000 A 
ATOM     19  C   UNL     1      48.916   7.800  14.554  0.00  0.00    +0.000 A 
ATOM     20  C   UNL     1      48.184   6.765  13.956  0.00  0.00    +0.000 A 
BRANCH  15  22
ATOM     21  N   UNL     1      45.774   4.526  14.490  0.00  0.00    +0.000 N 
ATOM     22  C   UNL     1      47.120   4.450  14.251  0.00  0.00    +0.000 C 
ATOM     23  O   UNL     1      47.582   3.480  13.665  0.00  0.00    +0.000 OA
ATOM     24  H   UNL     1      45.173   3.786  14.160  0.00  0.00    +0.000 HD
ATOM     25  H   UNL     1      45.399   5.338  14.963  0.00  0.00    +0.000 HD
ENDBRANCH  15  22
ENDBRANCH  14  20
ENDBRANCH   1  14
TORSDOF 5
ENDMDL
MODEL 4
REMARK VINA RESULT:    -6.505      3.581      5.998
REMARK INTER + INTRA:          -9.618
REMARK INTER:                  -8.607
REMARK INTRA:                  -1.011
REMARK UNBOUND:                -1.212
REMARK  Name = 
REMARK  5 active torsions:
REMARK  status: ('A' for Active; 'I' for Inactive)
REMARK    1  A    between atoms: C_2  and  C_4
REMARK    2  A    between atoms: C_9  and  C_10
REMARK    3  A    between atoms: C_10  and  C_11
REMARK    4  A    between atoms: C_11  and  C_12
REMARK    5  A    between atoms: C_16  and  C_17
REMARK                            x       y       z     vdW  Elec       q    Type
REMARK                         _______ _______ _______ _____ _____    ______ ____
ROOT
ATOM      1  C   UNL     1      49.493   6.968  15.586  0.00  0.00    +0.000 C 
ENDROOT
BRANCH   1   2
ATOM      2  C   UNL     1      48.764   6.976  14.257  0.00  0.00    +0.000 A 
ATOM      3  C   UNL     1      49.271   7.601  13.113  0.00  0.00    +0.000 A 
ATOM      4  C   UNL     1      48.583   7.534  11.904  0.00  0.00    +0.000 A 
ATOM      5  C   UNL     1      47.387   6.820  11.818  0.00  0.00    +0.000 A 
ATOM      6  C   UNL     1      46.859   6.149  12.932  0.00  0.00    +0.000 A 
ATOM      7  C   UNL     1      47.563   6.253  14.146  0.00  0.00    +0.000 A 
BRANCH   6   8
ATOM      8  C   UNL     1      45.639   5.324  12.828  0.00  0.00    +0.000 A 
ATOM      9  C   UNL     1      44.350   5.870  12.915  0.00  0.00    +0.000 A 
ATOM     10  C   UNL     1      43.225   5.046  12.864  0.00  0.00    +0.000 A 
ATOM     11  C   UNL     1      43.410   3.684  12.712  0.00  0.00    +0.000 A 
ATOM     12  N   UNL     1      44.627   3.108  12.611  0.00  0.00    +0.000 NA
ATOM     13  C   UNL     1      45.698   3.936  12.680  0.00  0.00    +0.000 A 
ENDBRANCH   6   8
ENDBRANCH   1   2
BRANCH   1  14
ATOM     14  C   UNL     1      48.951   5.964  16.611  0.00  0.00    +0.000 C 
BRANCH  14  20
ATOM     15  C   UNL     1      49.353   3.491  16.989  0.00  0.00    +0.000 A 
ATOM     16  N   UNL     1      50.093   2.403  17.370  0.00  0.00    +0.000 NA
ATOM     17  C   UNL     1      51.353   2.637  17.790  0.00  0.00    +0.000 A 
ATOM     18  C   UNL     1      51.918   3.895  17.859  0.00  0.00    +0.000 A 
ATOM     19  C   UNL     1      51.151   4.990  17.469  0.00  0.00    +0.000 A 
ATOM     20  C   UNL     1      49.836   4.811  17.018  0.00  0.00    +0.000 A 
BRANCH  15  22
ATOM     21  N   UNL     1      47.057   2.934  17.583  0.00  0.00    +0.000 N 
ATOM     22  C   UNL     1      47.940   3.146  16.559  0.00  0.00    +0.000 C 
ATOM     23  O   UNL     1      47.560   3.059  15.398  0.00  0.00    +0.000 OA
ATOM     24  H   UNL     1      46.093   2.727  17.368  0.00  0.00    +0.000 HD
ATOM     25  H   UNL     1      47.377   3.021  18.540  0.00  0.00    +0.000 HD
ENDBRANCH  15  22
ENDBRANCH  14  20
ENDBRANCH   1  14
TORSDOF 5
ENDMDL
MODEL 5
REMARK VINA RESULT:    -6.462      3.507      4.114
REMARK INTER + INTRA:          -9.562
REMARK INTER:                  -8.690
REMARK INTRA:                  -0.872
REMARK UNBOUND:                -1.212
REMARK  Name = 
REMARK  5 active torsions:
REMARK  status: ('A' for Active; 'I' for Inactive)
REMARK    1  A    between atoms: C_2  and  C_4
REMARK    2  A    between atoms: C_9  and  C_10
REMARK    3  A    between atoms: C_10  and  C_11
REMARK    4  A    between atoms: C_11  and  C_12
REMARK    5  A    between atoms: C_16  and  C_17
REMARK                            x       y       z     vdW  Elec       q    Type
REMARK                         _______ _______ _______ _____ _____    ______ ____
ROOT
ATOM      1  C   UNL     1      46.107   7.587  11.996  0.00  0.00    +0.000 C 
ENDROOT
BRANCH   1   2
ATOM      2  C   UNL     1      45.209   6.509  11.423  0.00  0.00    +0.000 A 
ATOM      3  C   UNL     1      43.826   6.476  11.636  0.00  0.00    +0.000 A 
ATOM      4  C   UNL     1      43.041   5.490  11.042  0.00  0.00    +0.000 A 
ATOM      5  C   UNL     1      43.626   4.536  10.210  0.00  0.00    +0.000 A 
ATOM      6  C   UNL     1      45.005   4.551   9.942  0.00  0.00    +0.000 A 
ATOM      7  C   UNL     1      45.777   5.545  10.572  0.00  0.00    +0.000 A 
BRANCH   6   8
ATOM      8  C   UNL     1      45.617   3.597   8.996  0.00  0.00    +0.000 A 
ATOM      9  C   UNL     1      46.304   4.012   7.846  0.00  0.00    +0.000 A 
ATOM     10  C   UNL     1      46.823   3.074   6.952  0.00  0.00    +0.000 A 
ATOM     11  C   UNL     1      46.656   1.731   7.235  0.00  0.00    +0.000 A 
ATOM     12  N   UNL     1      46.015   1.277   8.333  0.00  0.00    +0.000 NA
ATOM     13  C   UNL     1      45.511   2.215   9.171  0.00  0.00    +0.000 A 
ENDBRANCH   6   8
ENDBRANCH   1   2
BRANCH   1  14
ATOM     14  C   UNL     1      45.373   8.834  12.505  0.00  0.00    +0.000 C 
BRANCH  14  20
ATOM     15  C   UNL     1      44.607  10.884  11.227  0.00  0.00    +0.000 A 
ATOM     16  N   UNL     1      44.792  12.071  10.570  0.00  0.00    +0.000 NA
ATOM     17  C   UNL     1      46.052  12.545  10.505  0.00  0.00    +0.000 A 
ATOM     18  C   UNL     1      47.144  11.900  11.054  0.00  0.00    +0.000 A 
ATOM     19  C   UNL     1      46.937  10.693  11.718  0.00  0.00    +0.000 A 
ATOM     20  C   UNL     1      45.649  10.152  11.823  0.00  0.00    +0.000 A 
BRANCH  15  22
ATOM     21  N   UNL     1      42.365  10.986  12.176  0.00  0.00    +0.000 N 
ATOM     22  C   UNL     1      43.167  10.407  11.229  0.00  0.00    +0.000 C 
ATOM     23  O   UNL     1      42.700   9.576  10.461  0.00  0.00    +0.000 OA
ATOM     24  H   UNL     1      41.389  10.736  12.215  0.00  0.00    +0.000 HD
ATOM     25  H   UNL     1      42.756  11.682  12.799  0.00  0.00    +0.000 HD
ENDBRANCH  15  22
ENDBRANCH  14  20
ENDBRANCH   1  14
TORSDOF 5
ENDMDL
MODEL 6
REMARK VINA RESULT:    -6.140      3.695      7.087
REMARK INTER + INTRA:          -9.146
REMARK INTER:                  -8.142
REMARK INTRA:                  -1.004
REMARK UNBOUND:                -1.212
REMARK  Name = 
REMARK  5 active torsions:
REMARK  status: ('A' for Active; 'I' for Inactive)
REMARK    1  A    between atoms: C_2  and  C_4
REMARK    2  A    between atoms: C_9  and  C_10
REMARK    3  A    between atoms: C_10  and  C_11
REMARK    4  A    between atoms: C_11  and  C_12
REMARK    5  A    between atoms: C_16  and  C_17
REMARK                            x       y       z     vdW  Elec       q    Type
REMARK                         _______ _______ _______ _____ _____    ______ ____
ROOT
ATOM      1  C   UNL     1      46.534   7.732  13.076  0.00  0.00    +0.000 C 
ENDROOT
BRANCH   1   2
ATOM      2  C   UNL     1      46.345   9.078  12.405  0.00  0.00    +0.000 A 
ATOM      3  C   UNL     1      47.412   9.910  12.053  0.00  0.00    +0.000 A 
ATOM      4  C   UNL     1      47.184  11.115  11.392  0.00  0.00    +0.000 A 
ATOM      5  C   UNL     1      45.884  11.492  11.053  0.00  0.00    +0.000 A 
ATOM      6  C   UNL     1      44.786  10.670  11.355  0.00  0.00    +0.000 A 
ATOM      7  C   UNL     1      45.044   9.470  12.044  0.00  0.00    +0.000 A 
BRANCH   6   8
ATOM      8  C   UNL     1      43.418  11.023  10.926  0.00  0.00    +0.000 A 
ATOM      9  C   UNL     1      43.030  12.343  10.658  0.00  0.00    +0.000 A 
ATOM     10  C   UNL     1      41.712  12.638  10.305  0.00  0.00    +0.000 A 
ATOM     11  C   UNL     1      40.805  11.598  10.212  0.00  0.00    +0.000 A 
ATOM     12  N   UNL     1      41.129  10.308  10.446  0.00  0.00    +0.000 NA
ATOM     13  C   UNL     1      42.413  10.060  10.802  0.00  0.00    +0.000 A 
ENDBRANCH   6   8
ENDBRANCH   1   2
BRANCH   1  14
ATOM     14  C   UNL     1      46.649   6.542  12.114  0.00  0.00    +0.000 C 
BRANCH  14  20
ATOM     15  C   UNL     1      45.519   4.412  12.894  0.00  0.00    +0.000 A 
ATOM     16  N   UNL     1      44.535   3.459  12.883  0.00  0.00    +0.000 NA
ATOM     17  C   UNL     1      43.512   3.646  12.024  0.00  0.00    +0.000 A 
ATOM     18  C   UNL     1      43.416   4.726  11.169  0.00  0.00    +0.000 A 
ATOM     19  C   UNL     1      44.426   5.685  11.194  0.00  0.00    +0.000 A 
ATOM     20  C   UNL     1      45.512   5.549  12.068  0.00  0.00    +0.000 A 
BRANCH  15  22
ATOM     21  N   UNL     1      46.479   4.626  15.123  0.00  0.00    +0.000 N 
ATOM     22  C   UNL     1      46.645   4.113  13.865  0.00  0.00    +0.000 C 
ATOM     23  O   UNL     1      47.646   3.459  13.601  0.00  0.00    +0.000 OA
ATOM     24  H   UNL     1      47.177   4.441  15.827  0.00  0.00    +0.000 HD
ATOM     25  H   UNL     1      45.642   5.154  15.336  0.00  0.00    +0.000 HD
ENDBRANCH  15  22
ENDBRANCH  14  20
ENDBRANCH   1  14
TORSDOF 5
ENDMDL
MODEL 7
REMARK VINA RESULT:    -6.056      1.994      2.429
REMARK INTER + INTRA:          -9.038
REMARK INTER:                  -8.143
REMARK INTRA:                  -0.895
REMARK UNBOUND:                -1.212
REMARK  Name = 
REMARK  5 active torsions:
REMARK  status: ('A' for Active; 'I' for Inactive)
REMARK    1  A    between atoms: C_2  and  C_4
REMARK    2  A    between atoms: C_9  and  C_10
REMARK    3  A    between atoms: C_10  and  C_11
REMARK    4  A    between atoms: C_11  and  C_12
REMARK    5  A    between atoms: C_16  and  C_17
REMARK                            x       y       z     vdW  Elec       q    Type
REMARK                         _______ _______ _______ _____ _____    ______ ____
ROOT
ATOM      1  C   UNL     1      45.479   7.484  12.304  0.00  0.00    +0.000 C 
ENDROOT
BRANCH   1   2
ATOM      2  C   UNL     1      44.787   6.235  11.795  0.00  0.00    +0.000 A 
ATOM      3  C   UNL     1      43.530   5.821  12.248  0.00  0.00    +0.000 A 
ATOM      4  C   UNL     1      42.919   4.692  11.708  0.00  0.00    +0.000 A 
ATOM      5  C   UNL     1      43.548   3.974  10.691  0.00  0.00    +0.000 A 
ATOM      6  C   UNL     1      44.794   4.373  10.182  0.00  0.00    +0.000 A 
ATOM      7  C   UNL     1      45.399   5.504  10.761  0.00  0.00    +0.000 A 
BRANCH   6   8
ATOM      8  C   UNL     1      45.426   3.667   9.049  0.00  0.00    +0.000 A 
ATOM      9  C   UNL     1      45.579   2.274   9.021  0.00  0.00    +0.000 A 
ATOM     10  C   UNL     1      46.229   1.653   7.954  0.00  0.00    +0.000 A 
ATOM     11  C   UNL     1      46.706   2.440   6.922  0.00  0.00    +0.000 A 
ATOM     12  N   UNL     1      46.574   3.784   6.893  0.00  0.00    +0.000 NA
ATOM     13  C   UNL     1      45.951   4.355   7.952  0.00  0.00    +0.000 A 
ENDBRANCH   6   8
ENDBRANCH   1   2
BRANCH   1  14
ATOM     14  C   UNL     1      46.567   7.235  13.356  0.00  0.00    +0.000 C 
BRANCH  14  20
ATOM     15  C   UNL     1      48.904   7.985  13.988  0.00  0.00    +0.000 A 
ATOM     16  N   UNL     1      50.203   8.330  13.729  0.00  0.00    +0.000 NA
ATOM     17  C   UNL     1      50.612   8.256  12.446  0.00  0.00    +0.000 A 
ATOM     18  C   UNL     1      49.796   7.865  11.402  0.00  0.00    +0.000 A 
ATOM     19  C   UNL     1      48.477   7.519  11.684  0.00  0.00    +0.000 A 
ATOM     20  C   UNL     1      47.995   7.570  12.999  0.00  0.00    +0.000 A 
BRANCH  15  22
ATOM     21  N   UNL     1      48.566   6.962  16.174  0.00  0.00    +0.000 N 
ATOM     22  C   UNL     1      48.517   8.123  15.449  0.00  0.00    +0.000 C 
ATOM     23  O   UNL     1      48.187   9.168  15.993  0.00  0.00    +0.000 OA
ATOM     24  H   UNL     1      48.348   6.987  17.158  0.00  0.00    +0.000 HD
ATOM     25  H   UNL     1      48.852   6.105  15.718  0.00  0.00    +0.000 HD
ENDBRANCH  15  22
ENDBRANCH  14  20
ENDBRANCH   1  14
TORSDOF 5
ENDMDL
MODEL 8
REMARK VINA RESULT:    -6.024      4.249      7.876
REMARK INTER + INTRA:          -8.997
REMARK INTER:                  -7.896
REMARK INTRA:                  -1.101
REMARK UNBOUND:                -1.212
REMARK  Name = 
REMARK  5 active torsions:
REMARK  status: ('A' for Active; 'I' for Inactive)
REMARK    1  A    between atoms: C_2  and  C_4
REMARK    2  A    between atoms: C_9  and  C_10
REMARK    3  A    between atoms: C_10  and  C_11
REMARK    4  A    between atoms: C_11  and  C_12
REMARK    5  A    between atoms: C_16  and  C_17
REMARK                            x       y       z     vdW  Elec       q    Type
REMARK                         _______ _______ _______ _____ _____    ______ ____
ROOT
ATOM      1  C   UNL     1      48.684   7.571  15.317  0.00  0.00    +0.000 C 
ENDROOT
BRANCH   1   2
ATOM      2  C   UNL     1      48.986   6.889  16.637  0.00  0.00    +0.000 A 
ATOM      3  C   UNL     1      48.484   7.340  17.861  0.00  0.00    +0.000 A 
ATOM      4  C   UNL     1      48.751   6.644  19.038  0.00  0.00    +0.000 A 
ATOM      5  C   UNL     1      49.508   5.472  19.001  0.00  0.00    +0.000 A 
ATOM      6  C   UNL     1      50.004   4.964  17.790  0.00  0.00    +0.000 A 
ATOM      7  C   UNL     1      49.737   5.700  16.620  0.00  0.00    +0.000 A 
BRANCH   6   8
ATOM      8  C   UNL     1      50.734   3.682  17.732  0.00  0.00    +0.000 A 
ATOM      9  C   UNL     1      52.080   3.565  18.105  0.00  0.00    +0.000 A 
ATOM     10  C   UNL     1      52.746   2.344  17.986  0.00  0.00    +0.000 A 
ATOM     11  C   UNL     1      52.044   1.253  17.506  0.00  0.00    +0.000 A 
ATOM     12  N   UNL     1      50.744   1.308  17.146  0.00  0.00    +0.000 NA
ATOM     13  C   UNL     1      50.133   2.512  17.260  0.00  0.00    +0.000 A 
ENDBRANCH   6   8
ENDBRANCH   1   2
BRANCH   1  14
ATOM     14  C   UNL     1      48.520   6.622  14.124  0.00  0.00    +0.000 C 
BRANCH  14  20
ATOM     15  C   UNL     1      46.388   5.290  13.801  0.00  0.00    +0.000 A 
ATOM     16  N   UNL     1      45.144   5.057  13.278  0.00  0.00    +0.000 NA
ATOM     17  C   UNL     1      44.632   6.006  12.469  0.00  0.00    +0.000 A 
ATOM     18  C   UNL     1      45.292   7.175  12.144  0.00  0.00    +0.000 A 
ATOM     19  C   UNL     1      46.557   7.395  12.683  0.00  0.00    +0.000 A 
ATOM     20  C   UNL     1      47.140   6.447  13.536  0.00  0.00    +0.000 A 
BRANCH  15  22
ATOM     21  N   UNL     1      46.617   4.287  16.009  0.00  0.00    +0.000 N 
ATOM     22  C   UNL     1      46.903   4.163  14.676  0.00  0.00    +0.000 C 
ATOM     23  O   UNL     1      47.523   3.187  14.273  0.00  0.00    +0.000 OA
ATOM     24  H   UNL     1      46.906   3.558  16.645  0.00  0.00    +0.000 HD
ATOM     25  H   UNL     1      46.092   5.090  16.331  0.00  0.00    +0.000 HD
ENDBRANCH  15  22
ENDBRANCH  14  20
ENDBRANCH   1  14
TORSDOF 5
ENDMDL
MODEL 9
REMARK VINA RESULT:    -5.929      3.124      6.662
REMARK INTER + INTRA:          -8.874
REMARK INTER:                  -8.057
REMARK INTRA:                  -0.817
REMARK UNBOUND:                -1.212
REMARK  Name = 
REMARK  5 active torsions:
REMARK  status: ('A' for Active; 'I' for Inactive)
REMARK    1  A    between atoms: C_2  and  C_4
REMARK    2  A    between atoms: C_9  and  C_10
REMARK    3  A    between atoms: C_10  and  C_11
REMARK    4  A    between atoms: C_11  and  C_12
REMARK    5  A    between atoms: C_16  and  C_17
REMARK                            x       y       z     vdW  Elec       q    Type
REMARK                         _______ _______ _______ _____ _____    ______ ____
ROOT
ATOM      1  C   UNL     1      46.637   7.610  12.474  0.00  0.00    +0.000 C 
ENDROOT
BRANCH   1   2
ATOM      2  C   UNL     1      47.739   8.578  12.092  0.00  0.00    +0.000 A 
ATOM      3  C   UNL     1      47.580   9.967  12.129  0.00  0.00    +0.000 A 
ATOM      4  C   UNL     1      48.643  10.811  11.816  0.00  0.00    +0.000 A 
ATOM      5  C   UNL     1      49.888  10.275  11.483  0.00  0.00    +0.000 A 
ATOM      6  C   UNL     1      50.101   8.887  11.466  0.00  0.00    +0.000 A 
ATOM      7  C   UNL     1      49.004   8.058  11.765  0.00  0.00    +0.000 A 
BRANCH   6   8
ATOM      8  C   UNL     1      51.436   8.316  11.196  0.00  0.00    +0.000 A 
ATOM      9  C   UNL     1      51.647   7.317  10.235  0.00  0.00    +0.000 A 
ATOM     10  C   UNL     1      52.916   6.767  10.049  0.00  0.00    +0.000 A 
ATOM     11  C   UNL     1      53.960   7.241  10.823  0.00  0.00    +0.000 A 
ATOM     12  N   UNL     1      53.815   8.209  11.752  0.00  0.00    +0.000 NA
ATOM     13  C   UNL     1      52.566   8.709  11.917  0.00  0.00    +0.000 A 
ENDBRANCH   6   8
ENDBRANCH   1   2
BRANCH   1  14
ATOM     14  C   UNL     1      46.693   6.255  11.757  0.00  0.00    +0.000 C 
BRANCH  14  20
ATOM     15  C   UNL     1      45.457   4.317  12.826  0.00  0.00    +0.000 A 
ATOM     16  N   UNL     1      44.415   3.438  12.958  0.00  0.00    +0.000 NA
ATOM     17  C   UNL     1      43.379   3.585  12.108  0.00  0.00    +0.000 A 
ATOM     18  C   UNL     1      43.323   4.555  11.127  0.00  0.00    +0.000 A 
ATOM     19  C   UNL     1      44.392   5.440  11.006  0.00  0.00    +0.000 A 
ATOM     20  C   UNL     1      45.495   5.341  11.864  0.00  0.00    +0.000 A 
BRANCH  15  22
ATOM     21  N   UNL     1      46.427   4.621  15.040  0.00  0.00    +0.000 N 
ATOM     22  C   UNL     1      46.593   4.066  13.800  0.00  0.00    +0.000 C 
ATOM     23  O   UNL     1      47.600   3.416  13.552  0.00  0.00    +0.000 OA
ATOM     24  H   UNL     1      47.132   4.470  15.746  0.00  0.00    +0.000 HD
ATOM     25  H   UNL     1      45.584   5.146  15.240  0.00  0.00    +0.000 HD
ENDBRANCH  15  22
ENDBRANCH  14  20
ENDBRANCH   1  14
TORSDOF 5
ENDMDL
