MODEL 1
REMARK VINA RESULT:    -8.153      0.000      0.000
REMARK INTER + INTRA:         -11.406
REMARK INTER:                 -10.536
REMARK INTRA:                  -0.870
REMARK UNBOUND:                -0.870
REMARK  Name = 
REMARK  6 active torsions:
REMARK  status: ('A' for Active; 'I' for Inactive)
REMARK    1  A    between atoms: C_1  and  C_2
REMARK    2  A    between atoms: C_5  and  C_6
REMARK    3  A    between atoms: C_6  and  C_7
REMARK    4  A    between atoms: C_10  and  C_11
REMARK    5  A    between atoms: C_11  and  N_12
REMARK    6  A    between atoms: C_13  and  C_15
REMARK                            x       y       z     vdW  Elec       q    Type
REMARK                         _______ _______ _______ _____ _____    ______ ____
ROOT
ATOM      1  C   UNL     1      46.851   7.866  13.239  0.00  0.00    +0.000 C 
ENDROOT
BRANCH   1   5
ATOM      2  C   UNL     1      44.798   5.142  10.667  0.00  0.00    +0.000 A 
ATOM      3  C   UNL     1      44.322   5.322  11.964  0.00  0.00    +0.000 A 
ATOM      4  C   UNL     1      44.982   6.209  12.813  0.00  0.00    +0.000 A 
ATOM      5  C   UNL     1      46.131   6.872  12.373  0.00  0.00    +0.000 A 
ATOM      6  C   UNL     1      46.542   6.619  11.069  0.00  0.00    +0.000 A 
ATOM      7  N   UNL     1      45.904   5.782  10.212  0.00  0.00    +0.000 NA
BRANCH   2   8
ATOM      8  C   UNL     1      44.059   4.255   9.692  0.00  0.00    +0.000 C 
BRANCH   8  13
ATOM      9  C   UNL     1      47.484   1.068   6.413  0.00  0.00    +0.000 C 
ATOM     10  C   UNL     1      46.595   1.905   7.280  0.00  0.00    +0.000 A 
ATOM     11  C   UNL     1      46.322   3.232   6.969  0.00  0.00    +0.000 A 
ATOM     12  N   UNL     1      45.517   4.017   7.726  0.00  0.00    +0.000 NA
ATOM     13  C   UNL     1      44.971   3.427   8.821  0.00  0.00    +0.000 A 
ATOM     14  C   UNL     1      45.248   2.098   9.131  0.00  0.00    +0.000 A 
ATOM     15  N   UNL     1      46.063   1.317   8.379  0.00  0.00    +0.000 NA
ENDBRANCH   8  13
ENDBRANCH   2   8
ENDBRANCH   1   5
BRANCH   1  16
ATOM     16  N   UNL     1      47.350   7.238  14.436  0.00  0.00    +0.000 N 
ATOM     17  C   UNL     1      48.637   6.772  14.544  0.00  0.00    +0.000 C 
ATOM     18  O   UNL     1      49.459   6.892  13.643  0.00  0.00    +0.000 OA
ATOM     19  H   UNL     1      46.651   6.879  15.074  0.00  0.00    +0.000 HD
BRANCH  17  20
ATOM     20  C   UNL     1      48.988   6.187  15.848  0.00  0.00    +0.000 A 
ATOM     21  C   UNL     1      50.012   6.736  16.610  0.00  0.00    +0.000 A 
ATOM     22  S   UNL     1      50.200   5.987  18.134  0.00  0.00    +0.000 S 
ATOM     23  C   UNL     1      48.966   4.864  17.800  0.00  0.00    +0.000 A 
ATOM     24  N   UNL     1      48.618   3.910  18.705  0.00  0.00    +0.000 NA
ATOM     25  C   UNL     1      47.685   3.111  18.308  0.00  0.00    +0.000 A 
ATOM     26  N   UNL     1      47.070   3.177  17.083  0.00  0.00    +0.000 N 
ATOM     27  C   UNL     1      47.371   4.134  16.150  0.00  0.00    +0.000 A 
ATOM     28  O   UNL     1      46.779   4.186  15.074  0.00  0.00    +0.000 OA
ATOM     29  C   UNL     1      48.415   5.063  16.548  0.00  0.00    +0.000 A 
ATOM     30  H   UNL     1      46.341   2.525  16.835  0.00  0.00    +0.000 HD
ENDBRANCH  17  20
ENDBRANCH   1  16
TORSDOF 5
ENDMDL
MODEL 2
REMARK VINA RESULT:    -7.264      1.926      2.503
REMARK INTER + INTRA:         -10.257
REMARK INTER:                  -9.694
REMARK INTRA:                  -0.563
REMARK UNBOUND:                -0.870
REMARK  Name = 
REMARK  6 active torsions:
REMARK  status: ('A' for Active; 'I' for Inactive)
REMARK    1  A    between atoms: C_1  and  C_2
REMARK    2  A    between atoms: C_5  and  C_6
REMARK    3  A    between atoms: C_6  and  C_7
REMARK    4  A    between atoms: C_10  and  C_11
REMARK    5  A    between atoms: C_11  and  N_12
REMARK    6  A    between atoms: C_13  and  C_15
REMARK                            x       y       z     vdW  Elec       q    Type
REMARK                         _______ _______ _______ _____ _____    ______ ____
ROOT
ATOM      1  C   UNL     1      47.321   6.807  13.541  0.00  0.00    +0.000 C 
ENDROOT
BRANCH   1   5
ATOM      2  C   UNL     1      45.065   4.348  10.875  0.00  0.00    +0.000 A 
ATOM      3  C   UNL     1      45.328   5.665  10.505  0.00  0.00    +0.000 A 
ATOM      4  C   UNL     1      46.064   6.477  11.366  0.00  0.00    +0.000 A 
ATOM      5  C   UNL     1      46.491   5.980  12.599  0.00  0.00    +0.000 A 
ATOM      6  C   UNL     1      46.169   4.660  12.891  0.00  0.00    +0.000 A 
ATOM      7  N   UNL     1      45.478   3.838  12.061  0.00  0.00    +0.000 NA
BRANCH   2   8
ATOM      8  C   UNL     1      44.344   3.413   9.930  0.00  0.00    +0.000 C 
BRANCH   8  13
ATOM      9  C   UNL     1      47.673   1.501   5.700  0.00  0.00    +0.000 C 
ATOM     10  C   UNL     1      46.792   2.000   6.801  0.00  0.00    +0.000 A 
ATOM     11  C   UNL     1      46.449   1.190   7.877  0.00  0.00    +0.000 A 
ATOM     12  N   UNL     1      45.660   1.610   8.896  0.00  0.00    +0.000 NA
ATOM     13  C   UNL     1      45.218   2.893   8.816  0.00  0.00    +0.000 A 
ATOM     14  C   UNL     1      45.560   3.701   7.735  0.00  0.00    +0.000 A 
ATOM     15  N   UNL     1      46.342   3.275   6.711  0.00  0.00    +0.000 NA
ENDBRANCH   8  13
ENDBRANCH   2   8
ENDBRANCH   1   5
BRANCH   1  16
ATOM     16  N   UNL     1      47.416   6.175  14.832  0.00  0.00    +0.000 N 
ATOM     17  C   UNL     1      48.593   6.103  15.536  0.00  0.00    +0.000 C 
ATOM     18  O   UNL     1      49.634   6.605  15.129  0.00  0.00    +0.000 OA
ATOM     19  H   UNL     1      46.675   5.526  15.065  0.00  0.00    +0.000 HD
BRANCH  17  20
ATOM     20  C   UNL     1      48.503   5.451  16.852  0.00  0.00    +0.000 A 
ATOM     21  C   UNL     1      48.638   4.073  16.962  0.00  0.00    +0.000 A 
ATOM     22  S   UNL     1      48.610   3.515  18.576  0.00  0.00    +0.000 S 
ATOM     23  C   UNL     1      48.352   5.086  19.176  0.00  0.00    +0.000 A 
ATOM     24  N   UNL     1      48.224   5.318  20.511  0.00  0.00    +0.000 NA
ATOM     25  C   UNL     1      48.006   6.552  20.820  0.00  0.00    +0.000 A 
ATOM     26  N   UNL     1      47.900   7.578  19.914  0.00  0.00    +0.000 N 
ATOM     27  C   UNL     1      48.045   7.395  18.564  0.00  0.00    +0.000 A 
ATOM     28  O   UNL     1      47.976   8.339  17.781  0.00  0.00    +0.000 OA
ATOM     29  C   UNL     1      48.296   6.022  18.160  0.00  0.00    +0.000 A 
ATOM     30  H   UNL     1      47.736   8.524  20.221  0.00  0.00    +0.000 HD
ENDBRANCH  17  20
ENDBRANCH   1  16
TORSDOF 5
ENDMDL
MODEL 3
REMARK VINA RESULT:    -7.134      2.572      4.453
REMARK INTER + INTRA:         -10.089
REMARK INTER:                  -9.036
REMARK INTRA:                  -1.053
REMARK UNBOUND:                -0.870
REMARK  Name = 
REMARK  6 active torsions:
REMARK  status: ('A' for Active; 'I' for Inactive)
REMARK    1  A    between atoms: C_1  and  C_2
REMARK    2  A    between atoms: C_5  and  C_6
REMARK    3  A    between atoms: C_6  and  C_7
REMARK    4  A    between atoms: C_10  and  C_11
REMARK    5  A    between atoms: C_11  and  N_12
REMARK    6  A    between atoms: C_13  and  C_15
REMARK                            x       y       z     vdW  Elec       q    Type
REMARK                         _______ _______ _______ _____ _____    ______ ____
ROOT
ATOM      1  C   UNL     1      47.345   5.273  14.989  0.00  0.00    +0.000 C 
ENDROOT
BRANCH   1   5
ATOM      2  C   UNL     1      44.878   3.947  11.764  0.00  0.00    +0.000 A 
ATOM      3  C   UNL     1      44.868   5.299  12.097  0.00  0.00    +0.000 A 
ATOM      4  C   UNL     1      45.669   5.745  13.147  0.00  0.00    +0.000 A 
ATOM      5  C   UNL     1      46.436   4.832  13.876  0.00  0.00    +0.000 A 
ATOM      6  C   UNL     1      46.371   3.501  13.482  0.00  0.00    +0.000 A 
ATOM      7  N   UNL     1      45.621   3.042  12.448  0.00  0.00    +0.000 NA
BRANCH   2   8
ATOM      8  C   UNL     1      44.088   3.441  10.577  0.00  0.00    +0.000 C 
BRANCH   8  13
ATOM      9  C   UNL     1      47.308   2.586   5.937  0.00  0.00    +0.000 C 
ATOM     10  C   UNL     1      46.455   2.810   7.146  0.00  0.00    +0.000 A 
ATOM     11  C   UNL     1      46.125   1.767   8.002  0.00  0.00    +0.000 A 
ATOM     12  N   UNL     1      45.361   1.933   9.110  0.00  0.00    +0.000 NA
ATOM     13  C   UNL     1      44.933   3.200   9.351  0.00  0.00    +0.000 A 
ATOM     14  C   UNL     1      45.262   4.243   8.490  0.00  0.00    +0.000 A 
ATOM     15  N   UNL     1      46.018   4.073   7.376  0.00  0.00    +0.000 NA
ENDBRANCH   8  13
ENDBRANCH   2   8
ENDBRANCH   1   5
BRANCH   1  16
ATOM     16  N   UNL     1      47.724   6.653  14.825  0.00  0.00    +0.000 N 
ATOM     17  C   UNL     1      48.981   7.115  15.129  0.00  0.00    +0.000 C 
ATOM     18  O   UNL     1      49.876   6.377  15.524  0.00  0.00    +0.000 OA
ATOM     19  H   UNL     1      46.964   7.320  14.774  0.00  0.00    +0.000 HD
BRANCH  17  20
ATOM     20  C   UNL     1      49.207   8.546  14.872  0.00  0.00    +0.000 A 
ATOM     21  C   UNL     1      49.559   9.399  15.911  0.00  0.00    +0.000 A 
ATOM     22  S   UNL     1      49.881  10.996  15.399  0.00  0.00    +0.000 S 
ATOM     23  C   UNL     1      49.498  10.618  13.784  0.00  0.00    +0.000 A 
ATOM     24  N   UNL     1      49.560  11.561  12.806  0.00  0.00    +0.000 NA
ATOM     25  C   UNL     1      49.217  11.140  11.635  0.00  0.00    +0.000 A 
ATOM     26  N   UNL     1      48.813   9.860  11.352  0.00  0.00    +0.000 N 
ATOM     27  C   UNL     1      48.758   8.872  12.300  0.00  0.00    +0.000 A 
ATOM     28  O   UNL     1      48.423   7.726  12.009  0.00  0.00    +0.000 OA
ATOM     29  C   UNL     1      49.137   9.292  13.639  0.00  0.00    +0.000 A 
ATOM     30  H   UNL     1      48.565   9.591  10.412  0.00  0.00    +0.000 HD
ENDBRANCH  17  20
ENDBRANCH   1  16
TORSDOF 5
ENDMDL
MODEL 4
REMARK VINA RESULT:    -7.034      1.710      2.177
REMARK INTER + INTRA:          -9.961
REMARK INTER:                  -9.370
REMARK INTRA:                  -0.590
REMARK UNBOUND:                -0.870
REMARK  Name = 
REMARK  6 active torsions:
REMARK  status: ('A' for Active; 'I' for Inactive)
REMARK    1  A    between atoms: C_1  and  C_2
REMARK    2  A    between atoms: C_5  and  C_6
REMARK    3  A    between atoms: C_6  and  C_7
REMARK    4  A    between atoms: C_10  and  C_11
REMARK    5  A    between atoms: C_11  and  N_12
REMARK    6  A    between atoms: C_13  and  C_15
REMARK                            x       y       z     vdW  Elec       q    Type
REMARK                         _______ _______ _______ _____ _____    ______ ____
ROOT
ATOM      1  C   UNL     1      48.191   7.687  13.830  0.00  0.00    +0.000 C 
ENDROOT
BRANCH   1   5
ATOM      2  C   UNL     1      45.364   5.249  11.754  0.00  0.00    +0.000 A 
ATOM      3  C   UNL     1      45.378   6.618  11.497  0.00  0.00    +0.000 A 
ATOM      4  C   UNL     1      46.297   7.424  12.168  0.00  0.00    +0.000 A 
ATOM      5  C   UNL     1      47.158   6.863  13.113  0.00  0.00    +0.000 A 
ATOM      6  C   UNL     1      47.062   5.491  13.316  0.00  0.00    +0.000 A 
ATOM      7  N   UNL     1      46.197   4.678  12.659  0.00  0.00    +0.000 NA
BRANCH   2   8
ATOM      8  C   UNL     1      44.441   4.331  10.984  0.00  0.00    +0.000 C 
BRANCH   8  13
ATOM      9  C   UNL     1      46.839   2.222   6.247  0.00  0.00    +0.000 C 
ATOM     10  C   UNL     1      46.201   2.776   7.482  0.00  0.00    +0.000 A 
ATOM     11  C   UNL     1      45.724   1.943   8.487  0.00  0.00    +0.000 A 
ATOM     12  N   UNL     1      45.148   2.409   9.622  0.00  0.00    +0.000 NA
ATOM     13  C   UNL     1      45.066   3.761   9.735  0.00  0.00    +0.000 A 
ATOM     14  C   UNL     1      45.542   4.593   8.726  0.00  0.00    +0.000 A 
ATOM     15  N   UNL     1      46.109   4.125   7.586  0.00  0.00    +0.000 NA
ENDBRANCH   8  13
ENDBRANCH   2   8
ENDBRANCH   1   5
BRANCH   1  16
ATOM     16  N   UNL     1      48.085   7.516  15.256  0.00  0.00    +0.000 N 
ATOM     17  C   UNL     1      49.110   7.009  16.018  0.00  0.00    +0.000 C 
ATOM     18  O   UNL     1      50.196   6.704  15.541  0.00  0.00    +0.000 OA
ATOM     19  H   UNL     1      47.146   7.490  15.633  0.00  0.00    +0.000 HD
BRANCH  17  20
ATOM     20  C   UNL     1      48.843   6.932  17.463  0.00  0.00    +0.000 A 
ATOM     21  C   UNL     1      48.521   8.078  18.180  0.00  0.00    +0.000 A 
ATOM     22  S   UNL     1      48.144   7.771  19.817  0.00  0.00    +0.000 S 
ATOM     23  C   UNL     1      48.461   6.108  19.639  0.00  0.00    +0.000 A 
ATOM     24  N   UNL     1      48.336   5.251  20.688  0.00  0.00    +0.000 NA
ATOM     25  C   UNL     1      48.634   4.025  20.415  0.00  0.00    +0.000 A 
ATOM     26  N   UNL     1      49.050   3.577  19.187  0.00  0.00    +0.000 N 
ATOM     27  C   UNL     1      49.169   4.399  18.097  0.00  0.00    +0.000 A 
ATOM     28  O   UNL     1      49.514   3.962  17.002  0.00  0.00    +0.000 OA
ATOM     29  C   UNL     1      48.842   5.793  18.348  0.00  0.00    +0.000 A 
ATOM     30  H   UNL     1      49.261   2.603  19.036  0.00  0.00    +0.000 HD
ENDBRANCH  17  20
ENDBRANCH   1  16
TORSDOF 5
ENDMDL
MODEL 5
REMARK VINA RESULT:    -6.949      3.365      8.079
REMARK INTER + INTRA:          -9.850
REMARK INTER:                  -9.073
REMARK INTRA:                  -0.777
REMARK UNBOUND:                -0.870
REMARK  Name = 
REMARK  6 active torsions:
REMARK  status: ('A' for Active; 'I' for Inactive)
REMARK    1  A    between atoms: C_1  and  C_2
REMARK    2  A    between atoms: C_5  and  C_6
REMARK    3  A    between atoms: C_6  and  C_7
REMARK    4  A    between atoms: C_10  and  C_11
REMARK    5  A    between atoms: C_11  and  N_12
REMARK    6  A    between atoms: C_13  and  C_15
REMARK                            x       y       z     vdW  Elec       q    Type
REMARK                         _______ _______ _______ _____ _____    ______ ____
ROOT
ATOM      1  C   UNL     1      48.530   7.482  12.806  0.00  0.00    +0.000 C 
ENDROOT
BRANCH   1   5
ATOM      2  C   UNL     1      49.575   6.037  16.688  0.00  0.00    +0.000 A 
ATOM      3  C   UNL     1      48.342   5.672  16.151  0.00  0.00    +0.000 A 
ATOM      4  C   UNL     1      47.990   6.137  14.884  0.00  0.00    +0.000 A 
ATOM      5  C   UNL     1      48.851   6.990  14.190  0.00  0.00    +0.000 A 
ATOM      6  C   UNL     1      50.052   7.312  14.810  0.00  0.00    +0.000 A 
ATOM      7  N   UNL     1      50.433   6.854  16.029  0.00  0.00    +0.000 NA
BRANCH   2   8
ATOM      8  C   UNL     1      50.028   5.483  18.020  0.00  0.00    +0.000 C 
BRANCH   8  13
ATOM      9  C   UNL     1      53.025   0.636  17.628  0.00  0.00    +0.000 C 
ATOM     10  C   UNL     1      52.246   1.910  17.721  0.00  0.00    +0.000 A 
ATOM     11  C   UNL     1      50.952   2.005  17.224  0.00  0.00    +0.000 A 
ATOM     12  N   UNL     1      50.213   3.140  17.297  0.00  0.00    +0.000 NA
ATOM     13  C   UNL     1      50.811   4.199  17.903  0.00  0.00    +0.000 A 
ATOM     14  C   UNL     1      52.108   4.102  18.398  0.00  0.00    +0.000 A 
ATOM     15  N   UNL     1      52.850   2.969  18.315  0.00  0.00    +0.000 NA
ENDBRANCH   8  13
ENDBRANCH   2   8
ENDBRANCH   1   5
BRANCH   1  16
ATOM     16  N   UNL     1      47.707   6.533  12.102  0.00  0.00    +0.000 N 
ATOM     17  C   UNL     1      46.432   6.828  11.684  0.00  0.00    +0.000 C 
ATOM     18  O   UNL     1      45.923   7.930  11.850  0.00  0.00    +0.000 OA
ATOM     19  H   UNL     1      47.972   5.560  12.192  0.00  0.00    +0.000 HD
BRANCH  17  20
ATOM     20  C   UNL     1      45.744   5.753  10.951  0.00  0.00    +0.000 A 
ATOM     21  C   UNL     1      45.876   5.648   9.572  0.00  0.00    +0.000 A 
ATOM     22  S   UNL     1      45.092   4.280   8.917  0.00  0.00    +0.000 S 
ATOM     23  C   UNL     1      44.495   3.819  10.442  0.00  0.00    +0.000 A 
ATOM     24  N   UNL     1      43.721   2.710  10.590  0.00  0.00    +0.000 NA
ATOM     25  C   UNL     1      43.318   2.497  11.798  0.00  0.00    +0.000 A 
ATOM     26  N   UNL     1      43.616   3.295  12.873  0.00  0.00    +0.000 N 
ATOM     27  C   UNL     1      44.411   4.407  12.776  0.00  0.00    +0.000 A 
ATOM     28  O   UNL     1      44.686   5.083  13.764  0.00  0.00    +0.000 OA
ATOM     29  C   UNL     1      44.896   4.692  11.436  0.00  0.00    +0.000 A 
ATOM     30  H   UNL     1      43.276   3.069  13.796  0.00  0.00    +0.000 HD
ENDBRANCH  17  20
ENDBRANCH   1  16
TORSDOF 5
ENDMDL
MODEL 6
REMARK VINA RESULT:    -6.789      4.236      9.709
REMARK INTER + INTRA:          -9.643
REMARK INTER:                  -8.691
REMARK INTRA:                  -0.953
REMARK UNBOUND:                -0.870
REMARK  Name = 
REMARK  6 active torsions:
REMARK  status: ('A' for Active; 'I' for Inactive)
REMARK    1  A    between atoms: C_1  and  C_2
REMARK    2  A    between atoms: C_5  and  C_6
REMARK    3  A    between atoms: C_6  and  C_7
REMARK    4  A    between atoms: C_10  and  C_11
REMARK    5  A    between atoms: C_11  and  N_12
REMARK    6  A    between atoms: C_13  and  C_15
REMARK                            x       y       z     vdW  Elec       q    Type
REMARK                         _______ _______ _______ _____ _____    ______ ____
ROOT
ATOM      1  C   UNL     1      47.897   4.397  16.181  0.00  0.00    +0.000 C 
ENDROOT
BRANCH   1   5
ATOM      2  C   UNL     1      48.275   7.259  19.329  0.00  0.00    +0.000 A 
ATOM      3  C   UNL     1      47.277   6.291  19.425  0.00  0.00    +0.000 A 
ATOM      4  C   UNL     1      47.145   5.351  18.405  0.00  0.00    +0.000 A 
ATOM      5  C   UNL     1      47.978   5.413  17.285  0.00  0.00    +0.000 A 
ATOM      6  C   UNL     1      48.933   6.423  17.269  0.00  0.00    +0.000 A 
ATOM      7  N   UNL     1      49.103   7.335  18.259  0.00  0.00    +0.000 NA
BRANCH   2   8
ATOM      8  C   UNL     1      48.504   8.241  20.456  0.00  0.00    +0.000 C 
BRANCH   8  13
ATOM      9  C   UNL     1      44.655  12.461  20.560  0.00  0.00    +0.000 C 
ATOM     10  C   UNL     1      45.672  11.363  20.536  0.00  0.00    +0.000 A 
ATOM     11  C   UNL     1      45.761  10.437  21.568  0.00  0.00    +0.000 A 
ATOM     12  N   UNL     1      46.663   9.425  21.578  0.00  0.00    +0.000 NA
ATOM     13  C   UNL     1      47.488   9.355  20.500  0.00  0.00    +0.000 A 
ATOM     14  C   UNL     1      47.399  10.286  19.469  0.00  0.00    +0.000 A 
ATOM     15  N   UNL     1      46.502  11.304  19.466  0.00  0.00    +0.000 NA
ENDBRANCH   8  13
ENDBRANCH   2   8
ENDBRANCH   1   5
BRANCH   1  16
ATOM     16  N   UNL     1      46.960   4.813  15.169  0.00  0.00    +0.000 N 
ATOM     17  C   UNL     1      47.337   5.533  14.063  0.00  0.00    +0.000 C 
ATOM     18  O   UNL     1      48.503   5.840  13.843  0.00  0.00    +0.000 OA
ATOM     19  H   UNL     1      45.985   4.825  15.443  0.00  0.00    +0.000 HD
BRANCH  17  20
ATOM     20  C   UNL     1      46.257   5.846  13.114  0.00  0.00    +0.000 A 
ATOM     21  C   UNL     1      45.933   7.167  12.830  0.00  0.00    +0.000 A 
ATOM     22  S   UNL     1      44.728   7.328  11.631  0.00  0.00    +0.000 S 
ATOM     23  C   UNL     1      44.553   5.641  11.498  0.00  0.00    +0.000 A 
ATOM     24  N   UNL     1      43.657   5.092  10.633  0.00  0.00    +0.000 NA
ATOM     25  C   UNL     1      43.613   3.802  10.657  0.00  0.00    +0.000 A 
ATOM     26  N   UNL     1      44.382   3.009  11.471  0.00  0.00    +0.000 N 
ATOM     27  C   UNL     1      45.313   3.516  12.340  0.00  0.00    +0.000 A 
ATOM     28  O   UNL     1      46.009   2.778  13.032  0.00  0.00    +0.000 OA
ATOM     29  C   UNL     1      45.406   4.966  12.351  0.00  0.00    +0.000 A 
ATOM     30  H   UNL     1      44.305   2.004  11.437  0.00  0.00    +0.000 HD
ENDBRANCH  17  20
ENDBRANCH   1  16
TORSDOF 5
ENDMDL
MODEL 7
REMARK VINA RESULT:    -6.702      4.089      9.150
REMARK INTER + INTRA:          -9.531
REMARK INTER:                  -9.442
REMARK INTRA:                  -0.089
REMARK UNBOUND:                -0.870
REMARK  Name = 
REMARK  6 active torsions:
REMARK  status: ('A' for Active; 'I' for Inactive)
REMARK    1  A    between atoms: C_1  and  C_2
REMARK    2  A    between atoms: C_5  and  C_6
REMARK    3  A    between atoms: C_6  and  C_7
REMARK    4  A    between atoms: C_10  and  C_11
REMARK    5  A    between atoms: C_11  and  N_12
REMARK    6  A    between atoms: C_13  and  C_15
REMARK                            x       y       z     vdW  Elec       q    Type
REMARK                         _______ _______ _______ _____ _____    ______ ____
ROOT
ATOM      1  C   UNL     1      47.285   3.502  16.854  0.00  0.00    +0.000 C 
ENDROOT
BRANCH   1   5
ATOM      2  C   UNL     1      51.478   3.724  17.637  0.00  0.00    +0.000 A 
ATOM      3  C   UNL     1      50.761   4.911  17.505  0.00  0.00    +0.000 A 
ATOM      4  C   UNL     1      49.392   4.852  17.251  0.00  0.00    +0.000 A 
ATOM      5  C   UNL     1      48.765   3.614  17.089  0.00  0.00    +0.000 A 
ATOM      6  C   UNL     1      49.562   2.483  17.222  0.00  0.00    +0.000 A 
ATOM      7  N   UNL     1      50.891   2.510  17.496  0.00  0.00    +0.000 NA
BRANCH   2   8
ATOM      8  C   UNL     1      52.946   3.747  17.998  0.00  0.00    +0.000 C 
BRANCH   8  13
ATOM      9  C   UNL     1      55.103  -1.416  19.148  0.00  0.00    +0.000 C 
ATOM     10  C   UNL     1      54.549  -0.060  18.843  0.00  0.00    +0.000 A 
ATOM     11  C   UNL     1      53.834   0.185  17.676  0.00  0.00    +0.000 A 
ATOM     12  N   UNL     1      53.312   1.397  17.370  0.00  0.00    +0.000 NA
ATOM     13  C   UNL     1      53.517   2.381  18.286  0.00  0.00    +0.000 A 
ATOM     14  C   UNL     1      54.235   2.134  19.452  0.00  0.00    +0.000 A 
ATOM     15  N   UNL     1      54.766   0.923  19.752  0.00  0.00    +0.000 NA
ENDBRANCH   8  13
ENDBRANCH   2   8
ENDBRANCH   1   5
BRANCH   1  16
ATOM     16  N   UNL     1      46.850   4.447  15.857  0.00  0.00    +0.000 N 
ATOM     17  C   UNL     1      46.869   4.164  14.513  0.00  0.00    +0.000 C 
ATOM     18  O   UNL     1      47.221   3.076  14.074  0.00  0.00    +0.000 OA
ATOM     19  H   UNL     1      46.822   5.417  16.145  0.00  0.00    +0.000 HD
BRANCH  17  20
ATOM     20  C   UNL     1      46.361   5.231  13.637  0.00  0.00    +0.000 A 
ATOM     21  C   UNL     1      47.136   6.354  13.376  0.00  0.00    +0.000 A 
ATOM     22  S   UNL     1      46.422   7.428  12.257  0.00  0.00    +0.000 S 
ATOM     23  C   UNL     1      45.025   6.463  12.133  0.00  0.00    +0.000 A 
ATOM     24  N   UNL     1      43.990   6.823  11.328  0.00  0.00    +0.000 NA
ATOM     25  C   UNL     1      42.986   6.011  11.353  0.00  0.00    +0.000 A 
ATOM     26  N   UNL     1      42.923   4.871  12.114  0.00  0.00    +0.000 N 
ATOM     27  C   UNL     1      43.950   4.458  12.922  0.00  0.00    +0.000 A 
ATOM     28  O   UNL     1      43.875   3.415  13.567  0.00  0.00    +0.000 OA
ATOM     29  C   UNL     1      45.108   5.336  12.928  0.00  0.00    +0.000 A 
ATOM     30  H   UNL     1      42.111   4.273  12.084  0.00  0.00    +0.000 HD
ENDBRANCH  17  20
ENDBRANCH   1  16
TORSDOF 5
ENDMDL
MODEL 8
REMARK VINA RESULT:    -6.692      3.845      4.798
REMARK INTER + INTRA:          -9.518
REMARK INTER:                  -8.574
REMARK INTRA:                  -0.944
REMARK UNBOUND:                -0.870
REMARK  Name = 
REMARK  6 active torsions:
REMARK  status: ('A' for Active; 'I' for Inactive)
REMARK    1  A    between atoms: C_1  and  C_2
REMARK    2  A    between atoms: C_5  and  C_6
REMARK    3  A    between atoms: C_6  and  C_7
REMARK    4  A    between atoms: C_10  and  C_11
REMARK    5  A    between atoms: C_11  and  N_12
REMARK    6  A    between atoms: C_13  and  C_15
REMARK                            x       y       z     vdW  Elec       q    Type
REMARK                         _______ _______ _______ _____ _____    ______ ____
ROOT
ATOM      1  C   UNL     1      44.839   7.598  12.999  0.00  0.00    +0.000 C 
ENDROOT
BRANCH   1   5
ATOM      2  C   UNL     1      44.519   3.993  10.730  0.00  0.00    +0.000 A 
ATOM      3  C   UNL     1      45.549   4.104  11.662  0.00  0.00    +0.000 A 
ATOM      4  C   UNL     1      45.663   5.275  12.409  0.00  0.00    +0.000 A 
ATOM      5  C   UNL     1      44.778   6.333  12.189  0.00  0.00    +0.000 A 
ATOM      6  C   UNL     1      43.792   6.139  11.228  0.00  0.00    +0.000 A 
ATOM      7  N   UNL     1      43.640   5.001  10.505  0.00  0.00    +0.000 NA
BRANCH   2   8
ATOM      8  C   UNL     1      44.311   2.707   9.963  0.00  0.00    +0.000 C 
BRANCH   8  13
ATOM      9  C   UNL     1      47.762   2.234   5.435  0.00  0.00    +0.000 C 
ATOM     10  C   UNL     1      46.849   2.355   6.614  0.00  0.00    +0.000 A 
ATOM     11  C   UNL     1      46.714   1.323   7.535  0.00  0.00    +0.000 A 
ATOM     12  N   UNL     1      45.903   1.400   8.618  0.00  0.00    +0.000 NA
ATOM     13  C   UNL     1      45.220   2.566   8.767  0.00  0.00    +0.000 A 
ATOM     14  C   UNL     1      45.355   3.597   7.842  0.00  0.00    +0.000 A 
ATOM     15  N   UNL     1      46.159   3.514   6.753  0.00  0.00    +0.000 NA
ENDBRANCH   8  13
ENDBRANCH   2   8
ENDBRANCH   1   5
BRANCH   1  16
ATOM     16  N   UNL     1      46.123   8.236  12.859  0.00  0.00    +0.000 N 
ATOM     17  C   UNL     1      46.304   9.376  12.115  0.00  0.00    +0.000 C 
ATOM     18  O   UNL     1      45.379   9.948  11.551  0.00  0.00    +0.000 OA
ATOM     19  H   UNL     1      46.931   7.661  13.065  0.00  0.00    +0.000 HD
BRANCH  17  20
ATOM     20  C   UNL     1      47.675   9.912  12.104  0.00  0.00    +0.000 A 
ATOM     21  C   UNL     1      47.899  11.270  12.295  0.00  0.00    +0.000 A 
ATOM     22  S   UNL     1      49.555  11.683  12.356  0.00  0.00    +0.000 S 
ATOM     23  C   UNL     1      50.027  10.074  12.064  0.00  0.00    +0.000 A 
ATOM     24  N   UNL     1      51.340   9.728  11.983  0.00  0.00    +0.000 NA
ATOM     25  C   UNL     1      51.550   8.480  11.732  0.00  0.00    +0.000 A 
ATOM     26  N   UNL     1      50.564   7.543  11.550  0.00  0.00    +0.000 N 
ATOM     27  C   UNL     1      49.230   7.840  11.645  0.00  0.00    +0.000 A 
ATOM     28  O   UNL     1      48.371   6.972  11.508  0.00  0.00    +0.000 OA
ATOM     29  C   UNL     1      48.937   9.235  11.930  0.00  0.00    +0.000 A 
ATOM     30  H   UNL     1      50.795   6.579  11.363  0.00  0.00    +0.000 HD
ENDBRANCH  17  20
ENDBRANCH   1  16
TORSDOF 5
ENDMDL
MODEL 9
REMARK VINA RESULT:    -6.680      3.719      9.734
REMARK INTER + INTRA:          -9.503
REMARK INTER:                  -8.723
REMARK INTRA:                  -0.780
REMARK UNBOUND:                -0.870
REMARK  Name = 
REMARK  6 active torsions:
REMARK  status: ('A' for Active; 'I' for Inactive)
REMARK    1  A    between atoms: C_1  and  C_2
REMARK    2  A    between atoms: C_5  and  C_6
REMARK    3  A    between atoms: C_6  and  C_7
REMARK    4  A    between atoms: C_10  and  C_11
REMARK    5  A    between atoms: C_11  and  N_12
REMARK    6  A    between atoms: C_13  and  C_15
REMARK                            x       y       z     vdW  Elec       q    Type
REMARK                         _______ _______ _______ _____ _____    ______ ____
ROOT
ATOM      1  C   UNL     1      47.218   3.489  16.694  0.00  0.00    +0.000 C 
ENDROOT
BRANCH   1   5
ATOM      2  C   UNL     1      51.345   4.264  17.479  0.00  0.00    +0.000 A 
ATOM      3  C   UNL     1      50.883   2.953  17.575  0.00  0.00    +0.000 A 
ATOM      4  C   UNL     1      49.539   2.688  17.321  0.00  0.00    +0.000 A 
ATOM      5  C   UNL     1      48.666   3.734  17.015  0.00  0.00    +0.000 A 
ATOM      6  C   UNL     1      49.212   5.011  16.956  0.00  0.00    +0.000 A 
ATOM      7  N   UNL     1      50.521   5.297  17.173  0.00  0.00    +0.000 NA
BRANCH   2   8
ATOM      8  C   UNL     1      52.812   4.579  17.663  0.00  0.00    +0.000 C 
BRANCH   8  13
ATOM      9  C   UNL     1      53.893   7.840  22.227  0.00  0.00    +0.000 C 
ATOM     10  C   UNL     1      53.621   6.982  21.032  0.00  0.00    +0.000 A 
ATOM     11  C   UNL     1      52.954   5.768  21.149  0.00  0.00    +0.000 A 
ATOM     12  N   UNL     1      52.684   4.968  20.088  0.00  0.00    +0.000 NA
ATOM     13  C   UNL     1      53.098   5.427  18.878  0.00  0.00    +0.000 A 
ATOM     14  C   UNL     1      53.768   6.641  18.764  0.00  0.00    +0.000 A 
ATOM     15  N   UNL     1      54.047   7.436  19.828  0.00  0.00    +0.000 NA
ENDBRANCH   8  13
ENDBRANCH   2   8
ENDBRANCH   1   5
BRANCH   1  16
ATOM     16  N   UNL     1      46.742   4.434  15.717  0.00  0.00    +0.000 N 
ATOM     17  C   UNL     1      46.769   4.178  14.368  0.00  0.00    +0.000 C 
ATOM     18  O   UNL     1      47.165   3.114  13.907  0.00  0.00    +0.000 OA
ATOM     19  H   UNL     1      46.674   5.396  16.024  0.00  0.00    +0.000 HD
BRANCH  17  20
ATOM     20  C   UNL     1      46.214   5.239  13.513  0.00  0.00    +0.000 A 
ATOM     21  C   UNL     1      46.950   6.389  13.254  0.00  0.00    +0.000 A 
ATOM     22  S   UNL     1      46.185   7.453  12.159  0.00  0.00    +0.000 S 
ATOM     23  C   UNL     1      44.818   6.447  12.045  0.00  0.00    +0.000 A 
ATOM     24  N   UNL     1      43.758   6.783  11.261  0.00  0.00    +0.000 NA
ATOM     25  C   UNL     1      42.782   5.940  11.291  0.00  0.00    +0.000 A 
ATOM     26  N   UNL     1      42.765   4.790  12.039  0.00  0.00    +0.000 N 
ATOM     27  C   UNL     1      43.818   4.399  12.825  0.00  0.00    +0.000 A 
ATOM     28  O   UNL     1      43.785   3.347  13.458  0.00  0.00    +0.000 OA
ATOM     29  C   UNL     1      44.948   5.313  12.825  0.00  0.00    +0.000 A 
ATOM     30  H   UNL     1      41.972   4.167  12.013  0.00  0.00    +0.000 HD
ENDBRANCH  17  20
ENDBRANCH   1  16
TORSDOF 5
ENDMDL
