MODEL 1
REMARK VINA RESULT:    -7.992      0.000      0.000
REMARK INTER + INTRA:         -10.618
REMARK INTER:                  -9.861
REMARK INTRA:                  -0.757
REMARK UNBOUND:                -0.757
REMARK  Name = 
REMARK  5 active torsions:
REMARK  status: ('A' for Active; 'I' for Inactive)
REMARK    1  A    between atoms: C_1  and  C_2
REMARK    2  A    between atoms: C_4  and  C_5
REMARK    3  A    between atoms: C_5  and  O_6
REMARK    4  A    between atoms: O_6  and  C_7
REMARK    5  A    between atoms: C_11  and  C_12
REMARK                            x       y       z     vdW  Elec       q    Type
REMARK                         _______ _______ _______ _____ _____    ______ ____
ROOT
ATOM      1  C   UNL     1      44.036   5.031  10.715  0.00  0.00    +0.000 A 
ATOM      2  C   UNL     1      43.304   4.115  11.456  0.00  0.00    +0.000 A 
ATOM      3  N   UNL     1      43.278   2.787  11.209  0.00  0.00    +0.000 NA
ATOM      4  C   UNL     1      44.044   2.352  10.180  0.00  0.00    +0.000 A 
ATOM      5  C   UNL     1      44.839   3.165   9.365  0.00  0.00    +0.000 A 
ATOM      6  C   UNL     1      44.808   4.541   9.661  0.00  0.00    +0.000 A 
ENDROOT
BRANCH   5   7
ATOM      7  C   UNL     1      45.671   2.613   8.272  0.00  0.00    +0.000 A 
ATOM      8  C   UNL     1      46.198   1.306   8.335  0.00  0.00    +0.000 A 
ATOM      9  C   UNL     1      46.998   0.785   7.310  0.00  0.00    +0.000 A 
ATOM     10  C   UNL     1      47.280   1.557   6.189  0.00  0.00    +0.000 A 
ATOM     11  C   UNL     1      46.764   2.842   6.107  0.00  0.00    +0.000 A 
ATOM     12  F   UNL     1      47.027   3.588   5.026  0.00  0.00    +0.000 F 
ATOM     13  C   UNL     1      45.980   3.372   7.129  0.00  0.00    +0.000 A 
ENDBRANCH   5   7
BRANCH   1  14
ATOM     14  O   UNL     1      43.968   6.330  11.125  0.00  0.00    +0.000 OA
BRANCH  14  15
ATOM     15  C   UNL     1      44.298   6.592  12.489  0.00  0.00    +0.000 C 
BRANCH  15  19
ATOM     16  C   UNL     1      49.122   7.804  11.617  0.00  0.00    +0.000 C 
ATOM     17  C   UNL     1      48.080   6.978  12.308  0.00  0.00    +0.000 A 
ATOM     18  C   UNL     1      46.728   7.174  12.049  0.00  0.00    +0.000 A 
ATOM     19  C   UNL     1      45.777   6.377  12.700  0.00  0.00    +0.000 A 
ATOM     20  C   UNL     1      46.231   5.426  13.616  0.00  0.00    +0.000 A 
ATOM     21  C   UNL     1      47.595   5.300  13.820  0.00  0.00    +0.000 A 
ATOM     22  N   UNL     1      48.524   6.050  13.188  0.00  0.00    +0.000 NA
ENDBRANCH  15  19
ENDBRANCH  14  15
ENDBRANCH   1  14
TORSDOF 4
ENDMDL
MODEL 2
REMARK VINA RESULT:    -7.656      1.129      2.092
REMARK INTER + INTRA:         -10.204
REMARK INTER:                  -9.857
REMARK INTRA:                  -0.346
REMARK UNBOUND:                -0.757
REMARK  Name = 
REMARK  5 active torsions:
REMARK  status: ('A' for Active; 'I' for Inactive)
REMARK    1  A    between atoms: C_1  and  C_2
REMARK    2  A    between atoms: C_4  and  C_5
REMARK    3  A    between atoms: C_5  and  O_6
REMARK    4  A    between atoms: O_6  and  C_7
REMARK    5  A    between atoms: C_11  and  C_12
REMARK                            x       y       z     vdW  Elec       q    Type
REMARK                         _______ _______ _______ _____ _____    ______ ____
ROOT
ATOM      1  C   UNL     1      44.076   5.032  11.147  0.00  0.00    +0.000 A 
ATOM      2  C   UNL     1      43.301   4.069  11.776  0.00  0.00    +0.000 A 
ATOM      3  N   UNL     1      43.219   2.781  11.378  0.00  0.00    +0.000 NA
ATOM      4  C   UNL     1      43.973   2.434  10.308  0.00  0.00    +0.000 A 
ATOM      5  C   UNL     1      44.807   3.300   9.593  0.00  0.00    +0.000 A 
ATOM      6  C   UNL     1      44.833   4.633  10.046  0.00  0.00    +0.000 A 
ENDROOT
BRANCH   5   7
ATOM      7  C   UNL     1      45.623   2.842   8.445  0.00  0.00    +0.000 A 
ATOM      8  C   UNL     1      45.933   3.704   7.372  0.00  0.00    +0.000 A 
ATOM      9  C   UNL     1      46.692   3.271   6.277  0.00  0.00    +0.000 A 
ATOM     10  C   UNL     1      47.171   1.966   6.236  0.00  0.00    +0.000 A 
ATOM     11  C   UNL     1      46.881   1.107   7.287  0.00  0.00    +0.000 A 
ATOM     12  F   UNL     1      47.345  -0.149   7.255  0.00  0.00    +0.000 F 
ATOM     13  C   UNL     1      46.114   1.526   8.371  0.00  0.00    +0.000 A 
ENDBRANCH   5   7
BRANCH   1  14
ATOM     14  O   UNL     1      44.059   6.276  11.704  0.00  0.00    +0.000 OA
BRANCH  14  15
ATOM     15  C   UNL     1      45.152   7.139  11.387  0.00  0.00    +0.000 C 
BRANCH  15  19
ATOM     16  C   UNL     1      47.261   4.524  15.158  0.00  0.00    +0.000 C 
ATOM     17  C   UNL     1      47.338   5.550  14.068  0.00  0.00    +0.000 A 
ATOM     18  C   UNL     1      46.223   5.849  13.291  0.00  0.00    +0.000 A 
ATOM     19  C   UNL     1      46.321   6.822  12.288  0.00  0.00    +0.000 A 
ATOM     20  C   UNL     1      47.558   7.438  12.087  0.00  0.00    +0.000 A 
ATOM     21  C   UNL     1      48.619   7.077  12.901  0.00  0.00    +0.000 A 
ATOM     22  N   UNL     1      48.535   6.153  13.882  0.00  0.00    +0.000 NA
ENDBRANCH  15  19
ENDBRANCH  14  15
ENDBRANCH   1  14
TORSDOF 4
ENDMDL
MODEL 3
REMARK VINA RESULT:    -7.577      2.705      6.633
REMARK INTER + INTRA:         -10.106
REMARK INTER:                  -9.434
REMARK INTRA:                  -0.672
REMARK UNBOUND:                -0.757
REMARK  Name = 
REMARK  5 active torsions:
REMARK  status: ('A' for Active; 'I' for Inactive)
REMARK    1  A    between atoms: C_1  and  C_2
REMARK    2  A    between atoms: C_4  and  C_5
REMARK    3  A    between atoms: C_5  and  O_6
REMARK    4  A    between atoms: O_6  and  C_7
REMARK    5  A    between atoms: C_11  and  C_12
REMARK                            x       y       z     vdW  Elec       q    Type
REMARK                         _______ _______ _______ _____ _____    ______ ____
ROOT
ATOM      1  C   UNL     1      44.689   4.014  10.890  0.00  0.00    +0.000 A 
ATOM      2  C   UNL     1      44.308   3.506  12.123  0.00  0.00    +0.000 A 
ATOM      3  N   UNL     1      44.607   4.083  13.307  0.00  0.00    +0.000 NA
ATOM      4  C   UNL     1      45.304   5.242  13.251  0.00  0.00    +0.000 A 
ATOM      5  C   UNL     1      45.736   5.869  12.077  0.00  0.00    +0.000 A 
ATOM      6  C   UNL     1      45.410   5.208  10.877  0.00  0.00    +0.000 A 
ENDROOT
BRANCH   5   7
ATOM      7  C   UNL     1      46.475   7.152  12.093  0.00  0.00    +0.000 A 
ATOM      8  C   UNL     1      45.844   8.360  12.456  0.00  0.00    +0.000 A 
ATOM      9  C   UNL     1      46.535   9.579  12.459  0.00  0.00    +0.000 A 
ATOM     10  C   UNL     1      47.880   9.616  12.109  0.00  0.00    +0.000 A 
ATOM     11  C   UNL     1      48.518   8.436  11.757  0.00  0.00    +0.000 A 
ATOM     12  F   UNL     1      49.816   8.464  11.425  0.00  0.00    +0.000 F 
ATOM     13  C   UNL     1      47.834   7.223  11.737  0.00  0.00    +0.000 A 
ENDBRANCH   5   7
BRANCH   1  14
ATOM     14  O   UNL     1      44.274   3.314   9.796  0.00  0.00    +0.000 OA
BRANCH  14  15
ATOM     15  C   UNL     1      44.674   3.815   8.520  0.00  0.00    +0.000 C 
BRANCH  15  19
ATOM     16  C   UNL     1      46.855  -0.666   7.703  0.00  0.00    +0.000 C 
ATOM     17  C   UNL     1      46.825   0.826   7.557  0.00  0.00    +0.000 A 
ATOM     18  C   UNL     1      45.794   1.575   8.117  0.00  0.00    +0.000 A 
ATOM     19  C   UNL     1      45.800   2.969   7.977  0.00  0.00    +0.000 A 
ATOM     20  C   UNL     1      46.836   3.554   7.247  0.00  0.00    +0.000 A 
ATOM     21  C   UNL     1      47.820   2.733   6.718  0.00  0.00    +0.000 A 
ATOM     22  N   UNL     1      47.837   1.391   6.858  0.00  0.00    +0.000 NA
ENDBRANCH  15  19
ENDBRANCH  14  15
ENDBRANCH   1  14
TORSDOF 4
ENDMDL
MODEL 4
REMARK VINA RESULT:    -7.428      3.029      6.765
REMARK INTER + INTRA:          -9.922
REMARK INTER:                  -9.219
REMARK INTRA:                  -0.704
REMARK UNBOUND:                -0.757
REMARK  Name = 
REMARK  5 active torsions:
REMARK  status: ('A' for Active; 'I' for Inactive)
REMARK    1  A    between atoms: C_1  and  C_2
REMARK    2  A    between atoms: C_4  and  C_5
REMARK    3  A    between atoms: C_5  and  O_6
REMARK    4  A    between atoms: O_6  and  C_7
REMARK    5  A    between atoms: C_11  and  C_12
REMARK                            x       y       z     vdW  Elec       q    Type
REMARK                         _______ _______ _______ _____ _____    ______ ____
ROOT
ATOM      1  C   UNL     1      45.058   4.065  11.354  0.00  0.00    +0.000 A 
ATOM      2  C   UNL     1      45.375   3.408  12.534  0.00  0.00    +0.000 A 
ATOM      3  N   UNL     1      46.078   3.961  13.546  0.00  0.00    +0.000 NA
ATOM      4  C   UNL     1      46.464   5.248  13.376  0.00  0.00    +0.000 A 
ATOM      5  C   UNL     1      46.199   6.028  12.245  0.00  0.00    +0.000 A 
ATOM      6  C   UNL     1      45.479   5.388  11.218  0.00  0.00    +0.000 A 
ENDROOT
BRANCH   5   7
ATOM      7  C   UNL     1      46.632   7.440  12.140  0.00  0.00    +0.000 A 
ATOM      8  C   UNL     1      47.991   7.782  11.974  0.00  0.00    +0.000 A 
ATOM      9  C   UNL     1      48.408   9.117  11.888  0.00  0.00    +0.000 A 
ATOM     10  C   UNL     1      47.471  10.143  11.955  0.00  0.00    +0.000 A 
ATOM     11  C   UNL     1      46.130   9.823  12.111  0.00  0.00    +0.000 A 
ATOM     12  F   UNL     1      45.223  10.807  12.170  0.00  0.00    +0.000 F 
ATOM     13  C   UNL     1      45.710   8.499  12.212  0.00  0.00    +0.000 A 
ENDBRANCH   5   7
BRANCH   1  14
ATOM     14  O   UNL     1      44.315   3.360  10.454  0.00  0.00    +0.000 OA
BRANCH  14  15
ATOM     15  C   UNL     1      44.356   3.804   9.097  0.00  0.00    +0.000 C 
BRANCH  15  19
ATOM     16  C   UNL     1      46.832  -0.369   7.699  0.00  0.00    +0.000 C 
ATOM     17  C   UNL     1      46.652   1.118   7.681  0.00  0.00    +0.000 A 
ATOM     18  C   UNL     1      45.625   1.720   8.400  0.00  0.00    +0.000 A 
ATOM     19  C   UNL     1      45.490   3.114   8.376  0.00  0.00    +0.000 A 
ATOM     20  C   UNL     1      46.385   3.850   7.598  0.00  0.00    +0.000 A 
ATOM     21  C   UNL     1      47.376   3.170   6.908  0.00  0.00    +0.000 A 
ATOM     22  N   UNL     1      47.529   1.829   6.934  0.00  0.00    +0.000 NA
ENDBRANCH  15  19
ENDBRANCH  14  15
ENDBRANCH   1  14
TORSDOF 4
ENDMDL
MODEL 5
REMARK VINA RESULT:    -7.329      1.559      2.120
REMARK INTER + INTRA:          -9.800
REMARK INTER:                  -9.192
REMARK INTRA:                  -0.608
REMARK UNBOUND:                -0.757
REMARK  Name = 
REMARK  5 active torsions:
REMARK  status: ('A' for Active; 'I' for Inactive)
REMARK    1  A    between atoms: C_1  and  C_2
REMARK    2  A    between atoms: C_4  and  C_5
REMARK    3  A    between atoms: C_5  and  O_6
REMARK    4  A    between atoms: O_6  and  C_7
REMARK    5  A    between atoms: C_11  and  C_12
REMARK                            x       y       z     vdW  Elec       q    Type
REMARK                         _______ _______ _______ _____ _____    ______ ____
ROOT
ATOM      1  C   UNL     1      44.742   5.624  10.779  0.00  0.00    +0.000 A 
ATOM      2  C   UNL     1      43.691   4.947  11.381  0.00  0.00    +0.000 A 
ATOM      3  N   UNL     1      43.288   3.706  11.031  0.00  0.00    +0.000 NA
ATOM      4  C   UNL     1      43.990   3.103  10.043  0.00  0.00    +0.000 A 
ATOM      5  C   UNL     1      45.077   3.666   9.365  0.00  0.00    +0.000 A 
ATOM      6  C   UNL     1      45.435   4.968   9.762  0.00  0.00    +0.000 A 
ENDROOT
BRANCH   5   7
ATOM      7  C   UNL     1      45.813   2.934   8.308  0.00  0.00    +0.000 A 
ATOM      8  C   UNL     1      46.272   3.586   7.145  0.00  0.00    +0.000 A 
ATOM      9  C   UNL     1      46.957   2.896   6.137  0.00  0.00    +0.000 A 
ATOM     10  C   UNL     1      47.209   1.535   6.275  0.00  0.00    +0.000 A 
ATOM     11  C   UNL     1      46.770   0.880   7.416  0.00  0.00    +0.000 A 
ATOM     12  F   UNL     1      47.016  -0.430   7.557  0.00  0.00    +0.000 F 
ATOM     13  C   UNL     1      46.076   1.557   8.416  0.00  0.00    +0.000 A 
ENDBRANCH   5   7
BRANCH   1  14
ATOM     14  O   UNL     1      45.028   6.859  11.281  0.00  0.00    +0.000 OA
BRANCH  14  15
ATOM     15  C   UNL     1      45.437   6.920  12.648  0.00  0.00    +0.000 C 
BRANCH  15  19
ATOM     16  C   UNL     1      50.242   7.601  11.249  0.00  0.00    +0.000 C 
ATOM     17  C   UNL     1      49.040   7.995  12.054  0.00  0.00    +0.000 A 
ATOM     18  C   UNL     1      47.858   7.266  11.972  0.00  0.00    +0.000 A 
ATOM     19  C   UNL     1      46.756   7.650  12.747  0.00  0.00    +0.000 A 
ATOM     20  C   UNL     1      46.880   8.780  13.557  0.00  0.00    +0.000 A 
ATOM     21  C   UNL     1      48.092   9.452  13.574  0.00  0.00    +0.000 A 
ATOM     22  N   UNL     1      49.168   9.085  12.846  0.00  0.00    +0.000 NA
ENDBRANCH  15  19
ENDBRANCH  14  15
ENDBRANCH   1  14
TORSDOF 4
ENDMDL
MODEL 6
REMARK VINA RESULT:    -7.284      3.000      6.644
REMARK INTER + INTRA:          -9.745
REMARK INTER:                  -9.126
REMARK INTRA:                  -0.619
REMARK UNBOUND:                -0.757
REMARK  Name = 
REMARK  5 active torsions:
REMARK  status: ('A' for Active; 'I' for Inactive)
REMARK    1  A    between atoms: C_1  and  C_2
REMARK    2  A    between atoms: C_4  and  C_5
REMARK    3  A    between atoms: C_5  and  O_6
REMARK    4  A    between atoms: O_6  and  C_7
REMARK    5  A    between atoms: C_11  and  C_12
REMARK                            x       y       z     vdW  Elec       q    Type
REMARK                         _______ _______ _______ _____ _____    ______ ____
ROOT
ATOM      1  C   UNL     1      44.356   4.422  10.816  0.00  0.00    +0.000 A 
ATOM      2  C   UNL     1      43.324   4.638  11.718  0.00  0.00    +0.000 A 
ATOM      3  N   UNL     1      43.445   5.362  12.851  0.00  0.00    +0.000 NA
ATOM      4  C   UNL     1      44.658   5.918  13.082  0.00  0.00    +0.000 A 
ATOM      5  C   UNL     1      45.776   5.792  12.250  0.00  0.00    +0.000 A 
ATOM      6  C   UNL     1      45.590   5.009  11.094  0.00  0.00    +0.000 A 
ENDROOT
BRANCH   5   7
ATOM      7  C   UNL     1      47.066   6.451  12.555  0.00  0.00    +0.000 A 
ATOM      8  C   UNL     1      47.771   7.179  11.574  0.00  0.00    +0.000 A 
ATOM      9  C   UNL     1      48.998   7.793  11.853  0.00  0.00    +0.000 A 
ATOM     10  C   UNL     1      49.545   7.703  13.129  0.00  0.00    +0.000 A 
ATOM     11  C   UNL     1      48.861   6.997  14.108  0.00  0.00    +0.000 A 
ATOM     12  F   UNL     1      49.380   6.912  15.340  0.00  0.00    +0.000 F 
ATOM     13  C   UNL     1      47.648   6.372  13.833  0.00  0.00    +0.000 A 
ENDBRANCH   5   7
BRANCH   1  14
ATOM     14  O   UNL     1      44.045   3.689   9.709  0.00  0.00    +0.000 OA
BRANCH  14  15
ATOM     15  C   UNL     1      44.613   4.118   8.471  0.00  0.00    +0.000 C 
BRANCH  15  19
ATOM     16  C   UNL     1      47.777   2.322   4.969  0.00  0.00    +0.000 C 
ATOM     17  C   UNL     1      47.003   2.166   6.243  0.00  0.00    +0.000 A 
ATOM     18  C   UNL     1      46.188   3.192   6.712  0.00  0.00    +0.000 A 
ATOM     19  C   UNL     1      45.465   3.012   7.898  0.00  0.00    +0.000 A 
ATOM     20  C   UNL     1      45.615   1.806   8.585  0.00  0.00    +0.000 A 
ATOM     21  C   UNL     1      46.452   0.839   8.051  0.00  0.00    +0.000 A 
ATOM     22  N   UNL     1      47.143   0.992   6.901  0.00  0.00    +0.000 NA
ENDBRANCH  15  19
ENDBRANCH  14  15
ENDBRANCH   1  14
TORSDOF 4
ENDMDL
MODEL 7
REMARK VINA RESULT:    -7.215      1.846      2.488
REMARK INTER + INTRA:          -9.659
REMARK INTER:                  -9.264
REMARK INTRA:                  -0.395
REMARK UNBOUND:                -0.757
REMARK  Name = 
REMARK  5 active torsions:
REMARK  status: ('A' for Active; 'I' for Inactive)
REMARK    1  A    between atoms: C_1  and  C_2
REMARK    2  A    between atoms: C_4  and  C_5
REMARK    3  A    between atoms: C_5  and  O_6
REMARK    4  A    between atoms: O_6  and  C_7
REMARK    5  A    between atoms: C_11  and  C_12
REMARK                            x       y       z     vdW  Elec       q    Type
REMARK                         _______ _______ _______ _____ _____    ______ ____
ROOT
ATOM      1  C   UNL     1      45.201   6.190  11.062  0.00  0.00    +0.000 A 
ATOM      2  C   UNL     1      43.853   5.973  11.303  0.00  0.00    +0.000 A 
ATOM      3  N   UNL     1      43.109   5.040  10.671  0.00  0.00    +0.000 NA
ATOM      4  C   UNL     1      43.755   4.267   9.767  0.00  0.00    +0.000 A 
ATOM      5  C   UNL     1      45.112   4.370   9.440  0.00  0.00    +0.000 A 
ATOM      6  C   UNL     1      45.828   5.375  10.119  0.00  0.00    +0.000 A 
ENDROOT
BRANCH   5   7
ATOM      7  C   UNL     1      45.757   3.472   8.456  0.00  0.00    +0.000 A 
ATOM      8  C   UNL     1      46.345   3.973   7.275  0.00  0.00    +0.000 A 
ATOM      9  C   UNL     1      46.944   3.126   6.334  0.00  0.00    +0.000 A 
ATOM     10  C   UNL     1      46.981   1.754   6.559  0.00  0.00    +0.000 A 
ATOM     11  C   UNL     1      46.414   1.245   7.719  0.00  0.00    +0.000 A 
ATOM     12  F   UNL     1      46.452  -0.076   7.943  0.00  0.00    +0.000 F 
ATOM     13  C   UNL     1      45.804   2.080   8.651  0.00  0.00    +0.000 A 
ENDBRANCH   5   7
BRANCH   1  14
ATOM     14  O   UNL     1      45.800   7.156  11.815  0.00  0.00    +0.000 OA
BRANCH  14  15
ATOM     15  C   UNL     1      47.215   7.059  11.980  0.00  0.00    +0.000 C 
BRANCH  15  19
ATOM     16  C   UNL     1      49.545   6.849  16.455  0.00  0.00    +0.000 C 
ATOM     17  C   UNL     1      48.610   6.275  15.434  0.00  0.00    +0.000 A 
ATOM     18  C   UNL     1      48.392   6.926  14.224  0.00  0.00    +0.000 A 
ATOM     19  C   UNL     1      47.524   6.360  13.282  0.00  0.00    +0.000 A 
ATOM     20  C   UNL     1      46.882   5.164  13.612  0.00  0.00    +0.000 A 
ATOM     21  C   UNL     1      47.152   4.585  14.841  0.00  0.00    +0.000 A 
ATOM     22  N   UNL     1      47.999   5.111  15.753  0.00  0.00    +0.000 NA
ENDBRANCH  15  19
ENDBRANCH  14  15
ENDBRANCH   1  14
TORSDOF 4
ENDMDL
MODEL 8
REMARK VINA RESULT:    -6.585      1.590      2.199
REMARK INTER + INTRA:          -8.881
REMARK INTER:                  -8.272
REMARK INTRA:                  -0.610
REMARK UNBOUND:                -0.757
REMARK  Name = 
REMARK  5 active torsions:
REMARK  status: ('A' for Active; 'I' for Inactive)
REMARK    1  A    between atoms: C_1  and  C_2
REMARK    2  A    between atoms: C_4  and  C_5
REMARK    3  A    between atoms: C_5  and  O_6
REMARK    4  A    between atoms: O_6  and  C_7
REMARK    5  A    between atoms: C_11  and  C_12
REMARK                            x       y       z     vdW  Elec       q    Type
REMARK                         _______ _______ _______ _____ _____    ______ ____
ROOT
ATOM      1  C   UNL     1      45.000   6.178  11.442  0.00  0.00    +0.000 A 
ATOM      2  C   UNL     1      43.703   5.865  11.821  0.00  0.00    +0.000 A 
ATOM      3  N   UNL     1      42.973   4.867  11.279  0.00  0.00    +0.000 NA
ATOM      4  C   UNL     1      43.584   4.128  10.323  0.00  0.00    +0.000 A 
ATOM      5  C   UNL     1      44.888   4.326   9.859  0.00  0.00    +0.000 A 
ATOM      6  C   UNL     1      45.590   5.394  10.450  0.00  0.00    +0.000 A 
ENDROOT
BRANCH   5   7
ATOM      7  C   UNL     1      45.499   3.460   8.825  0.00  0.00    +0.000 A 
ATOM      8  C   UNL     1      45.654   2.072   9.025  0.00  0.00    +0.000 A 
ATOM      9  C   UNL     1      46.244   1.250   8.056  0.00  0.00    +0.000 A 
ATOM     10  C   UNL     1      46.683   1.797   6.855  0.00  0.00    +0.000 A 
ATOM     11  C   UNL     1      46.531   3.160   6.639  0.00  0.00    +0.000 A 
ATOM     12  F   UNL     1      46.947   3.692   5.481  0.00  0.00    +0.000 F 
ATOM     13  C   UNL     1      45.959   3.985   7.604  0.00  0.00    +0.000 A 
ENDBRANCH   5   7
BRANCH   1  14
ATOM     14  O   UNL     1      45.596   7.201  12.119  0.00  0.00    +0.000 OA
BRANCH  14  15
ATOM     15  C   UNL     1      46.705   6.863  12.952  0.00  0.00    +0.000 C 
BRANCH  15  19
ATOM     16  C   UNL     1      48.806  10.941  10.841  0.00  0.00    +0.000 C 
ATOM     17  C   UNL     1      48.917   9.626  11.551  0.00  0.00    +0.000 A 
ATOM     18  C   UNL     1      47.779   8.895  11.878  0.00  0.00    +0.000 A 
ATOM     19  C   UNL     1      47.914   7.662  12.529  0.00  0.00    +0.000 A 
ATOM     20  C   UNL     1      49.200   7.225  12.853  0.00  0.00    +0.000 A 
ATOM     21  C   UNL     1      50.279   8.018  12.495  0.00  0.00    +0.000 A 
ATOM     22  N   UNL     1      50.165   9.200  11.854  0.00  0.00    +0.000 NA
ENDBRANCH  15  19
ENDBRANCH  14  15
ENDBRANCH   1  14
TORSDOF 4
ENDMDL
MODEL 9
REMARK VINA RESULT:    -6.392      3.508      7.772
REMARK INTER + INTRA:          -8.643
REMARK INTER:                  -7.943
REMARK INTRA:                  -0.701
REMARK UNBOUND:                -0.757
REMARK  Name = 
REMARK  5 active torsions:
REMARK  status: ('A' for Active; 'I' for Inactive)
REMARK    1  A    between atoms: C_1  and  C_2
REMARK    2  A    between atoms: C_4  and  C_5
REMARK    3  A    between atoms: C_5  and  O_6
REMARK    4  A    between atoms: O_6  and  C_7
REMARK    5  A    between atoms: C_11  and  C_12
REMARK                            x       y       z     vdW  Elec       q    Type
REMARK                         _______ _______ _______ _____ _____    ______ ____
ROOT
ATOM      1  C   UNL     1      47.563   6.720  12.376  0.00  0.00    +0.000 A 
ATOM      2  C   UNL     1      48.637   7.578  12.189  0.00  0.00    +0.000 A 
ATOM      3  N   UNL     1      49.551   7.869  13.139  0.00  0.00    +0.000 NA
ATOM      4  C   UNL     1      49.393   7.251  14.334  0.00  0.00    +0.000 A 
ATOM      5  C   UNL     1      48.366   6.355  14.650  0.00  0.00    +0.000 A 
ATOM      6  C   UNL     1      47.435   6.108  13.623  0.00  0.00    +0.000 A 
ENDROOT
BRANCH   5   7
ATOM      7  C   UNL     1      48.272   5.697  15.973  0.00  0.00    +0.000 A 
ATOM      8  C   UNL     1      48.875   6.257  17.118  0.00  0.00    +0.000 A 
ATOM      9  C   UNL     1      48.802   5.631  18.370  0.00  0.00    +0.000 A 
ATOM     10  C   UNL     1      48.110   4.433  18.507  0.00  0.00    +0.000 A 
ATOM     11  C   UNL     1      47.505   3.872  17.392  0.00  0.00    +0.000 A 
ATOM     12  F   UNL     1      46.832   2.720  17.519  0.00  0.00    +0.000 F 
ATOM     13  C   UNL     1      47.587   4.481  16.142  0.00  0.00    +0.000 A 
ENDBRANCH   5   7
BRANCH   1  14
ATOM     14  O   UNL     1      46.756   6.520  11.295  0.00  0.00    +0.000 OA
BRANCH  14  15
ATOM     15  C   UNL     1      45.351   6.670  11.503  0.00  0.00    +0.000 C 
BRANCH  15  19
ATOM     16  C   UNL     1      44.600   2.399   8.916  0.00  0.00    +0.000 C 
ATOM     17  C   UNL     1      44.336   3.281  10.098  0.00  0.00    +0.000 A 
ATOM     18  C   UNL     1      44.946   4.527  10.207  0.00  0.00    +0.000 A 
ATOM     19  C   UNL     1      44.669   5.336  11.317  0.00  0.00    +0.000 A 
ATOM     20  C   UNL     1      43.804   4.841  12.295  0.00  0.00    +0.000 A 
ATOM     21  C   UNL     1      43.244   3.588  12.110  0.00  0.00    +0.000 A 
ATOM     22  N   UNL     1      43.489   2.803  11.039  0.00  0.00    +0.000 NA
ENDBRANCH  15  19
ENDBRANCH  14  15
ENDBRANCH   1  14
TORSDOF 4
ENDMDL
