MODEL 1
REMARK VINA RESULT:    -8.034      0.000      0.000
REMARK INTER + INTRA:         -11.283
REMARK INTER:                 -10.382
REMARK INTRA:                  -0.900
REMARK UNBOUND:                -0.900
REMARK  Name = 
REMARK  6 active torsions:
REMARK  status: ('A' for Active; 'I' for Inactive)
REMARK    1  A    between atoms: C_1  and  C_2
REMARK    2  A    between atoms: C_2  and  N_3
REMARK    3  A    between atoms: C_2  and  C_16
REMARK    4  A    between atoms: C_4  and  C_6
REMARK    5  A    between atoms: C_19  and  O_20
REMARK    6  A    between atoms: O_20  and  C_21
REMARK                            x       y       z     vdW  Elec       q    Type
REMARK                         _______ _______ _______ _____ _____    ______ ____
ROOT
ATOM      1  C   UNL     1      43.837   2.774  10.998  0.00  0.00    +0.000 C 
ATOM      2  C   UNL     1      44.201   3.854   9.973  0.00  0.00    +0.000 C 
ENDROOT
BRANCH   2   3
ATOM      3  C   UNL     1      45.163   3.267   8.940  0.00  0.00    +0.000 A 
ATOM      4  C   UNL     1      45.810   4.106   8.028  0.00  0.00    +0.000 A 
ATOM      5  C   UNL     1      46.701   3.561   7.109  0.00  0.00    +0.000 A 
ATOM      6  C   UNL     1      46.958   2.195   7.132  0.00  0.00    +0.000 A 
ATOM      7  C   UNL     1      46.241   1.424   8.037  0.00  0.00    +0.000 A 
ATOM      8  N   UNL     1      45.356   1.923   8.938  0.00  0.00    +0.000 NA
BRANCH   6   9
ATOM      9  O   UNL     1      47.817   1.557   6.274  0.00  0.00    +0.000 OA
BRANCH   9  10
ATOM     10  C   UNL     1      47.280   0.953   5.144  0.00  0.00    +0.000 A 
ATOM     11  N   UNL     1      47.393  -0.379   4.980  0.00  0.00    +0.000 NA
ATOM     12  C   UNL     1      46.869  -0.889   3.852  0.00  0.00    +0.000 A 
ATOM     13  C   UNL     1      46.221  -0.129   2.910  0.00  0.00    +0.000 A 
ATOM     14  C   UNL     1      46.133   1.215   3.189  0.00  0.00    +0.000 A 
ATOM     15  N   UNL     1      46.652   1.783   4.294  0.00  0.00    +0.000 NA
ENDBRANCH   9  10
ENDBRANCH   6   9
ENDBRANCH   2   3
BRANCH   2  16
ATOM     16  N   UNL     1      44.800   5.035  10.589  0.00  0.00    +0.000 N 
ATOM     17  C   UNL     1      44.071   6.027  11.194  0.00  0.00    +0.000 C 
ATOM     18  O   UNL     1      42.853   5.980  11.325  0.00  0.00    +0.000 OA
ATOM     19  H   UNL     1      45.694   5.306  10.193  0.00  0.00    +0.000 HD
BRANCH  17  20
ATOM     20  C   UNL     1      44.853   7.131  11.764  0.00  0.00    +0.000 A 
ATOM     21  C   UNL     1      44.577   8.441  11.390  0.00  0.00    +0.000 A 
ATOM     22  S   UNL     1      45.543   9.595  12.192  0.00  0.00    +0.000 S 
ATOM     23  C   UNL     1      46.397   8.383  13.026  0.00  0.00    +0.000 A 
ATOM     24  N   UNL     1      47.408   8.698  13.882  0.00  0.00    +0.000 NA
ATOM     25  C   UNL     1      47.992   7.677  14.413  0.00  0.00    +0.000 A 
ATOM     26  N   UNL     1      47.652   6.370  14.179  0.00  0.00    +0.000 N 
ATOM     27  C   UNL     1      46.609   6.007  13.362  0.00  0.00    +0.000 A 
ATOM     28  O   UNL     1      46.277   4.835  13.229  0.00  0.00    +0.000 OA
ATOM     29  C   UNL     1      45.937   7.117  12.716  0.00  0.00    +0.000 A 
ATOM     30  H   UNL     1      48.140   5.615  14.641  0.00  0.00    +0.000 HD
ENDBRANCH  17  20
ENDBRANCH   2  16
TORSDOF 5
ENDMDL
MODEL 2
REMARK VINA RESULT:    -7.820      2.842      5.241
REMARK INTER + INTRA:         -11.007
REMARK INTER:                 -10.255
REMARK INTRA:                  -0.751
REMARK UNBOUND:                -0.900
REMARK  Name = 
REMARK  6 active torsions:
REMARK  status: ('A' for Active; 'I' for Inactive)
REMARK    1  A    between atoms: C_1  and  C_2
REMARK    2  A    between atoms: C_2  and  N_3
REMARK    3  A    between atoms: C_2  and  C_16
REMARK    4  A    between atoms: C_4  and  C_6
REMARK    5  A    between atoms: C_19  and  O_20
REMARK    6  A    between atoms: O_20  and  C_21
REMARK                            x       y       z     vdW  Elec       q    Type
REMARK                         _______ _______ _______ _____ _____    ______ ____
ROOT
ATOM      1  C   UNL     1      45.435   8.916  12.926  0.00  0.00    +0.000 C 
ATOM      2  C   UNL     1      46.482   7.821  12.690  0.00  0.00    +0.000 C 
ENDROOT
BRANCH   2   3
ATOM      3  C   UNL     1      45.858   6.698  11.861  0.00  0.00    +0.000 A 
ATOM      4  C   UNL     1      44.719   6.034  12.326  0.00  0.00    +0.000 A 
ATOM      5  C   UNL     1      44.148   5.030  11.549  0.00  0.00    +0.000 A 
ATOM      6  C   UNL     1      44.699   4.726  10.310  0.00  0.00    +0.000 A 
ATOM      7  C   UNL     1      45.856   5.398   9.941  0.00  0.00    +0.000 A 
ATOM      8  N   UNL     1      46.445   6.374  10.681  0.00  0.00    +0.000 NA
BRANCH   6   9
ATOM      9  O   UNL     1      44.215   3.758   9.467  0.00  0.00    +0.000 OA
BRANCH   9  10
ATOM     10  C   UNL     1      45.107   3.153   8.590  0.00  0.00    +0.000 A 
ATOM     11  N   UNL     1      45.525   3.819   7.496  0.00  0.00    +0.000 NA
ATOM     12  C   UNL     1      46.368   3.161   6.682  0.00  0.00    +0.000 A 
ATOM     13  C   UNL     1      46.825   1.891   6.934  0.00  0.00    +0.000 A 
ATOM     14  C   UNL     1      46.362   1.313   8.094  0.00  0.00    +0.000 A 
ATOM     15  N   UNL     1      45.504   1.917   8.938  0.00  0.00    +0.000 NA
ENDBRANCH   9  10
ENDBRANCH   6   9
ENDBRANCH   2   3
BRANCH   2  16
ATOM     16  N   UNL     1      47.017   7.277  13.935  0.00  0.00    +0.000 N 
ATOM     17  C   UNL     1      48.295   6.796  14.066  0.00  0.00    +0.000 C 
ATOM     18  O   UNL     1      49.122   6.839  13.163  0.00  0.00    +0.000 OA
ATOM     19  H   UNL     1      46.317   6.878  14.552  0.00  0.00    +0.000 HD
BRANCH  17  20
ATOM     20  C   UNL     1      48.651   6.298  15.400  0.00  0.00    +0.000 A 
ATOM     21  C   UNL     1      49.640   6.939  16.137  0.00  0.00    +0.000 A 
ATOM     22  S   UNL     1      49.882   6.261  17.684  0.00  0.00    +0.000 S 
ATOM     23  C   UNL     1      48.713   5.057  17.400  0.00  0.00    +0.000 A 
ATOM     24  N   UNL     1      48.440   4.108  18.337  0.00  0.00    +0.000 NA
ATOM     25  C   UNL     1      47.561   3.237  17.971  0.00  0.00    +0.000 A 
ATOM     26  N   UNL     1      46.920   3.232  16.760  0.00  0.00    +0.000 N 
ATOM     27  C   UNL     1      47.128   4.197  15.803  0.00  0.00    +0.000 A 
ATOM     28  O   UNL     1      46.487   4.213  14.759  0.00  0.00    +0.000 OA
ATOM     29  C   UNL     1      48.130   5.184  16.154  0.00  0.00    +0.000 A 
ATOM     30  H   UNL     1      46.228   2.529  16.540  0.00  0.00    +0.000 HD
ENDBRANCH  17  20
ENDBRANCH   2  16
TORSDOF 5
ENDMDL
MODEL 3
REMARK VINA RESULT:    -7.165      4.520      9.173
REMARK INTER + INTRA:         -10.160
REMARK INTER:                  -9.337
REMARK INTRA:                  -0.823
REMARK UNBOUND:                -0.900
REMARK  Name = 
REMARK  6 active torsions:
REMARK  status: ('A' for Active; 'I' for Inactive)
REMARK    1  A    between atoms: C_1  and  C_2
REMARK    2  A    between atoms: C_2  and  N_3
REMARK    3  A    between atoms: C_2  and  C_16
REMARK    4  A    between atoms: C_4  and  C_6
REMARK    5  A    between atoms: C_19  and  O_20
REMARK    6  A    between atoms: O_20  and  C_21
REMARK                            x       y       z     vdW  Elec       q    Type
REMARK                         _______ _______ _______ _____ _____    ______ ____
ROOT
ATOM      1  C   UNL     1      49.599   7.974  12.174  0.00  0.00    +0.000 C 
ATOM      2  C   UNL     1      48.372   7.485  12.952  0.00  0.00    +0.000 C 
ENDROOT
BRANCH   2   3
ATOM      3  C   UNL     1      48.826   6.860  14.271  0.00  0.00    +0.000 A 
ATOM      4  C   UNL     1      50.010   7.288  14.878  0.00  0.00    +0.000 A 
ATOM      5  C   UNL     1      50.400   6.728  16.090  0.00  0.00    +0.000 A 
ATOM      6  C   UNL     1      49.590   5.774  16.695  0.00  0.00    +0.000 A 
ATOM      7  C   UNL     1      48.455   5.369  16.007  0.00  0.00    +0.000 A 
ATOM      8  N   UNL     1      48.053   5.887  14.817  0.00  0.00    +0.000 NA
BRANCH   6   9
ATOM      9  O   UNL     1      49.878   5.160  17.887  0.00  0.00    +0.000 OA
BRANCH   9  10
ATOM     10  C   UNL     1      50.720   4.054  17.864  0.00  0.00    +0.000 A 
ATOM     11  N   UNL     1      51.954   4.141  18.397  0.00  0.00    +0.000 NA
ATOM     12  C   UNL     1      52.718   3.039  18.318  0.00  0.00    +0.000 A 
ATOM     13  C   UNL     1      52.289   1.860  17.760  0.00  0.00    +0.000 A 
ATOM     14  C   UNL     1      51.002   1.869  17.274  0.00  0.00    +0.000 A 
ATOM     15  N   UNL     1      50.196   2.947  17.311  0.00  0.00    +0.000 NA
ENDBRANCH   9  10
ENDBRANCH   6   9
ENDBRANCH   2   3
BRANCH   2  16
ATOM     16  N   UNL     1      47.574   6.523  12.198  0.00  0.00    +0.000 N 
ATOM     17  C   UNL     1      46.339   6.806  11.673  0.00  0.00    +0.000 C 
ATOM     18  O   UNL     1      45.821   7.915  11.739  0.00  0.00    +0.000 OA
ATOM     19  H   UNL     1      47.755   5.552  12.436  0.00  0.00    +0.000 HD
BRANCH  17  20
ATOM     20  C   UNL     1      45.696   5.710  10.939  0.00  0.00    +0.000 A 
ATOM     21  C   UNL     1      45.839   5.623   9.559  0.00  0.00    +0.000 A 
ATOM     22  S   UNL     1      45.075   4.258   8.880  0.00  0.00    +0.000 S 
ATOM     23  C   UNL     1      44.484   3.765  10.398  0.00  0.00    +0.000 A 
ATOM     24  N   UNL     1      43.709   2.652  10.523  0.00  0.00    +0.000 NA
ATOM     25  C   UNL     1      43.300   2.422  11.725  0.00  0.00    +0.000 A 
ATOM     26  N   UNL     1      43.603   3.192  12.817  0.00  0.00    +0.000 N 
ATOM     27  C   UNL     1      44.420   4.296  12.746  0.00  0.00    +0.000 A 
ATOM     28  O   UNL     1      44.736   4.924  13.750  0.00  0.00    +0.000 OA
ATOM     29  C   UNL     1      44.882   4.616  11.411  0.00  0.00    +0.000 A 
ATOM     30  H   UNL     1      43.263   2.948  13.736  0.00  0.00    +0.000 HD
ENDBRANCH  17  20
ENDBRANCH   2  16
TORSDOF 5
ENDMDL
MODEL 4
REMARK VINA RESULT:    -7.081      2.647      3.933
REMARK INTER + INTRA:         -10.051
REMARK INTER:                  -9.130
REMARK INTRA:                  -0.922
REMARK UNBOUND:                -0.900
REMARK  Name = 
REMARK  6 active torsions:
REMARK  status: ('A' for Active; 'I' for Inactive)
REMARK    1  A    between atoms: C_1  and  C_2
REMARK    2  A    between atoms: C_2  and  N_3
REMARK    3  A    between atoms: C_2  and  C_16
REMARK    4  A    between atoms: C_4  and  C_6
REMARK    5  A    between atoms: C_19  and  O_20
REMARK    6  A    between atoms: O_20  and  C_21
REMARK                            x       y       z     vdW  Elec       q    Type
REMARK                         _______ _______ _______ _____ _____    ______ ____
ROOT
ATOM      1  C   UNL     1      46.490   4.682  14.347  0.00  0.00    +0.000 C 
ATOM      2  C   UNL     1      46.121   5.745  13.306  0.00  0.00    +0.000 C 
ENDROOT
BRANCH   2   3
ATOM      3  C   UNL     1      45.710   5.055  12.005  0.00  0.00    +0.000 A 
ATOM      4  C   UNL     1      45.805   5.740  10.789  0.00  0.00    +0.000 A 
ATOM      5  C   UNL     1      45.452   5.092   9.610  0.00  0.00    +0.000 A 
ATOM      6  C   UNL     1      45.040   3.765   9.654  0.00  0.00    +0.000 A 
ATOM      7  C   UNL     1      44.928   3.171  10.904  0.00  0.00    +0.000 A 
ATOM      8  N   UNL     1      45.254   3.779  12.074  0.00  0.00    +0.000 NA
BRANCH   6   9
ATOM      9  O   UNL     1      44.670   3.034   8.555  0.00  0.00    +0.000 OA
BRANCH   9  10
ATOM     10  C   UNL     1      45.676   2.522   7.743  0.00  0.00    +0.000 A 
ATOM     11  N   UNL     1      46.280   1.365   8.078  0.00  0.00    +0.000 NA
ATOM     12  C   UNL     1      47.258   0.944   7.258  0.00  0.00    +0.000 A 
ATOM     13  C   UNL     1      47.628   1.612   6.117  0.00  0.00    +0.000 A 
ATOM     14  C   UNL     1      46.926   2.765   5.851  0.00  0.00    +0.000 A 
ATOM     15  N   UNL     1      45.948   3.244   6.644  0.00  0.00    +0.000 NA
ENDBRANCH   9  10
ENDBRANCH   6   9
ENDBRANCH   2   3
BRANCH   2  16
ATOM     16  N   UNL     1      47.212   6.681  13.046  0.00  0.00    +0.000 N 
ATOM     17  C   UNL     1      47.068   8.044  13.088  0.00  0.00    +0.000 C 
ATOM     18  O   UNL     1      46.023   8.598  13.408  0.00  0.00    +0.000 OA
ATOM     19  H   UNL     1      47.936   6.319  12.434  0.00  0.00    +0.000 HD
BRANCH  17  20
ATOM     20  C   UNL     1      48.283   8.818  12.806  0.00  0.00    +0.000 A 
ATOM     21  C   UNL     1      48.227   9.903  11.938  0.00  0.00    +0.000 A 
ATOM     22  S   UNL     1      49.715  10.719  11.772  0.00  0.00    +0.000 S 
ATOM     23  C   UNL     1      50.496   9.622  12.812  0.00  0.00    +0.000 A 
ATOM     24  N   UNL     1      51.825   9.736  13.085  0.00  0.00    +0.000 NA
ATOM     25  C   UNL     1      52.291   8.813  13.857  0.00  0.00    +0.000 A 
ATOM     26  N   UNL     1      51.550   7.792  14.392  0.00  0.00    +0.000 N 
ATOM     27  C   UNL     1      50.198   7.664  14.183  0.00  0.00    +0.000 A 
ATOM     28  O   UNL     1      49.545   6.785  14.734  0.00  0.00    +0.000 OA
ATOM     29  C   UNL     1      49.630   8.661  13.297  0.00  0.00    +0.000 A 
ATOM     30  H   UNL     1      51.973   7.108  15.004  0.00  0.00    +0.000 HD
ENDBRANCH  17  20
ENDBRANCH   2  16
TORSDOF 5
ENDMDL
MODEL 5
REMARK VINA RESULT:    -7.072      4.875     11.426
REMARK INTER + INTRA:         -10.039
REMARK INTER:                  -8.962
REMARK INTRA:                  -1.078
REMARK UNBOUND:                -0.900
REMARK  Name = 
REMARK  6 active torsions:
REMARK  status: ('A' for Active; 'I' for Inactive)
REMARK    1  A    between atoms: C_1  and  C_2
REMARK    2  A    between atoms: C_2  and  N_3
REMARK    3  A    between atoms: C_2  and  C_16
REMARK    4  A    between atoms: C_4  and  C_6
REMARK    5  A    between atoms: C_19  and  O_20
REMARK    6  A    between atoms: O_20  and  C_21
REMARK                            x       y       z     vdW  Elec       q    Type
REMARK                         _______ _______ _______ _____ _____    ______ ____
ROOT
ATOM      1  C   UNL     1      47.618   3.162  16.947  0.00  0.00    +0.000 C 
ATOM      2  C   UNL     1      48.002   4.483  16.270  0.00  0.00    +0.000 C 
ENDROOT
BRANCH   2   3
ATOM      3  C   UNL     1      48.120   5.577  17.330  0.00  0.00    +0.000 A 
ATOM      4  C   UNL     1      47.392   5.481  18.520  0.00  0.00    +0.000 A 
ATOM      5  C   UNL     1      47.528   6.472  19.487  0.00  0.00    +0.000 A 
ATOM      6  C   UNL     1      48.409   7.525  19.270  0.00  0.00    +0.000 A 
ATOM      7  C   UNL     1      49.060   7.573  18.044  0.00  0.00    +0.000 A 
ATOM      8  N   UNL     1      48.940   6.629  17.075  0.00  0.00    +0.000 NA
BRANCH   6   9
ATOM      9  O   UNL     1      48.619   8.551  20.155  0.00  0.00    +0.000 OA
BRANCH   9  10
ATOM     10  C   UNL     1      47.513   9.271  20.593  0.00  0.00    +0.000 A 
ATOM     11  N   UNL     1      47.081   9.126  21.860  0.00  0.00    +0.000 NA
ATOM     12  C   UNL     1      45.993   9.837  22.205  0.00  0.00    +0.000 A 
ATOM     13  C   UNL     1      45.351  10.697  21.350  0.00  0.00    +0.000 A 
ATOM     14  C   UNL     1      45.893  10.795  20.089  0.00  0.00    +0.000 A 
ATOM     15  N   UNL     1      46.970  10.096  19.683  0.00  0.00    +0.000 NA
ENDBRANCH   9  10
ENDBRANCH   6   9
ENDBRANCH   2   3
BRANCH   2  16
ATOM     16  N   UNL     1      47.044   4.888  15.246  0.00  0.00    +0.000 N 
ATOM     17  C   UNL     1      47.394   5.555  14.099  0.00  0.00    +0.000 C 
ATOM     18  O   UNL     1      48.555   5.815  13.804  0.00  0.00    +0.000 OA
ATOM     19  H   UNL     1      46.102   5.046  15.592  0.00  0.00    +0.000 HD
BRANCH  17  20
ATOM     20  C   UNL     1      46.289   5.870  13.186  0.00  0.00    +0.000 A 
ATOM     21  C   UNL     1      45.983   7.196  12.902  0.00  0.00    +0.000 A 
ATOM     22  S   UNL     1      44.711   7.375  11.780  0.00  0.00    +0.000 S 
ATOM     23  C   UNL     1      44.492   5.691  11.675  0.00  0.00    +0.000 A 
ATOM     24  N   UNL     1      43.519   5.156  10.887  0.00  0.00    +0.000 NA
ATOM     25  C   UNL     1      43.444   3.869  10.936  0.00  0.00    +0.000 A 
ATOM     26  N   UNL     1      44.256   3.064  11.691  0.00  0.00    +0.000 N 
ATOM     27  C   UNL     1      45.281   3.556  12.464  0.00  0.00    +0.000 A 
ATOM     28  O   UNL     1      46.041   2.810  13.070  0.00  0.00    +0.000 OA
ATOM     29  C   UNL     1      45.390   5.001  12.467  0.00  0.00    +0.000 A 
ATOM     30  H   UNL     1      44.155   2.059  11.673  0.00  0.00    +0.000 HD
ENDBRANCH  17  20
ENDBRANCH   2  16
TORSDOF 5
ENDMDL
MODEL 6
REMARK VINA RESULT:    -7.039      1.544      2.570
REMARK INTER + INTRA:          -9.997
REMARK INTER:                  -9.843
REMARK INTRA:                  -0.153
REMARK UNBOUND:                -0.900
REMARK  Name = 
REMARK  6 active torsions:
REMARK  status: ('A' for Active; 'I' for Inactive)
REMARK    1  A    between atoms: C_1  and  C_2
REMARK    2  A    between atoms: C_2  and  N_3
REMARK    3  A    between atoms: C_2  and  C_16
REMARK    4  A    between atoms: C_4  and  C_6
REMARK    5  A    between atoms: C_19  and  O_20
REMARK    6  A    between atoms: O_20  and  C_21
REMARK                            x       y       z     vdW  Elec       q    Type
REMARK                         _______ _______ _______ _____ _____    ______ ____
ROOT
ATOM      1  C   UNL     1      43.969   3.129  10.888  0.00  0.00    +0.000 C 
ATOM      2  C   UNL     1      44.346   4.086   9.750  0.00  0.00    +0.000 C 
ENDROOT
BRANCH   2   3
ATOM      3  C   UNL     1      45.280   3.368   8.776  0.00  0.00    +0.000 A 
ATOM      4  C   UNL     1      45.440   1.981   8.853  0.00  0.00    +0.000 A 
ATOM      5  C   UNL     1      46.274   1.337   7.944  0.00  0.00    +0.000 A 
ATOM      6  C   UNL     1      46.910   2.078   6.954  0.00  0.00    +0.000 A 
ATOM      7  C   UNL     1      46.736   3.455   6.974  0.00  0.00    +0.000 A 
ATOM      8  N   UNL     1      45.939   4.115   7.854  0.00  0.00    +0.000 NA
BRANCH   6   9
ATOM      9  O   UNL     1      47.750   1.545   6.011  0.00  0.00    +0.000 OA
BRANCH   9  10
ATOM     10  C   UNL     1      47.181   0.944   4.895  0.00  0.00    +0.000 A 
ATOM     11  N   UNL     1      46.498   1.693   4.008  0.00  0.00    +0.000 NA
ATOM     12  C   UNL     1      45.956   1.039   2.966  0.00  0.00    +0.000 A 
ATOM     13  C   UNL     1      46.096  -0.312   2.766  0.00  0.00    +0.000 A 
ATOM     14  C   UNL     1      46.840  -0.977   3.714  0.00  0.00    +0.000 A 
ATOM     15  N   UNL     1      47.392  -0.378   4.786  0.00  0.00    +0.000 NA
ENDBRANCH   9  10
ENDBRANCH   6   9
ENDBRANCH   2   3
BRANCH   2  16
ATOM     16  N   UNL     1      44.980   5.309  10.232  0.00  0.00    +0.000 N 
ATOM     17  C   UNL     1      45.612   5.410  11.446  0.00  0.00    +0.000 C 
ATOM     18  O   UNL     1      45.753   4.461  12.208  0.00  0.00    +0.000 OA
ATOM     19  H   UNL     1      44.581   6.164   9.856  0.00  0.00    +0.000 HD
BRANCH  17  20
ATOM     20  C   UNL     1      46.196   6.721  11.750  0.00  0.00    +0.000 A 
ATOM     21  C   UNL     1      47.533   6.815  12.118  0.00  0.00    +0.000 A 
ATOM     22  S   UNL     1      48.057   8.418  12.377  0.00  0.00    +0.000 S 
ATOM     23  C   UNL     1      46.504   9.035  12.057  0.00  0.00    +0.000 A 
ATOM     24  N   UNL     1      46.249  10.371  12.134  0.00  0.00    +0.000 NA
ATOM     25  C   UNL     1      45.021  10.691  11.905  0.00  0.00    +0.000 A 
ATOM     26  N   UNL     1      44.024   9.804  11.594  0.00  0.00    +0.000 N 
ATOM     27  C   UNL     1      44.244   8.454  11.458  0.00  0.00    +0.000 A 
ATOM     28  O   UNL     1      43.352   7.692  11.105  0.00  0.00    +0.000 OA
ATOM     29  C   UNL     1      45.605   8.037  11.735  0.00  0.00    +0.000 A 
ATOM     30  H   UNL     1      43.083  10.122  11.410  0.00  0.00    +0.000 HD
ENDBRANCH  17  20
ENDBRANCH   2  16
TORSDOF 5
ENDMDL
MODEL 7
REMARK VINA RESULT:    -7.032      3.945      6.624
REMARK INTER + INTRA:          -9.988
REMARK INTER:                  -9.026
REMARK INTRA:                  -0.962
REMARK UNBOUND:                -0.900
REMARK  Name = 
REMARK  6 active torsions:
REMARK  status: ('A' for Active; 'I' for Inactive)
REMARK    1  A    between atoms: C_1  and  C_2
REMARK    2  A    between atoms: C_2  and  N_3
REMARK    3  A    between atoms: C_2  and  C_16
REMARK    4  A    between atoms: C_4  and  C_6
REMARK    5  A    between atoms: C_19  and  O_20
REMARK    6  A    between atoms: O_20  and  C_21
REMARK                            x       y       z     vdW  Elec       q    Type
REMARK                         _______ _______ _______ _____ _____    ______ ____
ROOT
ATOM      1  C   UNL     1      47.759   8.833  14.093  0.00  0.00    +0.000 C 
ATOM      2  C   UNL     1      48.113   7.341  14.068  0.00  0.00    +0.000 C 
ENDROOT
BRANCH   2   3
ATOM      3  C   UNL     1      47.165   6.613  13.115  0.00  0.00    +0.000 A 
ATOM      4  C   UNL     1      46.656   5.357  13.457  0.00  0.00    +0.000 A 
ATOM      5  C   UNL     1      45.774   4.717  12.591  0.00  0.00    +0.000 A 
ATOM      6  C   UNL     1      45.388   5.350  11.416  0.00  0.00    +0.000 A 
ATOM      7  C   UNL     1      45.974   6.575  11.126  0.00  0.00    +0.000 A 
ATOM      8  N   UNL     1      46.846   7.221  11.944  0.00  0.00    +0.000 NA
BRANCH   6   9
ATOM      9  O   UNL     1      44.527   4.810  10.495  0.00  0.00    +0.000 OA
BRANCH   9  10
ATOM     10  C   UNL     1      45.048   3.938   9.547  0.00  0.00    +0.000 A 
ATOM     11  N   UNL     1      44.970   2.608   9.748  0.00  0.00    +0.000 NA
ATOM     12  C   UNL     1      45.515   1.828   8.799  0.00  0.00    +0.000 A 
ATOM     13  C   UNL     1      46.101   2.321   7.660  0.00  0.00    +0.000 A 
ATOM     14  C   UNL     1      46.100   3.692   7.538  0.00  0.00    +0.000 A 
ATOM     15  N   UNL     1      45.584   4.523   8.463  0.00  0.00    +0.000 NA
ENDBRANCH   9  10
ENDBRANCH   6   9
ENDBRANCH   2   3
BRANCH   2  16
ATOM     16  N   UNL     1      48.051   6.727  15.391  0.00  0.00    +0.000 N 
ATOM     17  C   UNL     1      49.156   6.304  16.085  0.00  0.00    +0.000 C 
ATOM     18  O   UNL     1      50.302   6.461  15.679  0.00  0.00    +0.000 OA
ATOM     19  H   UNL     1      47.179   6.244  15.588  0.00  0.00    +0.000 HD
BRANCH  17  20
ATOM     20  C   UNL     1      48.891   5.718  17.404  0.00  0.00    +0.000 A 
ATOM     21  C   UNL     1      49.137   4.368  17.624  0.00  0.00    +0.000 A 
ATOM     22  S   UNL     1      48.828   3.872  19.227  0.00  0.00    +0.000 S 
ATOM     23  C   UNL     1      48.306   5.431  19.667  0.00  0.00    +0.000 A 
ATOM     24  N   UNL     1      47.865   5.695  20.928  0.00  0.00    +0.000 NA
ATOM     25  C   UNL     1      47.464   6.908  21.107  0.00  0.00    +0.000 A 
ATOM     26  N   UNL     1      47.472   7.886  20.148  0.00  0.00    +0.000 N 
ATOM     27  C   UNL     1      47.951   7.679  18.876  0.00  0.00    +0.000 A 
ATOM     28  O   UNL     1      48.017   8.590  18.060  0.00  0.00    +0.000 OA
ATOM     29  C   UNL     1      48.387   6.322  18.614  0.00  0.00    +0.000 A 
ATOM     30  H   UNL     1      47.157   8.824  20.358  0.00  0.00    +0.000 HD
ENDBRANCH  17  20
ENDBRANCH   2  16
TORSDOF 5
ENDMDL
MODEL 8
REMARK VINA RESULT:    -6.997      3.039      4.989
REMARK INTER + INTRA:          -9.942
REMARK INTER:                  -9.297
REMARK INTRA:                  -0.645
REMARK UNBOUND:                -0.900
REMARK  Name = 
REMARK  6 active torsions:
REMARK  status: ('A' for Active; 'I' for Inactive)
REMARK    1  A    between atoms: C_1  and  C_2
REMARK    2  A    between atoms: C_2  and  N_3
REMARK    3  A    between atoms: C_2  and  C_16
REMARK    4  A    between atoms: C_4  and  C_6
REMARK    5  A    between atoms: C_19  and  O_20
REMARK    6  A    between atoms: O_20  and  C_21
REMARK                            x       y       z     vdW  Elec       q    Type
REMARK                         _______ _______ _______ _____ _____    ______ ____
ROOT
ATOM      1  C   UNL     1      45.258   8.538  12.758  0.00  0.00    +0.000 C 
ATOM      2  C   UNL     1      46.275   7.404  12.583  0.00  0.00    +0.000 C 
ENDROOT
BRANCH   2   3
ATOM      3  C   UNL     1      45.746   6.405  11.554  0.00  0.00    +0.000 A 
ATOM      4  C   UNL     1      44.596   5.659  11.831  0.00  0.00    +0.000 A 
ATOM      5  C   UNL     1      44.111   4.771  10.875  0.00  0.00    +0.000 A 
ATOM      6  C   UNL     1      44.757   4.664   9.649  0.00  0.00    +0.000 A 
ATOM      7  C   UNL     1      45.917   5.405   9.470  0.00  0.00    +0.000 A 
ATOM      8  N   UNL     1      46.424   6.270  10.387  0.00  0.00    +0.000 NA
BRANCH   6   9
ATOM      9  O   UNL     1      44.363   3.823   8.640  0.00  0.00    +0.000 OA
BRANCH   9  10
ATOM     10  C   UNL     1      45.337   3.056   8.012  0.00  0.00    +0.000 A 
ATOM     11  N   UNL     1      45.659   1.847   8.510  0.00  0.00    +0.000 NA
ATOM     12  C   UNL     1      46.626   1.173   7.863  0.00  0.00    +0.000 A 
ATOM     13  C   UNL     1      47.251   1.645   6.736  0.00  0.00    +0.000 A 
ATOM     14  C   UNL     1      46.826   2.876   6.293  0.00  0.00    +0.000 A 
ATOM     15  N   UNL     1      45.874   3.603   6.909  0.00  0.00    +0.000 NA
ENDBRANCH   9  10
ENDBRANCH   6   9
ENDBRANCH   2   3
BRANCH   2  16
ATOM     16  N   UNL     1      46.568   6.714  13.836  0.00  0.00    +0.000 N 
ATOM     17  C   UNL     1      47.655   5.896  14.017  0.00  0.00    +0.000 C 
ATOM     18  O   UNL     1      48.512   5.722  13.158  0.00  0.00    +0.000 OA
ATOM     19  H   UNL     1      45.751   6.515  14.405  0.00  0.00    +0.000 HD
BRANCH  17  20
ATOM     20  C   UNL     1      47.783   5.298  15.351  0.00  0.00    +0.000 A 
ATOM     21  C   UNL     1      47.227   4.050  15.606  0.00  0.00    +0.000 A 
ATOM     22  S   UNL     1      47.522   3.484  17.188  0.00  0.00    +0.000 S 
ATOM     23  C   UNL     1      48.357   4.908  17.601  0.00  0.00    +0.000 A 
ATOM     24  N   UNL     1      48.862   5.089  18.852  0.00  0.00    +0.000 NA
ATOM     25  C   UNL     1      49.435   6.230  19.035  0.00  0.00    +0.000 A 
ATOM     26  N   UNL     1      49.561   7.205  18.080  0.00  0.00    +0.000 N 
ATOM     27  C   UNL     1      49.109   7.049  16.791  0.00  0.00    +0.000 A 
ATOM     28  O   UNL     1      49.301   7.905  15.937  0.00  0.00    +0.000 OA
ATOM     29  C   UNL     1      48.430   5.793  16.542  0.00  0.00    +0.000 A 
ATOM     30  H   UNL     1      50.036   8.074  18.283  0.00  0.00    +0.000 HD
ENDBRANCH  17  20
ENDBRANCH   2  16
TORSDOF 5
ENDMDL
MODEL 9
REMARK VINA RESULT:    -6.942      4.542     10.296
REMARK INTER + INTRA:          -9.871
REMARK INTER:                  -8.772
REMARK INTRA:                  -1.099
REMARK UNBOUND:                -0.900
REMARK  Name = 
REMARK  6 active torsions:
REMARK  status: ('A' for Active; 'I' for Inactive)
REMARK    1  A    between atoms: C_1  and  C_2
REMARK    2  A    between atoms: C_2  and  N_3
REMARK    3  A    between atoms: C_2  and  C_16
REMARK    4  A    between atoms: C_4  and  C_6
REMARK    5  A    between atoms: C_19  and  O_20
REMARK    6  A    between atoms: O_20  and  C_21
REMARK                            x       y       z     vdW  Elec       q    Type
REMARK                         _______ _______ _______ _____ _____    ______ ____
ROOT
ATOM      1  C   UNL     1      49.610   7.481  12.946  0.00  0.00    +0.000 C 
ATOM      2  C   UNL     1      48.279   7.074  13.589  0.00  0.00    +0.000 C 
ENDROOT
BRANCH   2   3
ATOM      3  C   UNL     1      48.556   6.368  14.917  0.00  0.00    +0.000 A 
ATOM      4  C   UNL     1      49.536   6.863  15.782  0.00  0.00    +0.000 A 
ATOM      5  C   UNL     1      49.760   6.224  16.998  0.00  0.00    +0.000 A 
ATOM      6  C   UNL     1      48.985   5.124  17.347  0.00  0.00    +0.000 A 
ATOM      7  C   UNL     1      48.065   4.667  16.414  0.00  0.00    +0.000 A 
ATOM      8  N   UNL     1      47.830   5.260  15.214  0.00  0.00    +0.000 NA
BRANCH   6   9
ATOM      9  O   UNL     1      49.123   4.424  18.518  0.00  0.00    +0.000 OA
BRANCH   9  10
ATOM     10  C   UNL     1      48.809   5.072  19.707  0.00  0.00    +0.000 A 
ATOM     11  N   UNL     1      47.592   5.625  19.865  0.00  0.00    +0.000 NA
ATOM     12  C   UNL     1      47.369   6.254  21.032  0.00  0.00    +0.000 A 
ATOM     13  C   UNL     1      48.296   6.323  22.042  0.00  0.00    +0.000 A 
ATOM     14  C   UNL     1      49.495   5.697  21.790  0.00  0.00    +0.000 A 
ATOM     15  N   UNL     1      49.780   5.066  20.635  0.00  0.00    +0.000 NA
ENDBRANCH   9  10
ENDBRANCH   6   9
ENDBRANCH   2   3
BRANCH   2  16
ATOM     16  N   UNL     1      47.479   6.210  12.727  0.00  0.00    +0.000 N 
ATOM     17  C   UNL     1      46.477   6.670  11.910  0.00  0.00    +0.000 C 
ATOM     18  O   UNL     1      46.207   7.859  11.786  0.00  0.00    +0.000 OA
ATOM     19  H   UNL     1      47.391   5.254  13.058  0.00  0.00    +0.000 HD
BRANCH  17  20
ATOM     20  C   UNL     1      45.790   5.647  11.111  0.00  0.00    +0.000 A 
ATOM     21  C   UNL     1      45.889   5.670   9.725  0.00  0.00    +0.000 A 
ATOM     22  S   UNL     1      45.078   4.377   8.964  0.00  0.00    +0.000 S 
ATOM     23  C   UNL     1      44.525   3.773  10.456  0.00  0.00    +0.000 A 
ATOM     24  N   UNL     1      43.733   2.668  10.517  0.00  0.00    +0.000 NA
ATOM     25  C   UNL     1      43.357   2.348  11.709  0.00  0.00    +0.000 A 
ATOM     26  N   UNL     1      43.708   3.022  12.849  0.00  0.00    +0.000 N 
ATOM     27  C   UNL     1      44.543   4.114  12.840  0.00  0.00    +0.000 A 
ATOM     28  O   UNL     1      44.902   4.653  13.880  0.00  0.00    +0.000 OA
ATOM     29  C   UNL     1      44.971   4.533  11.521  0.00  0.00    +0.000 A 
ATOM     30  H   UNL     1      43.392   2.710  13.756  0.00  0.00    +0.000 HD
ENDBRANCH  17  20
ENDBRANCH   2  16
TORSDOF 5
ENDMDL
