MODEL 1
REMARK VINA RESULT:    -8.146      0.000      0.000
REMARK INTER + INTRA:         -12.309
REMARK INTER:                 -11.480
REMARK INTRA:                  -0.829
REMARK UNBOUND:                -0.829
REMARK  Name = 
REMARK  8 active torsions:
REMARK  status: ('A' for Active; 'I' for Inactive)
REMARK    1  A    between atoms: C_1  and  N_2
REMARK    2  A    between atoms: N_2  and  C_3
REMARK    3  A    between atoms: C_3  and  C_4
REMARK    4  A    between atoms: C_7  and  C_8
REMARK    5  A    between atoms: C_8  and  O_9
REMARK    6  A    between atoms: O_9  and  C_10
REMARK    7  A    between atoms: C_10  and  C_12
REMARK    8  A    between atoms: C_24  and  C_26
REMARK                            x       y       z     vdW  Elec       q    Type
REMARK                         _______ _______ _______ _____ _____    ______ ____
ROOT
ATOM      1  C   UNL     1      46.407   4.404  13.326  0.00  0.00    +0.000 A 
ATOM      2  C   UNL     1      46.865   5.657  12.919  0.00  0.00    +0.000 A 
ATOM      3  C   UNL     1      47.725   6.376  13.744  0.00  0.00    +0.000 A 
ATOM      4  C   UNL     1      48.108   5.822  14.963  0.00  0.00    +0.000 A 
ATOM      5  N   UNL     1      47.668   4.609  15.382  0.00  0.00    +0.000 NA
ATOM      6  C   UNL     1      46.832   3.935  14.564  0.00  0.00    +0.000 A 
ENDROOT
BRANCH   1   7
ATOM      7  C   UNL     1      45.488   3.581  12.474  0.00  0.00    +0.000 C 
BRANCH   7   9
ATOM      8  C   UNL     1      43.270   4.728  12.989  0.00  0.00    +0.000 C 
ATOM      9  N   UNL     1      44.235   4.202  12.032  0.00  0.00    +0.000 N 
ATOM     10  C   UNL     1      43.925   4.393  10.674  0.00  0.00    +0.000 C 
ATOM     11  O   UNL     1      42.950   5.060  10.318  0.00  0.00    +0.000 OA
BRANCH  10  12
ATOM     12  C   UNL     1      44.790   3.813   9.603  0.00  0.00    +0.000 A 
ATOM     13  C   UNL     1      45.503   4.672   8.778  0.00  0.00    +0.000 A 
ATOM     14  N   UNL     1      46.315   4.224   7.784  0.00  0.00    +0.000 NA
ATOM     15  C   UNL     1      46.362   2.880   7.638  0.00  0.00    +0.000 A 
ATOM     16  C   UNL     1      45.640   2.021   8.447  0.00  0.00    +0.000 A 
ATOM     17  N   UNL     1      44.842   2.462   9.447  0.00  0.00    +0.000 NA
ENDBRANCH  10  12
ENDBRANCH   7   9
ENDBRANCH   1   7
BRANCH   4  18
ATOM     18  C   UNL     1      49.038   6.572  15.885  0.00  0.00    +0.000 C 
BRANCH  18  19
ATOM     19  O   UNL     1      50.123   5.738  16.311  0.00  0.00    +0.000 OA
BRANCH  19  20
ATOM     20  C   UNL     1      50.083   5.360  17.609  0.00  0.00    +0.000 C 
ATOM     21  O   UNL     1      49.147   5.574  18.373  0.00  0.00    +0.000 OA
BRANCH  20  22
ATOM     22  C   UNL     1      51.266   4.602  18.008  0.00  0.00    +0.000 A 
ATOM     23  C   UNL     1      52.342   5.225  18.616  0.00  0.00    +0.000 A 
ATOM     24  S   UNL     1      53.596   4.143  19.030  0.00  0.00    +0.000 S 
ATOM     25  C   UNL     1      52.751   2.820  18.368  0.00  0.00    +0.000 A 
ATOM     26  N   UNL     1      53.293   1.572  18.370  0.00  0.00    +0.000 NA
ATOM     27  C   UNL     1      52.546   0.669  17.827  0.00  0.00    +0.000 A 
ATOM     28  N   UNL     1      51.308   0.899  17.286  0.00  0.00    +0.000 N 
ATOM     29  C   UNL     1      50.744   2.153  17.203  0.00  0.00    +0.000 A 
ATOM     30  O   UNL     1      49.703   2.331  16.580  0.00  0.00    +0.000 OA
ATOM     31  C   UNL     1      51.527   3.195  17.846  0.00  0.00    +0.000 A 
ATOM     32  H   UNL     1      50.793   0.156  16.839  0.00  0.00    +0.000 HD
ENDBRANCH  20  22
ENDBRANCH  19  20
ENDBRANCH  18  19
ENDBRANCH   4  18
TORSDOF 7
ENDMDL
MODEL 2
REMARK VINA RESULT:    -7.799      1.772      2.149
REMARK INTER + INTRA:         -11.820
REMARK INTER:                 -11.717
REMARK INTRA:                  -0.102
REMARK UNBOUND:                -0.829
REMARK  Name = 
REMARK  8 active torsions:
REMARK  status: ('A' for Active; 'I' for Inactive)
REMARK    1  A    between atoms: C_1  and  N_2
REMARK    2  A    between atoms: N_2  and  C_3
REMARK    3  A    between atoms: C_3  and  C_4
REMARK    4  A    between atoms: C_7  and  C_8
REMARK    5  A    between atoms: C_8  and  O_9
REMARK    6  A    between atoms: O_9  and  C_10
REMARK    7  A    between atoms: C_10  and  C_12
REMARK    8  A    between atoms: C_24  and  C_26
REMARK                            x       y       z     vdW  Elec       q    Type
REMARK                         _______ _______ _______ _____ _____    ______ ____
ROOT
ATOM      1  C   UNL     1      45.770   4.649  11.921  0.00  0.00    +0.000 A 
ATOM      2  C   UNL     1      46.186   5.927  12.293  0.00  0.00    +0.000 A 
ATOM      3  C   UNL     1      46.893   6.102  13.480  0.00  0.00    +0.000 A 
ATOM      4  C   UNL     1      47.167   4.988  14.270  0.00  0.00    +0.000 A 
ATOM      5  N   UNL     1      46.764   3.738  13.931  0.00  0.00    +0.000 NA
ATOM      6  C   UNL     1      46.077   3.598  12.777  0.00  0.00    +0.000 A 
ENDROOT
BRANCH   1   7
ATOM      7  C   UNL     1      45.016   4.401  10.649  0.00  0.00    +0.000 C 
BRANCH   7   9
ATOM      8  C   UNL     1      43.226   2.799  11.507  0.00  0.00    +0.000 C 
ATOM      9  N   UNL     1      44.261   3.148  10.543  0.00  0.00    +0.000 N 
ATOM     10  C   UNL     1      44.435   2.250   9.473  0.00  0.00    +0.000 C 
ATOM     11  O   UNL     1      43.685   1.286   9.306  0.00  0.00    +0.000 OA
BRANCH  10  12
ATOM     12  C   UNL     1      45.529   2.452   8.476  0.00  0.00    +0.000 A 
ATOM     13  C   UNL     1      45.626   3.673   7.824  0.00  0.00    +0.000 A 
ATOM     14  N   UNL     1      46.594   3.938   6.907  0.00  0.00    +0.000 NA
ATOM     15  C   UNL     1      47.445   2.917   6.655  0.00  0.00    +0.000 A 
ATOM     16  C   UNL     1      47.342   1.693   7.291  0.00  0.00    +0.000 A 
ATOM     17  N   UNL     1      46.390   1.430   8.214  0.00  0.00    +0.000 NA
ENDBRANCH  10  12
ENDBRANCH   7   9
ENDBRANCH   1   7
BRANCH   4  18
ATOM     18  C   UNL     1      47.929   5.137  15.564  0.00  0.00    +0.000 C 
BRANCH  18  19
ATOM     19  O   UNL     1      47.083   4.877  16.692  0.00  0.00    +0.000 OA
BRANCH  19  20
ATOM     20  C   UNL     1      47.443   3.816  17.449  0.00  0.00    +0.000 C 
ATOM     21  O   UNL     1      46.755   2.815  17.624  0.00  0.00    +0.000 OA
BRANCH  20  22
ATOM     22  C   UNL     1      48.786   3.954  18.005  0.00  0.00    +0.000 A 
ATOM     23  C   UNL     1      49.096   4.982  18.878  0.00  0.00    +0.000 A 
ATOM     24  S   UNL     1      50.710   4.926  19.431  0.00  0.00    +0.000 S 
ATOM     25  C   UNL     1      51.049   3.552  18.484  0.00  0.00    +0.000 A 
ATOM     26  N   UNL     1      52.292   2.999  18.473  0.00  0.00    +0.000 NA
ATOM     27  C   UNL     1      52.406   1.968  17.703  0.00  0.00    +0.000 A 
ATOM     28  N   UNL     1      51.393   1.441  16.945  0.00  0.00    +0.000 N 
ATOM     29  C   UNL     1      50.137   2.002  16.872  0.00  0.00    +0.000 A 
ATOM     30  O   UNL     1      49.310   1.582  16.071  0.00  0.00    +0.000 OA
ATOM     31  C   UNL     1      49.946   3.135  17.761  0.00  0.00    +0.000 A 
ATOM     32  H   UNL     1      51.560   0.657  16.331  0.00  0.00    +0.000 HD
ENDBRANCH  20  22
ENDBRANCH  19  20
ENDBRANCH  18  19
ENDBRANCH   4  18
TORSDOF 7
ENDMDL
MODEL 3
REMARK VINA RESULT:    -7.328      2.447      3.174
REMARK INTER + INTRA:         -11.156
REMARK INTER:                 -10.317
REMARK INTRA:                  -0.839
REMARK UNBOUND:                -0.829
REMARK  Name = 
REMARK  8 active torsions:
REMARK  status: ('A' for Active; 'I' for Inactive)
REMARK    1  A    between atoms: C_1  and  N_2
REMARK    2  A    between atoms: N_2  and  C_3
REMARK    3  A    between atoms: C_3  and  C_4
REMARK    4  A    between atoms: C_7  and  C_8
REMARK    5  A    between atoms: C_8  and  O_9
REMARK    6  A    between atoms: O_9  and  C_10
REMARK    7  A    between atoms: C_10  and  C_12
REMARK    8  A    between atoms: C_24  and  C_26
REMARK                            x       y       z     vdW  Elec       q    Type
REMARK                         _______ _______ _______ _____ _____    ______ ____
ROOT
ATOM      1  C   UNL     1      46.487   4.567  13.312  0.00  0.00    +0.000 A 
ATOM      2  C   UNL     1      46.910   5.819  12.866  0.00  0.00    +0.000 A 
ATOM      3  C   UNL     1      47.747   6.588  13.670  0.00  0.00    +0.000 A 
ATOM      4  C   UNL     1      48.142   6.084  14.907  0.00  0.00    +0.000 A 
ATOM      5  N   UNL     1      47.736   4.872  15.363  0.00  0.00    +0.000 NA
ATOM      6  C   UNL     1      46.922   4.149  14.564  0.00  0.00    +0.000 A 
ENDROOT
BRANCH   1   7
ATOM      7  C   UNL     1      45.596   3.691  12.484  0.00  0.00    +0.000 C 
BRANCH   7   9
ATOM      8  C   UNL     1      43.328   4.717  13.042  0.00  0.00    +0.000 C 
ATOM      9  N   UNL     1      44.302   4.242  12.067  0.00  0.00    +0.000 N 
ATOM     10  C   UNL     1      43.954   4.414  10.715  0.00  0.00    +0.000 C 
ATOM     11  O   UNL     1      42.938   5.026  10.378  0.00  0.00    +0.000 OA
BRANCH  10  12
ATOM     12  C   UNL     1      44.828   3.880   9.627  0.00  0.00    +0.000 A 
ATOM     13  C   UNL     1      45.524   4.774   8.826  0.00  0.00    +0.000 A 
ATOM     14  N   UNL     1      46.342   4.369   7.819  0.00  0.00    +0.000 NA
ATOM     15  C   UNL     1      46.414   3.031   7.635  0.00  0.00    +0.000 A 
ATOM     16  C   UNL     1      45.709   2.137   8.421  0.00  0.00    +0.000 A 
ATOM     17  N   UNL     1      44.905   2.535   9.433  0.00  0.00    +0.000 NA
ENDBRANCH  10  12
ENDBRANCH   7   9
ENDBRANCH   1   7
BRANCH   4  18
ATOM     18  C   UNL     1      49.047   6.889  15.807  0.00  0.00    +0.000 C 
BRANCH  18  19
ATOM     19  O   UNL     1      50.322   6.253  15.956  0.00  0.00    +0.000 OA
BRANCH  19  20
ATOM     20  C   UNL     1      50.470   5.512  17.078  0.00  0.00    +0.000 C 
ATOM     21  O   UNL     1      50.766   4.321  17.097  0.00  0.00    +0.000 OA
BRANCH  20  22
ATOM     22  C   UNL     1      50.294   6.298  18.296  0.00  0.00    +0.000 A 
ATOM     23  C   UNL     1      51.238   7.231  18.686  0.00  0.00    +0.000 A 
ATOM     24  S   UNL     1      50.810   8.059  20.117  0.00  0.00    +0.000 S 
ATOM     25  C   UNL     1      49.371   7.161  20.275  0.00  0.00    +0.000 A 
ATOM     26  N   UNL     1      48.535   7.359  21.329  0.00  0.00    +0.000 NA
ATOM     27  C   UNL     1      47.489   6.602  21.325  0.00  0.00    +0.000 A 
ATOM     28  N   UNL     1      47.202   5.668  20.364  0.00  0.00    +0.000 N 
ATOM     29  C   UNL     1      48.047   5.385  19.312  0.00  0.00    +0.000 A 
ATOM     30  O   UNL     1      47.818   4.443  18.563  0.00  0.00    +0.000 OA
ATOM     31  C   UNL     1      49.215   6.247  19.247  0.00  0.00    +0.000 A 
ATOM     32  H   UNL     1      46.386   5.079  20.442  0.00  0.00    +0.000 HD
ENDBRANCH  20  22
ENDBRANCH  19  20
ENDBRANCH  18  19
ENDBRANCH   4  18
TORSDOF 7
ENDMDL
MODEL 4
REMARK VINA RESULT:    -7.262      3.362      8.645
REMARK INTER + INTRA:         -11.062
REMARK INTER:                  -9.979
REMARK INTRA:                  -1.083
REMARK UNBOUND:                -0.829
REMARK  Name = 
REMARK  8 active torsions:
REMARK  status: ('A' for Active; 'I' for Inactive)
REMARK    1  A    between atoms: C_1  and  N_2
REMARK    2  A    between atoms: N_2  and  C_3
REMARK    3  A    between atoms: C_3  and  C_4
REMARK    4  A    between atoms: C_7  and  C_8
REMARK    5  A    between atoms: C_8  and  O_9
REMARK    6  A    between atoms: O_9  and  C_10
REMARK    7  A    between atoms: C_10  and  C_12
REMARK    8  A    between atoms: C_24  and  C_26
REMARK                            x       y       z     vdW  Elec       q    Type
REMARK                         _______ _______ _______ _____ _____    ______ ____
ROOT
ATOM      1  C   UNL     1      48.851   7.520  15.866  0.00  0.00    +0.000 A 
ATOM      2  C   UNL     1      48.203   8.696  15.491  0.00  0.00    +0.000 A 
ATOM      3  C   UNL     1      47.765   8.851  14.179  0.00  0.00    +0.000 A 
ATOM      4  C   UNL     1      47.988   7.821  13.269  0.00  0.00    +0.000 A 
ATOM      5  N   UNL     1      48.623   6.672  13.611  0.00  0.00    +0.000 NA
ATOM      6  C   UNL     1      49.041   6.550  14.889  0.00  0.00    +0.000 A 
ENDROOT
BRANCH   1   7
ATOM      7  C   UNL     1      49.334   7.294  17.267  0.00  0.00    +0.000 C 
BRANCH   7   9
ATOM      8  C   UNL     1      47.842   8.244  19.105  0.00  0.00    +0.000 C 
ATOM      9  N   UNL     1      48.321   7.118  18.313  0.00  0.00    +0.000 N 
ATOM     10  C   UNL     1      47.701   5.880  18.564  0.00  0.00    +0.000 C 
ATOM     11  O   UNL     1      46.739   5.779  19.329  0.00  0.00    +0.000 OA
BRANCH  10  12
ATOM     12  C   UNL     1      48.172   4.637  17.883  0.00  0.00    +0.000 A 
ATOM     13  C   UNL     1      47.438   4.136  16.817  0.00  0.00    +0.000 A 
ATOM     14  N   UNL     1      47.802   3.014  16.142  0.00  0.00    +0.000 NA
ATOM     15  C   UNL     1      48.920   2.403  16.597  0.00  0.00    +0.000 A 
ATOM     16  C   UNL     1      49.646   2.890  17.670  0.00  0.00    +0.000 A 
ATOM     17  N   UNL     1      49.295   4.014  18.335  0.00  0.00    +0.000 NA
ENDBRANCH  10  12
ENDBRANCH   7   9
ENDBRANCH   1   7
BRANCH   4  18
ATOM     18  C   UNL     1      47.529   7.952  11.837  0.00  0.00    +0.000 C 
BRANCH  18  19
ATOM     19  O   UNL     1      46.882   6.754  11.392  0.00  0.00    +0.000 OA
BRANCH  19  20
ATOM     20  C   UNL     1      45.531   6.781  11.426  0.00  0.00    +0.000 C 
ATOM     21  O   UNL     1      44.851   7.803  11.421  0.00  0.00    +0.000 OA
BRANCH  20  22
ATOM     22  C   UNL     1      44.943   5.444  11.412  0.00  0.00    +0.000 A 
ATOM     23  C   UNL     1      44.304   4.932  12.528  0.00  0.00    +0.000 A 
ATOM     24  S   UNL     1      43.661   3.372  12.273  0.00  0.00    +0.000 S 
ATOM     25  C   UNL     1      44.256   3.322  10.678  0.00  0.00    +0.000 A 
ATOM     26  N   UNL     1      44.070   2.225   9.896  0.00  0.00    +0.000 NA
ATOM     27  C   UNL     1      44.584   2.324   8.715  0.00  0.00    +0.000 A 
ATOM     28  N   UNL     1      45.262   3.418   8.245  0.00  0.00    +0.000 N 
ATOM     29  C   UNL     1      45.531   4.527   9.018  0.00  0.00    +0.000 A 
ATOM     30  O   UNL     1      46.265   5.416   8.602  0.00  0.00    +0.000 OA
ATOM     31  C   UNL     1      44.930   4.482  10.340  0.00  0.00    +0.000 A 
ATOM     32  H   UNL     1      45.675   3.415   7.324  0.00  0.00    +0.000 HD
ENDBRANCH  20  22
ENDBRANCH  19  20
ENDBRANCH  18  19
ENDBRANCH   4  18
TORSDOF 7
ENDMDL
MODEL 5
REMARK VINA RESULT:    -7.035      3.643      8.647
REMARK INTER + INTRA:         -10.743
REMARK INTER:                  -9.693
REMARK INTRA:                  -1.050
REMARK UNBOUND:                -0.829
REMARK  Name = 
REMARK  8 active torsions:
REMARK  status: ('A' for Active; 'I' for Inactive)
REMARK    1  A    between atoms: C_1  and  N_2
REMARK    2  A    between atoms: N_2  and  C_3
REMARK    3  A    between atoms: C_3  and  C_4
REMARK    4  A    between atoms: C_7  and  C_8
REMARK    5  A    between atoms: C_8  and  O_9
REMARK    6  A    between atoms: O_9  and  C_10
REMARK    7  A    between atoms: C_10  and  C_12
REMARK    8  A    between atoms: C_24  and  C_26
REMARK                            x       y       z     vdW  Elec       q    Type
REMARK                         _______ _______ _______ _____ _____    ______ ____
ROOT
ATOM      1  C   UNL     1      49.382   7.440  16.527  0.00  0.00    +0.000 A 
ATOM      2  C   UNL     1      48.709   8.618  16.206  0.00  0.00    +0.000 A 
ATOM      3  C   UNL     1      48.221   8.800  14.915  0.00  0.00    +0.000 A 
ATOM      4  C   UNL     1      48.420   7.795  13.972  0.00  0.00    +0.000 A 
ATOM      5  N   UNL     1      49.079   6.645  14.262  0.00  0.00    +0.000 NA
ATOM      6  C   UNL     1      49.545   6.496  15.520  0.00  0.00    +0.000 A 
ENDROOT
BRANCH   1   7
ATOM      7  C   UNL     1      49.919   7.185  17.904  0.00  0.00    +0.000 C 
BRANCH   7   9
ATOM      8  C   UNL     1      48.785   8.214  19.943  0.00  0.00    +0.000 C 
ATOM      9  N   UNL     1      48.953   7.112  19.005  0.00  0.00    +0.000 N 
ATOM     10  C   UNL     1      48.087   6.017  19.178  0.00  0.00    +0.000 C 
ATOM     11  O   UNL     1      47.172   6.037  20.004  0.00  0.00    +0.000 OA
BRANCH  10  12
ATOM     12  C   UNL     1      48.230   4.789  18.339  0.00  0.00    +0.000 A 
ATOM     13  C   UNL     1      47.202   4.447  17.471  0.00  0.00    +0.000 A 
ATOM     14  N   UNL     1      47.256   3.350  16.670  0.00  0.00    +0.000 NA
ATOM     15  C   UNL     1      48.373   2.598  16.795  0.00  0.00    +0.000 A 
ATOM     16  C   UNL     1      49.393   2.926  17.672  0.00  0.00    +0.000 A 
ATOM     17  N   UNL     1      49.349   4.025  18.459  0.00  0.00    +0.000 NA
ENDBRANCH  10  12
ENDBRANCH   7   9
ENDBRANCH   1   7
BRANCH   4  18
ATOM     18  C   UNL     1      47.907   7.956  12.562  0.00  0.00    +0.000 C 
BRANCH  18  19
ATOM     19  O   UNL     1      47.246   6.766  12.115  0.00  0.00    +0.000 OA
BRANCH  19  20
ATOM     20  C   UNL     1      46.029   6.957  11.558  0.00  0.00    +0.000 C 
ATOM     21  O   UNL     1      45.395   8.007  11.602  0.00  0.00    +0.000 OA
BRANCH  20  22
ATOM     22  C   UNL     1      45.555   5.782  10.831  0.00  0.00    +0.000 A 
ATOM     23  C   UNL     1      45.832   5.615   9.485  0.00  0.00    +0.000 A 
ATOM     24  S   UNL     1      45.214   4.155   8.851  0.00  0.00    +0.000 S 
ATOM     25  C   UNL     1      44.523   3.729  10.349  0.00  0.00    +0.000 A 
ATOM     26  N   UNL     1      43.810   2.580  10.488  0.00  0.00    +0.000 NA
ATOM     27  C   UNL     1      43.337   2.390  11.675  0.00  0.00    +0.000 A 
ATOM     28  N   UNL     1      43.514   3.243  12.734  0.00  0.00    +0.000 N 
ATOM     29  C   UNL     1      44.173   4.448  12.628  0.00  0.00    +0.000 A 
ATOM     30  O   UNL     1      44.179   5.242  13.561  0.00  0.00    +0.000 OA
ATOM     31  C   UNL     1      44.766   4.682  11.322  0.00  0.00    +0.000 A 
ATOM     32  H   UNL     1      43.082   3.056  13.626  0.00  0.00    +0.000 HD
ENDBRANCH  20  22
ENDBRANCH  19  20
ENDBRANCH  18  19
ENDBRANCH   4  18
TORSDOF 7
ENDMDL
MODEL 6
REMARK VINA RESULT:    -6.882      1.827      3.034
REMARK INTER + INTRA:         -10.527
REMARK INTER:                 -10.156
REMARK INTRA:                  -0.371
REMARK UNBOUND:                -0.829
REMARK  Name = 
REMARK  8 active torsions:
REMARK  status: ('A' for Active; 'I' for Inactive)
REMARK    1  A    between atoms: C_1  and  N_2
REMARK    2  A    between atoms: N_2  and  C_3
REMARK    3  A    between atoms: C_3  and  C_4
REMARK    4  A    between atoms: C_7  and  C_8
REMARK    5  A    between atoms: C_8  and  O_9
REMARK    6  A    between atoms: O_9  and  C_10
REMARK    7  A    between atoms: C_10  and  C_12
REMARK    8  A    between atoms: C_24  and  C_26
REMARK                            x       y       z     vdW  Elec       q    Type
REMARK                         _______ _______ _______ _____ _____    ______ ____
ROOT
ATOM      1  C   UNL     1      47.354   5.537  13.708  0.00  0.00    +0.000 A 
ATOM      2  C   UNL     1      47.919   6.097  14.852  0.00  0.00    +0.000 A 
ATOM      3  C   UNL     1      48.062   5.321  15.999  0.00  0.00    +0.000 A 
ATOM      4  C   UNL     1      47.631   3.997  15.974  0.00  0.00    +0.000 A 
ATOM      5  N   UNL     1      47.071   3.435  14.873  0.00  0.00    +0.000 NA
ATOM      6  C   UNL     1      46.942   4.211  13.776  0.00  0.00    +0.000 A 
ENDROOT
BRANCH   1   7
ATOM      7  C   UNL     1      47.186   6.322  12.441  0.00  0.00    +0.000 C 
BRANCH   7   9
ATOM      8  C   UNL     1      45.985   8.527  12.889  0.00  0.00    +0.000 C 
ATOM      9  N   UNL     1      46.003   7.182  12.328  0.00  0.00    +0.000 N 
ATOM     10  C   UNL     1      44.854   6.796  11.615  0.00  0.00    +0.000 C 
ATOM     11  O   UNL     1      43.935   7.585  11.388  0.00  0.00    +0.000 OA
BRANCH  10  12
ATOM     12  C   UNL     1      44.718   5.409  11.077  0.00  0.00    +0.000 A 
ATOM     13  C   UNL     1      45.298   5.104   9.854  0.00  0.00    +0.000 A 
ATOM     14  N   UNL     1      45.224   3.865   9.298  0.00  0.00    +0.000 NA
ATOM     15  C   UNL     1      44.523   2.953  10.010  0.00  0.00    +0.000 A 
ATOM     16  C   UNL     1      43.929   3.258  11.222  0.00  0.00    +0.000 A 
ATOM     17  N   UNL     1      44.013   4.485  11.785  0.00  0.00    +0.000 NA
ENDBRANCH  10  12
ENDBRANCH   7   9
ENDBRANCH   1   7
BRANCH   4  18
ATOM     18  C   UNL     1      47.767   3.125  17.198  0.00  0.00    +0.000 C 
BRANCH  18  19
ATOM     19  O   UNL     1      49.133   3.047  17.625  0.00  0.00    +0.000 OA
BRANCH  19  20
ATOM     20  C   UNL     1      49.917   2.219  16.899  0.00  0.00    +0.000 C 
ATOM     21  O   UNL     1      49.555   1.611  15.896  0.00  0.00    +0.000 OA
BRANCH  20  22
ATOM     22  C   UNL     1      51.287   2.160  17.403  0.00  0.00    +0.000 A 
ATOM     23  C   UNL     1      51.878   0.952  17.728  0.00  0.00    +0.000 A 
ATOM     24  S   UNL     1      53.492   1.117  18.258  0.00  0.00    +0.000 S 
ATOM     25  C   UNL     1      53.429   2.813  18.108  0.00  0.00    +0.000 A 
ATOM     26  N   UNL     1      54.499   3.584  18.438  0.00  0.00    +0.000 NA
ATOM     27  C   UNL     1      54.306   4.852  18.284  0.00  0.00    +0.000 A 
ATOM     28  N   UNL     1      53.143   5.417  17.828  0.00  0.00    +0.000 N 
ATOM     29  C   UNL     1      52.012   4.685  17.540  0.00  0.00    +0.000 A 
ATOM     30  O   UNL     1      50.955   5.245  17.277  0.00  0.00    +0.000 OA
ATOM     31  C   UNL     1      52.197   3.248  17.652  0.00  0.00    +0.000 A 
ATOM     32  H   UNL     1      53.043   6.420  17.769  0.00  0.00    +0.000 HD
ENDBRANCH  20  22
ENDBRANCH  19  20
ENDBRANCH  18  19
ENDBRANCH   4  18
TORSDOF 7
ENDMDL
MODEL 7
REMARK VINA RESULT:    -6.738      2.425      3.364
REMARK INTER + INTRA:         -10.325
REMARK INTER:                  -9.311
REMARK INTRA:                  -1.014
REMARK UNBOUND:                -0.829
REMARK  Name = 
REMARK  8 active torsions:
REMARK  status: ('A' for Active; 'I' for Inactive)
REMARK    1  A    between atoms: C_1  and  N_2
REMARK    2  A    between atoms: N_2  and  C_3
REMARK    3  A    between atoms: C_3  and  C_4
REMARK    4  A    between atoms: C_7  and  C_8
REMARK    5  A    between atoms: C_8  and  O_9
REMARK    6  A    between atoms: O_9  and  C_10
REMARK    7  A    between atoms: C_10  and  C_12
REMARK    8  A    between atoms: C_24  and  C_26
REMARK                            x       y       z     vdW  Elec       q    Type
REMARK                         _______ _______ _______ _____ _____    ______ ____
ROOT
ATOM      1  C   UNL     1      47.110   7.018  12.703  0.00  0.00    +0.000 A 
ATOM      2  C   UNL     1      47.487   8.284  13.149  0.00  0.00    +0.000 A 
ATOM      3  C   UNL     1      48.276   8.405  14.290  0.00  0.00    +0.000 A 
ATOM      4  C   UNL     1      48.668   7.250  14.961  0.00  0.00    +0.000 A 
ATOM      5  N   UNL     1      48.305   6.009  14.550  0.00  0.00    +0.000 NA
ATOM      6  C   UNL     1      47.537   5.922  13.442  0.00  0.00    +0.000 A 
ENDROOT
BRANCH   1   7
ATOM      7  C   UNL     1      46.271   6.828  11.475  0.00  0.00    +0.000 C 
BRANCH   7   9
ATOM      8  C   UNL     1      44.879   8.957  11.293  0.00  0.00    +0.000 C 
ATOM      9  N   UNL     1      44.973   7.509  11.428  0.00  0.00    +0.000 N 
ATOM     10  C   UNL     1      43.753   6.809  11.437  0.00  0.00    +0.000 C 
ATOM     11  O   UNL     1      42.677   7.377  11.233  0.00  0.00    +0.000 OA
BRANCH  10  12
ATOM     12  C   UNL     1      43.719   5.334  11.666  0.00  0.00    +0.000 A 
ATOM     13  C   UNL     1      43.621   4.859  12.967  0.00  0.00    +0.000 A 
ATOM     14  N   UNL     1      43.579   3.533  13.260  0.00  0.00    +0.000 NA
ATOM     15  C   UNL     1      43.665   2.703  12.196  0.00  0.00    +0.000 A 
ATOM     16  C   UNL     1      43.780   3.171  10.899  0.00  0.00    +0.000 A 
ATOM     17  N   UNL     1      43.807   4.491  10.602  0.00  0.00    +0.000 NA
ENDBRANCH  10  12
ENDBRANCH   7   9
ENDBRANCH   1   7
BRANCH   4  18
ATOM     18  C   UNL     1      49.521   7.339  16.203  0.00  0.00    +0.000 C 
BRANCH  18  19
ATOM     19  O   UNL     1      48.709   7.461  17.378  0.00  0.00    +0.000 OA
BRANCH  19  20
ATOM     20  C   UNL     1      49.004   6.596  18.374  0.00  0.00    +0.000 C 
ATOM     21  O   UNL     1      49.389   6.922  19.493  0.00  0.00    +0.000 OA
BRANCH  20  22
ATOM     22  C   UNL     1      48.758   5.206  18.001  0.00  0.00    +0.000 A 
ATOM     23  C   UNL     1      47.470   4.730  17.829  0.00  0.00    +0.000 A 
ATOM     24  S   UNL     1      47.421   3.090  17.357  0.00  0.00    +0.000 S 
ATOM     25  C   UNL     1      49.119   2.962  17.412  0.00  0.00    +0.000 A 
ATOM     26  N   UNL     1      49.741   1.785  17.138  0.00  0.00    +0.000 NA
ATOM     27  C   UNL     1      51.029   1.832  17.228  0.00  0.00    +0.000 A 
ATOM     28  N   UNL     1      51.749   2.949  17.564  0.00  0.00    +0.000 N 
ATOM     29  C   UNL     1      51.163   4.146  17.912  0.00  0.00    +0.000 A 
ATOM     30  O   UNL     1      51.841   5.071  18.346  0.00  0.00    +0.000 OA
ATOM     31  C   UNL     1      49.717   4.155  17.778  0.00  0.00    +0.000 A 
ATOM     32  H   UNL     1      52.753   2.908  17.657  0.00  0.00    +0.000 HD
ENDBRANCH  20  22
ENDBRANCH  19  20
ENDBRANCH  18  19
ENDBRANCH   4  18
TORSDOF 7
ENDMDL
MODEL 8
REMARK VINA RESULT:    -6.663      2.553      3.154
REMARK INTER + INTRA:         -10.219
REMARK INTER:                  -9.459
REMARK INTRA:                  -0.760
REMARK UNBOUND:                -0.829
REMARK  Name = 
REMARK  8 active torsions:
REMARK  status: ('A' for Active; 'I' for Inactive)
REMARK    1  A    between atoms: C_1  and  N_2
REMARK    2  A    between atoms: N_2  and  C_3
REMARK    3  A    between atoms: C_3  and  C_4
REMARK    4  A    between atoms: C_7  and  C_8
REMARK    5  A    between atoms: C_8  and  O_9
REMARK    6  A    between atoms: O_9  and  C_10
REMARK    7  A    between atoms: C_10  and  C_12
REMARK    8  A    between atoms: C_24  and  C_26
REMARK                            x       y       z     vdW  Elec       q    Type
REMARK                         _______ _______ _______ _____ _____    ______ ____
ROOT
ATOM      1  C   UNL     1      46.412   4.707  13.127  0.00  0.00    +0.000 A 
ATOM      2  C   UNL     1      46.869   5.845  12.462  0.00  0.00    +0.000 A 
ATOM      3  C   UNL     1      47.830   6.652  13.064  0.00  0.00    +0.000 A 
ATOM      4  C   UNL     1      48.312   6.302  14.323  0.00  0.00    +0.000 A 
ATOM      5  N   UNL     1      47.874   5.204  14.990  0.00  0.00    +0.000 NA
ATOM      6  C   UNL     1      46.940   4.441  14.385  0.00  0.00    +0.000 A 
ENDROOT
BRANCH   1   7
ATOM      7  C   UNL     1      45.387   3.795  12.523  0.00  0.00    +0.000 C 
BRANCH   7   9
ATOM      8  C   UNL     1      43.173   4.985  12.954  0.00  0.00    +0.000 C 
ATOM      9  N   UNL     1      44.143   4.401  12.036  0.00  0.00    +0.000 N 
ATOM     10  C   UNL     1      43.847   4.522  10.667  0.00  0.00    +0.000 C 
ATOM     11  O   UNL     1      42.881   5.176  10.266  0.00  0.00    +0.000 OA
BRANCH  10  12
ATOM     12  C   UNL     1      44.717   3.880   9.636  0.00  0.00    +0.000 A 
ATOM     13  C   UNL     1      44.757   2.495   9.561  0.00  0.00    +0.000 A 
ATOM     14  N   UNL     1      45.519   1.834   8.650  0.00  0.00    +0.000 NA
ATOM     15  C   UNL     1      46.257   2.621   7.834  0.00  0.00    +0.000 A 
ATOM     16  C   UNL     1      46.233   4.002   7.917  0.00  0.00    +0.000 A 
ATOM     17  N   UNL     1      45.465   4.664   8.813  0.00  0.00    +0.000 NA
ENDBRANCH  10  12
ENDBRANCH   7   9
ENDBRANCH   1   7
BRANCH   4  18
ATOM     18  C   UNL     1      49.352   7.153  15.008  0.00  0.00    +0.000 C 
BRANCH  18  19
ATOM     19  O   UNL     1      50.100   6.386  15.959  0.00  0.00    +0.000 OA
BRANCH  19  20
ATOM     20  C   UNL     1      50.546   7.075  17.034  0.00  0.00    +0.000 C 
ATOM     21  O   UNL     1      51.509   7.836  17.028  0.00  0.00    +0.000 OA
BRANCH  20  22
ATOM     22  C   UNL     1      49.716   6.867  18.217  0.00  0.00    +0.000 A 
ATOM     23  C   UNL     1      48.469   7.459  18.328  0.00  0.00    +0.000 A 
ATOM     24  S   UNL     1      47.661   7.048  19.774  0.00  0.00    +0.000 S 
ATOM     25  C   UNL     1      48.973   6.102  20.309  0.00  0.00    +0.000 A 
ATOM     26  N   UNL     1      48.939   5.478  21.517  0.00  0.00    +0.000 NA
ATOM     27  C   UNL     1      50.006   4.805  21.795  0.00  0.00    +0.000 A 
ATOM     28  N   UNL     1      51.100   4.698  20.976  0.00  0.00    +0.000 N 
ATOM     29  C   UNL     1      51.208   5.362  19.774  0.00  0.00    +0.000 A 
ATOM     30  O   UNL     1      52.262   5.353  19.148  0.00  0.00    +0.000 OA
ATOM     31  C   UNL     1      50.011   6.093  19.395  0.00  0.00    +0.000 A 
ATOM     32  H   UNL     1      51.920   4.189  21.272  0.00  0.00    +0.000 HD
ENDBRANCH  20  22
ENDBRANCH  19  20
ENDBRANCH  18  19
ENDBRANCH   4  18
TORSDOF 7
ENDMDL
MODEL 9
REMARK VINA RESULT:    -6.663      1.485      2.139
REMARK INTER + INTRA:         -10.218
REMARK INTER:                  -9.758
REMARK INTRA:                  -0.460
REMARK UNBOUND:                -0.829
REMARK  Name = 
REMARK  8 active torsions:
REMARK  status: ('A' for Active; 'I' for Inactive)
REMARK    1  A    between atoms: C_1  and  N_2
REMARK    2  A    between atoms: N_2  and  C_3
REMARK    3  A    between atoms: C_3  and  C_4
REMARK    4  A    between atoms: C_7  and  C_8
REMARK    5  A    between atoms: C_8  and  O_9
REMARK    6  A    between atoms: O_9  and  C_10
REMARK    7  A    between atoms: C_10  and  C_12
REMARK    8  A    between atoms: C_24  and  C_26
REMARK                            x       y       z     vdW  Elec       q    Type
REMARK                         _______ _______ _______ _____ _____    ______ ____
ROOT
ATOM      1  C   UNL     1      47.612   6.548  12.843  0.00  0.00    +0.000 A 
ATOM      2  C   UNL     1      48.682   7.437  12.931  0.00  0.00    +0.000 A 
ATOM      3  C   UNL     1      49.499   7.420  14.058  0.00  0.00    +0.000 A 
ATOM      4  C   UNL     1      49.224   6.511  15.076  0.00  0.00    +0.000 A 
ATOM      5  N   UNL     1      48.182   5.643  15.014  0.00  0.00    +0.000 NA
ATOM      6  C   UNL     1      47.404   5.684  13.911  0.00  0.00    +0.000 A 
ENDROOT
BRANCH   1   7
ATOM      7  C   UNL     1      46.706   6.514  11.649  0.00  0.00    +0.000 C 
BRANCH   7   9
ATOM      8  C   UNL     1      45.222   8.473  12.331  0.00  0.00    +0.000 C 
ATOM      9  N   UNL     1      45.382   7.131  11.784  0.00  0.00    +0.000 N 
ATOM     10  C   UNL     1      44.207   6.505  11.330  0.00  0.00    +0.000 C 
ATOM     11  O   UNL     1      43.126   7.098  11.299  0.00  0.00    +0.000 OA
BRANCH  10  12
ATOM     12  C   UNL     1      44.233   5.095  10.839  0.00  0.00    +0.000 A 
ATOM     13  C   UNL     1      43.469   4.141  11.497  0.00  0.00    +0.000 A 
ATOM     14  N   UNL     1      43.434   2.838  11.110  0.00  0.00    +0.000 NA
ATOM     15  C   UNL     1      44.217   2.529  10.051  0.00  0.00    +0.000 A 
ATOM     16  C   UNL     1      44.994   3.473   9.403  0.00  0.00    +0.000 A 
ATOM     17  N   UNL     1      45.020   4.773   9.776  0.00  0.00    +0.000 NA
ENDBRANCH  10  12
ENDBRANCH   7   9
ENDBRANCH   1   7
BRANCH   4  18
ATOM     18  C   UNL     1      50.085   6.463  16.314  0.00  0.00    +0.000 C 
BRANCH  18  19
ATOM     19  O   UNL     1      49.287   6.566  17.500  0.00  0.00    +0.000 OA
BRANCH  19  20
ATOM     20  C   UNL     1      49.171   5.426  18.217  0.00  0.00    +0.000 C 
ATOM     21  O   UNL     1      48.109   4.948  18.606  0.00  0.00    +0.000 OA
BRANCH  20  22
ATOM     22  C   UNL     1      50.457   4.771  18.441  0.00  0.00    +0.000 A 
ATOM     23  C   UNL     1      51.464   5.398  19.154  0.00  0.00    +0.000 A 
ATOM     24  S   UNL     1      52.863   4.434  19.325  0.00  0.00    +0.000 S 
ATOM     25  C   UNL     1      52.175   3.171  18.412  0.00  0.00    +0.000 A 
ATOM     26  N   UNL     1      52.875   2.035  18.152  0.00  0.00    +0.000 NA
ATOM     27  C   UNL     1      52.233   1.168  17.441  0.00  0.00    +0.000 A 
ATOM     28  N   UNL     1      50.957   1.333  16.970  0.00  0.00    +0.000 N 
ATOM     29  C   UNL     1      50.230   2.489  17.153  0.00  0.00    +0.000 A 
ATOM     30  O   UNL     1      49.153   2.646  16.590  0.00  0.00    +0.000 OA
ATOM     31  C   UNL     1      50.893   3.475  17.989  0.00  0.00    +0.000 A 
ATOM     32  H   UNL     1      50.527   0.632  16.385  0.00  0.00    +0.000 HD
ENDBRANCH  20  22
ENDBRANCH  19  20
ENDBRANCH  18  19
ENDBRANCH   4  18
TORSDOF 7
ENDMDL
