MODEL 1
REMARK VINA RESULT:    -7.558      0.000      0.000
REMARK INTER + INTRA:         -13.539
REMARK INTER:                 -12.198
REMARK INTRA:                  -1.341
REMARK UNBOUND:                -1.341
REMARK  Name = 
REMARK  11 active torsions:
REMARK  status: ('A' for Active; 'I' for Inactive)
REMARK    1  A    between atoms: N_1  and  C_2
REMARK    2  A    between atoms: C_2  and  C_3
REMARK    3  A    between atoms: C_3  and  C_4
REMARK    4  A    between atoms: C_4  and  N_5
REMARK    5  A    between atoms: C_4  and  C_13
REMARK    6  A    between atoms: N_5  and  C_6
REMARK    7  A    between atoms: C_6  and  C_7
REMARK    8  A    between atoms: C_16  and  C_17
REMARK    9  A    between atoms: C_17  and  N_18
REMARK   10  A    between atoms: N_18  and  C_19
REMARK   11  A    between atoms: C_19  and  C_20
REMARK                            x       y       z     vdW  Elec       q    Type
REMARK                         _______ _______ _______ _____ _____    ______ ____
ROOT
ATOM      1  C   UNL     1      45.547   4.951  11.686  0.00  0.00    +0.000 A 
ATOM      2  C   UNL     1      45.925   4.373  12.916  0.00  0.00    +0.000 A 
ATOM      3  C   UNL     1      46.923   4.947  13.712  0.00  0.00    +0.000 A 
ATOM      4  C   UNL     1      47.525   6.153  13.338  0.00  0.00    +0.000 A 
ATOM      5  C   UNL     1      47.144   6.745  12.129  0.00  0.00    +0.000 A 
ATOM      6  C   UNL     1      46.182   6.143  11.311  0.00  0.00    +0.000 A 
ENDROOT
BRANCH   1   7
ATOM      7  C   UNL     1      44.520   4.244  10.794  0.00  0.00    +0.000 C 
BRANCH   7   8
ATOM      8  N   UNL     1      44.505   4.781   9.404  0.00  0.00    +0.000 NA
ATOM      9  H   UNL     1      45.396   5.245   9.233  0.00  0.00    +0.000 HD
BRANCH   8  10
ATOM     10  C   UNL     1      44.387   3.681   8.420  0.00  0.00    +0.000 C 
BRANCH  10  11
ATOM     11  C   UNL     1      45.666   2.979   8.004  0.00  0.00    +0.000 A 
ATOM     12  C   UNL     1      46.603   3.598   7.184  0.00  0.00    +0.000 A 
ATOM     13  C   UNL     1      47.639   2.830   6.654  0.00  0.00    +0.000 A 
ATOM     14  C   UNL     1      47.716   1.473   6.953  0.00  0.00    +0.000 A 
ATOM     15  C   UNL     1      46.761   0.941   7.797  0.00  0.00    +0.000 A 
ATOM     16  N   UNL     1      45.748   1.659   8.324  0.00  0.00    +0.000 NA
ENDBRANCH  10  11
ENDBRANCH   8  10
ENDBRANCH   7   8
BRANCH   7  17
ATOM     17  C   UNL     1      43.111   4.292  11.446  0.00  0.00    +0.000 C 
BRANCH  17  18
ATOM     18  C   UNL     1      42.732   5.613  12.106  0.00  0.00    +0.000 C 
BRANCH  18  19
ATOM     19  N   UNL     1      42.510   6.620  11.062  0.00  0.00    +0.000 NA
ATOM     20  H   UNL     1      42.070   7.445  11.467  0.00  0.00    +0.000 HD
ATOM     21  H   UNL     1      41.853   6.259  10.371  0.00  0.00    +0.000 HD
ENDBRANCH  18  19
ENDBRANCH  17  18
ENDBRANCH   7  17
ENDBRANCH   1   7
BRANCH   4  22
ATOM     22  C   UNL     1      48.590   6.786  14.199  0.00  0.00    +0.000 C 
BRANCH  22  23
ATOM     23  N   UNL     1      48.078   7.069  15.534  0.00  0.00    +0.000 NA
ATOM     24  H   UNL     1      47.213   6.545  15.676  0.00  0.00    +0.000 HD
BRANCH  23  25
ATOM     25  C   UNL     1      49.038   6.648  16.564  0.00  0.00    +0.000 C 
BRANCH  25  26
ATOM     26  C   UNL     1      48.852   5.195  16.955  0.00  0.00    +0.000 A 
ATOM     27  C   UNL     1      47.571   4.685  17.165  0.00  0.00    +0.000 A 
ATOM     28  C   UNL     1      47.425   3.345  17.508  0.00  0.00    +0.000 A 
ATOM     29  C   UNL     1      48.556   2.550  17.638  0.00  0.00    +0.000 A 
ATOM     30  C   UNL     1      49.794   3.132  17.418  0.00  0.00    +0.000 A 
ATOM     31  N   UNL     1      49.968   4.430  17.080  0.00  0.00    +0.000 NA
ENDBRANCH  25  26
ENDBRANCH  23  25
ENDBRANCH  22  23
ENDBRANCH   4  22
TORSDOF 11
ENDMDL
MODEL 2
REMARK VINA RESULT:    -7.346      1.157      8.115
REMARK INTER + INTRA:         -13.197
REMARK INTER:                 -11.697
REMARK INTRA:                  -1.500
REMARK UNBOUND:                -1.341
REMARK  Name = 
REMARK  11 active torsions:
REMARK  status: ('A' for Active; 'I' for Inactive)
REMARK    1  A    between atoms: N_1  and  C_2
REMARK    2  A    between atoms: C_2  and  C_3
REMARK    3  A    between atoms: C_3  and  C_4
REMARK    4  A    between atoms: C_4  and  N_5
REMARK    5  A    between atoms: C_4  and  C_13
REMARK    6  A    between atoms: N_5  and  C_6
REMARK    7  A    between atoms: C_6  and  C_7
REMARK    8  A    between atoms: C_16  and  C_17
REMARK    9  A    between atoms: C_17  and  N_18
REMARK   10  A    between atoms: N_18  and  C_19
REMARK   11  A    between atoms: C_19  and  C_20
REMARK                            x       y       z     vdW  Elec       q    Type
REMARK                         _______ _______ _______ _____ _____    ______ ____
ROOT
ATOM      1  C   UNL     1      47.036   6.209  12.758  0.00  0.00    +0.000 A 
ATOM      2  C   UNL     1      46.059   5.404  13.381  0.00  0.00    +0.000 A 
ATOM      3  C   UNL     1      44.926   4.967  12.685  0.00  0.00    +0.000 A 
ATOM      4  C   UNL     1      44.768   5.263  11.327  0.00  0.00    +0.000 A 
ATOM      5  C   UNL     1      45.741   6.044  10.695  0.00  0.00    +0.000 A 
ATOM      6  C   UNL     1      46.847   6.521  11.405  0.00  0.00    +0.000 A 
ENDROOT
BRANCH   1   7
ATOM      7  C   UNL     1      48.215   6.749  13.577  0.00  0.00    +0.000 C 
BRANCH   7   8
ATOM      8  N   UNL     1      47.851   7.007  14.999  0.00  0.00    +0.000 NA
ATOM      9  H   UNL     1      46.994   6.495  15.205  0.00  0.00    +0.000 HD
BRANCH   8  10
ATOM     10  C   UNL     1      48.900   6.491  15.907  0.00  0.00    +0.000 C 
BRANCH  10  11
ATOM     11  C   UNL     1      48.687   5.114  16.506  0.00  0.00    +0.000 A 
ATOM     12  C   UNL     1      47.417   4.560  16.628  0.00  0.00    +0.000 A 
ATOM     13  C   UNL     1      47.263   3.400  17.386  0.00  0.00    +0.000 A 
ATOM     14  C   UNL     1      48.371   2.823  18.000  0.00  0.00    +0.000 A 
ATOM     15  C   UNL     1      49.602   3.421  17.807  0.00  0.00    +0.000 A 
ATOM     16  N   UNL     1      49.781   4.542  17.080  0.00  0.00    +0.000 NA
ENDBRANCH  10  11
ENDBRANCH   8  10
ENDBRANCH   7   8
BRANCH   7  17
ATOM     17  C   UNL     1      48.814   8.011  12.897  0.00  0.00    +0.000 C 
BRANCH  17  18
ATOM     18  C   UNL     1      48.545   9.335  13.604  0.00  0.00    +0.000 C 
BRANCH  18  19
ATOM     19  N   UNL     1      47.171   9.759  13.314  0.00  0.00    +0.000 NA
ATOM     20  H   UNL     1      46.843  10.388  14.045  0.00  0.00    +0.000 HD
ATOM     21  H   UNL     1      46.550   8.951  13.335  0.00  0.00    +0.000 HD
ENDBRANCH  18  19
ENDBRANCH  17  18
ENDBRANCH   7  17
ENDBRANCH   1   7
BRANCH   4  22
ATOM     22  C   UNL     1      43.558   4.782  10.565  0.00  0.00    +0.000 C 
BRANCH  22  23
ATOM     23  N   UNL     1      43.945   4.219   9.277  0.00  0.00    +0.000 NA
ATOM     24  H   UNL     1      44.728   4.755   8.902  0.00  0.00    +0.000 HD
BRANCH  23  25
ATOM     25  C   UNL     1      44.378   2.823   9.425  0.00  0.00    +0.000 C 
BRANCH  25  26
ATOM     26  C   UNL     1      45.509   2.475   8.476  0.00  0.00    +0.000 A 
ATOM     27  C   UNL     1      46.075   3.463   7.671  0.00  0.00    +0.000 A 
ATOM     28  C   UNL     1      47.122   3.123   6.820  0.00  0.00    +0.000 A 
ATOM     29  C   UNL     1      47.573   1.810   6.790  0.00  0.00    +0.000 A 
ATOM     30  C   UNL     1      46.955   0.887   7.617  0.00  0.00    +0.000 A 
ATOM     31  N   UNL     1      45.940   1.187   8.457  0.00  0.00    +0.000 NA
ENDBRANCH  25  26
ENDBRANCH  23  25
ENDBRANCH  22  23
ENDBRANCH   4  22
TORSDOF 11
ENDMDL
MODEL 3
REMARK VINA RESULT:    -6.633      1.770      2.073
REMARK INTER + INTRA:         -12.045
REMARK INTER:                 -11.207
REMARK INTRA:                  -0.838
REMARK UNBOUND:                -1.341
REMARK  Name = 
REMARK  11 active torsions:
REMARK  status: ('A' for Active; 'I' for Inactive)
REMARK    1  A    between atoms: N_1  and  C_2
REMARK    2  A    between atoms: C_2  and  C_3
REMARK    3  A    between atoms: C_3  and  C_4
REMARK    4  A    between atoms: C_4  and  N_5
REMARK    5  A    between atoms: C_4  and  C_13
REMARK    6  A    between atoms: N_5  and  C_6
REMARK    7  A    between atoms: C_6  and  C_7
REMARK    8  A    between atoms: C_16  and  C_17
REMARK    9  A    between atoms: C_17  and  N_18
REMARK   10  A    between atoms: N_18  and  C_19
REMARK   11  A    between atoms: C_19  and  C_20
REMARK                            x       y       z     vdW  Elec       q    Type
REMARK                         _______ _______ _______ _____ _____    ______ ____
ROOT
ATOM      1  C   UNL     1      45.968   5.490  11.792  0.00  0.00    +0.000 A 
ATOM      2  C   UNL     1      46.727   6.661  11.585  0.00  0.00    +0.000 A 
ATOM      3  C   UNL     1      47.618   7.130  12.558  0.00  0.00    +0.000 A 
ATOM      4  C   UNL     1      47.830   6.407  13.736  0.00  0.00    +0.000 A 
ATOM      5  C   UNL     1      47.096   5.234  13.942  0.00  0.00    +0.000 A 
ATOM      6  C   UNL     1      46.170   4.793  12.992  0.00  0.00    +0.000 A 
ENDROOT
BRANCH   1   7
ATOM      7  C   UNL     1      44.931   5.058  10.748  0.00  0.00    +0.000 C 
BRANCH   7   8
ATOM      8  N   UNL     1      45.419   5.236   9.351  0.00  0.00    +0.000 NA
ATOM      9  H   UNL     1      46.436   5.159   9.358  0.00  0.00    +0.000 HD
BRANCH   8  10
ATOM     10  C   UNL     1      44.903   4.159   8.477  0.00  0.00    +0.000 C 
BRANCH  10  11
ATOM     11  C   UNL     1      45.914   3.189   7.895  0.00  0.00    +0.000 A 
ATOM     12  C   UNL     1      46.665   3.508   6.769  0.00  0.00    +0.000 A 
ATOM     13  C   UNL     1      47.405   2.500   6.152  0.00  0.00    +0.000 A 
ATOM     14  C   UNL     1      47.380   1.208   6.668  0.00  0.00    +0.000 A 
ATOM     15  C   UNL     1      46.630   0.981   7.806  0.00  0.00    +0.000 A 
ATOM     16  N   UNL     1      45.905   1.935   8.424  0.00  0.00    +0.000 NA
ENDBRANCH  10  11
ENDBRANCH   8  10
ENDBRANCH   7   8
BRANCH   7  17
ATOM     17  C   UNL     1      43.584   5.793  10.986  0.00  0.00    +0.000 C 
BRANCH  17  18
ATOM     18  C   UNL     1      42.510   4.990  11.712  0.00  0.00    +0.000 C 
BRANCH  18  19
ATOM     19  N   UNL     1      42.796   3.560  11.552  0.00  0.00    +0.000 NA
ATOM     20  H   UNL     1      43.727   3.437  11.158  0.00  0.00    +0.000 HD
ATOM     21  H   UNL     1      42.147   3.153  10.880  0.00  0.00    +0.000 HD
ENDBRANCH  18  19
ENDBRANCH  17  18
ENDBRANCH   7  17
ENDBRANCH   1   7
BRANCH   4  22
ATOM     22  C   UNL     1      48.800   6.897  14.782  0.00  0.00    +0.000 C 
BRANCH  22  23
ATOM     23  N   UNL     1      48.465   6.358  16.095  0.00  0.00    +0.000 NA
ATOM     24  H   UNL     1      49.009   5.509  16.254  0.00  0.00    +0.000 HD
BRANCH  23  25
ATOM     25  C   UNL     1      48.799   7.318  17.156  0.00  0.00    +0.000 C 
BRANCH  25  26
ATOM     26  C   UNL     1      48.649   6.713  18.539  0.00  0.00    +0.000 A 
ATOM     27  C   UNL     1      47.404   6.705  19.167  0.00  0.00    +0.000 A 
ATOM     28  C   UNL     1      47.287   6.130  20.428  0.00  0.00    +0.000 A 
ATOM     29  C   UNL     1      48.413   5.584  21.032  0.00  0.00    +0.000 A 
ATOM     30  C   UNL     1      49.614   5.636  20.344  0.00  0.00    +0.000 A 
ATOM     31  N   UNL     1      49.758   6.183  19.116  0.00  0.00    +0.000 NA
ENDBRANCH  25  26
ENDBRANCH  23  25
ENDBRANCH  22  23
ENDBRANCH   4  22
TORSDOF 11
ENDMDL
MODEL 4
REMARK VINA RESULT:    -6.571      2.248      3.352
REMARK INTER + INTRA:         -11.946
REMARK INTER:                 -11.104
REMARK INTRA:                  -0.842
REMARK UNBOUND:                -1.341
REMARK  Name = 
REMARK  11 active torsions:
REMARK  status: ('A' for Active; 'I' for Inactive)
REMARK    1  A    between atoms: N_1  and  C_2
REMARK    2  A    between atoms: C_2  and  C_3
REMARK    3  A    between atoms: C_3  and  C_4
REMARK    4  A    between atoms: C_4  and  N_5
REMARK    5  A    between atoms: C_4  and  C_13
REMARK    6  A    between atoms: N_5  and  C_6
REMARK    7  A    between atoms: C_6  and  C_7
REMARK    8  A    between atoms: C_16  and  C_17
REMARK    9  A    between atoms: C_17  and  N_18
REMARK   10  A    between atoms: N_18  and  C_19
REMARK   11  A    between atoms: C_19  and  C_20
REMARK                            x       y       z     vdW  Elec       q    Type
REMARK                         _______ _______ _______ _____ _____    ______ ____
ROOT
ATOM      1  C   UNL     1      45.971   5.530  11.727  0.00  0.00    +0.000 A 
ATOM      2  C   UNL     1      46.645   6.745  11.482  0.00  0.00    +0.000 A 
ATOM      3  C   UNL     1      47.532   7.285  12.421  0.00  0.00    +0.000 A 
ATOM      4  C   UNL     1      47.825   6.595  13.602  0.00  0.00    +0.000 A 
ATOM      5  C   UNL     1      47.176   5.381  13.845  0.00  0.00    +0.000 A 
ATOM      6  C   UNL     1      46.253   4.867  12.929  0.00  0.00    +0.000 A 
ENDROOT
BRANCH   1   7
ATOM      7  C   UNL     1      44.934   5.017  10.720  0.00  0.00    +0.000 C 
BRANCH   7   8
ATOM      8  N   UNL     1      45.398   5.141   9.310  0.00  0.00    +0.000 NA
ATOM      9  H   UNL     1      46.416   5.083   9.304  0.00  0.00    +0.000 HD
BRANCH   8  10
ATOM     10  C   UNL     1      44.890   4.017   8.492  0.00  0.00    +0.000 C 
BRANCH  10  11
ATOM     11  C   UNL     1      45.915   3.103   7.849  0.00  0.00    +0.000 A 
ATOM     12  C   UNL     1      46.585   3.466   6.685  0.00  0.00    +0.000 A 
ATOM     13  C   UNL     1      47.341   2.500   6.020  0.00  0.00    +0.000 A 
ATOM     14  C   UNL     1      47.411   1.207   6.528  0.00  0.00    +0.000 A 
ATOM     15  C   UNL     1      46.738   0.936   7.704  0.00  0.00    +0.000 A 
ATOM     16  N   UNL     1      46.000   1.849   8.369  0.00  0.00    +0.000 NA
ENDBRANCH  10  11
ENDBRANCH   8  10
ENDBRANCH   7   8
BRANCH   7  17
ATOM     17  C   UNL     1      43.568   5.721  10.943  0.00  0.00    +0.000 C 
BRANCH  17  18
ATOM     18  C   UNL     1      42.533   4.926  11.730  0.00  0.00    +0.000 C 
BRANCH  18  19
ATOM     19  N   UNL     1      42.814   3.494  11.575  0.00  0.00    +0.000 NA
ATOM     20  H   UNL     1      43.725   3.367  11.138  0.00  0.00    +0.000 HD
ATOM     21  H   UNL     1      42.133   3.078  10.940  0.00  0.00    +0.000 HD
ENDBRANCH  18  19
ENDBRANCH  17  18
ENDBRANCH   7  17
ENDBRANCH   1   7
BRANCH   4  22
ATOM     22  C   UNL     1      48.792   7.164  14.611  0.00  0.00    +0.000 C 
BRANCH  22  23
ATOM     23  N   UNL     1      48.085   7.650  15.790  0.00  0.00    +0.000 NA
ATOM     24  H   UNL     1      48.223   6.990  16.557  0.00  0.00    +0.000 HD
BRANCH  23  25
ATOM     25  C   UNL     1      48.609   8.956  16.214  0.00  0.00    +0.000 C 
BRANCH  25  26
ATOM     26  C   UNL     1      48.028   9.398  17.543  0.00  0.00    +0.000 A 
ATOM     27  C   UNL     1      47.770   8.459  18.541  0.00  0.00    +0.000 A 
ATOM     28  C   UNL     1      47.251   8.890  19.758  0.00  0.00    +0.000 A 
ATOM     29  C   UNL     1      47.000  10.243  19.947  0.00  0.00    +0.000 A 
ATOM     30  C   UNL     1      47.279  11.112  18.905  0.00  0.00    +0.000 A 
ATOM     31  N   UNL     1      47.786  10.724  17.713  0.00  0.00    +0.000 NA
ENDBRANCH  25  26
ENDBRANCH  23  25
ENDBRANCH  22  23
ENDBRANCH   4  22
TORSDOF 11
ENDMDL
MODEL 5
REMARK VINA RESULT:    -6.498      3.241      8.094
REMARK INTER + INTRA:         -11.829
REMARK INTER:                 -10.594
REMARK INTRA:                  -1.235
REMARK UNBOUND:                -1.341
REMARK  Name = 
REMARK  11 active torsions:
REMARK  status: ('A' for Active; 'I' for Inactive)
REMARK    1  A    between atoms: N_1  and  C_2
REMARK    2  A    between atoms: C_2  and  C_3
REMARK    3  A    between atoms: C_3  and  C_4
REMARK    4  A    between atoms: C_4  and  N_5
REMARK    5  A    between atoms: C_4  and  C_13
REMARK    6  A    between atoms: N_5  and  C_6
REMARK    7  A    between atoms: C_6  and  C_7
REMARK    8  A    between atoms: C_16  and  C_17
REMARK    9  A    between atoms: C_17  and  N_18
REMARK   10  A    between atoms: N_18  and  C_19
REMARK   11  A    between atoms: C_19  and  C_20
REMARK                            x       y       z     vdW  Elec       q    Type
REMARK                         _______ _______ _______ _____ _____    ______ ____
ROOT
ATOM      1  C   UNL     1      45.846   7.018  12.468  0.00  0.00    +0.000 A 
ATOM      2  C   UNL     1      45.487   6.044  13.423  0.00  0.00    +0.000 A 
ATOM      3  C   UNL     1      45.027   4.780  13.034  0.00  0.00    +0.000 A 
ATOM      4  C   UNL     1      44.978   4.427  11.681  0.00  0.00    +0.000 A 
ATOM      5  C   UNL     1      45.350   5.379  10.727  0.00  0.00    +0.000 A 
ATOM      6  C   UNL     1      45.761   6.658  11.116  0.00  0.00    +0.000 A 
ENDROOT
BRANCH   1   7
ATOM      7  C   UNL     1      46.252   8.424  12.928  0.00  0.00    +0.000 C 
BRANCH   7   8
ATOM      8  N   UNL     1      45.124   9.395  12.859  0.00  0.00    +0.000 NA
ATOM      9  H   UNL     1      45.265  10.097  13.585  0.00  0.00    +0.000 HD
BRANCH   8  10
ATOM     10  C   UNL     1      45.122  10.101  11.559  0.00  0.00    +0.000 C 
BRANCH  10  11
ATOM     11  C   UNL     1      43.775  10.459  10.962  0.00  0.00    +0.000 A 
ATOM     12  C   UNL     1      43.592  10.566   9.587  0.00  0.00    +0.000 A 
ATOM     13  C   UNL     1      42.401  11.115   9.112  0.00  0.00    +0.000 A 
ATOM     14  C   UNL     1      41.428  11.538  10.011  0.00  0.00    +0.000 A 
ATOM     15  C   UNL     1      41.676  11.371  11.360  0.00  0.00    +0.000 A 
ATOM     16  N   UNL     1      42.817  10.844  11.848  0.00  0.00    +0.000 NA
ENDBRANCH  10  11
ENDBRANCH   8  10
ENDBRANCH   7   8
BRANCH   7  17
ATOM     17  C   UNL     1      47.489   8.918  12.130  0.00  0.00    +0.000 C 
BRANCH  17  18
ATOM     18  C   UNL     1      48.441   9.838  12.886  0.00  0.00    +0.000 C 
BRANCH  18  19
ATOM     19  N   UNL     1      48.082   9.829  14.308  0.00  0.00    +0.000 NA
ATOM     20  H   UNL     1      48.812  10.289  14.851  0.00  0.00    +0.000 HD
ATOM     21  H   UNL     1      48.041   8.868  14.646  0.00  0.00    +0.000 HD
ENDBRANCH  18  19
ENDBRANCH  17  18
ENDBRANCH   7  17
ENDBRANCH   1   7
BRANCH   4  22
ATOM     22  C   UNL     1      44.499   3.061  11.254  0.00  0.00    +0.000 C 
BRANCH  22  23
ATOM     23  N   UNL     1      44.015   3.088   9.879  0.00  0.00    +0.000 NA
ATOM     24  H   UNL     1      44.436   3.881   9.394  0.00  0.00    +0.000 HD
BRANCH  23  25
ATOM     25  C   UNL     1      44.399   1.862   9.165  0.00  0.00    +0.000 C 
BRANCH  25  26
ATOM     26  C   UNL     1      45.597   2.082   8.261  0.00  0.00    +0.000 A 
ATOM     27  C   UNL     1      45.832   3.339   7.704  0.00  0.00    +0.000 A 
ATOM     28  C   UNL     1      46.946   3.520   6.891  0.00  0.00    +0.000 A 
ATOM     29  C   UNL     1      47.793   2.446   6.650  0.00  0.00    +0.000 A 
ATOM     30  C   UNL     1      47.488   1.229   7.237  0.00  0.00    +0.000 A 
ATOM     31  N   UNL     1      46.416   1.023   8.035  0.00  0.00    +0.000 NA
ENDBRANCH  25  26
ENDBRANCH  23  25
ENDBRANCH  22  23
ENDBRANCH   4  22
TORSDOF 11
ENDMDL
MODEL 6
REMARK VINA RESULT:    -6.307      1.775      9.047
REMARK INTER + INTRA:         -11.521
REMARK INTER:                 -10.507
REMARK INTRA:                  -1.014
REMARK UNBOUND:                -1.341
REMARK  Name = 
REMARK  11 active torsions:
REMARK  status: ('A' for Active; 'I' for Inactive)
REMARK    1  A    between atoms: N_1  and  C_2
REMARK    2  A    between atoms: C_2  and  C_3
REMARK    3  A    between atoms: C_3  and  C_4
REMARK    4  A    between atoms: C_4  and  N_5
REMARK    5  A    between atoms: C_4  and  C_13
REMARK    6  A    between atoms: N_5  and  C_6
REMARK    7  A    between atoms: C_6  and  C_7
REMARK    8  A    between atoms: C_16  and  C_17
REMARK    9  A    between atoms: C_17  and  N_18
REMARK   10  A    between atoms: N_18  and  C_19
REMARK   11  A    between atoms: C_19  and  C_20
REMARK                            x       y       z     vdW  Elec       q    Type
REMARK                         _______ _______ _______ _____ _____    ______ ____
ROOT
ATOM      1  C   UNL     1      47.505   6.131  13.335  0.00  0.00    +0.000 A 
ATOM      2  C   UNL     1      46.989   4.883  13.744  0.00  0.00    +0.000 A 
ATOM      3  C   UNL     1      45.980   4.241  13.016  0.00  0.00    +0.000 A 
ATOM      4  C   UNL     1      45.504   4.791  11.821  0.00  0.00    +0.000 A 
ATOM      5  C   UNL     1      46.023   6.019  11.398  0.00  0.00    +0.000 A 
ATOM      6  C   UNL     1      46.995   6.684  12.152  0.00  0.00    +0.000 A 
ENDROOT
BRANCH   1   7
ATOM      7  C   UNL     1      48.540   6.852  14.207  0.00  0.00    +0.000 C 
BRANCH   7   8
ATOM      8  N   UNL     1      48.091   6.999  15.621  0.00  0.00    +0.000 NA
ATOM      9  H   UNL     1      47.130   6.666  15.685  0.00  0.00    +0.000 HD
BRANCH   8  10
ATOM     10  C   UNL     1      48.910   6.155  16.519  0.00  0.00    +0.000 C 
BRANCH  10  11
ATOM     11  C   UNL     1      48.690   6.308  18.012  0.00  0.00    +0.000 A 
ATOM     12  C   UNL     1      47.599   5.730  18.651  0.00  0.00    +0.000 A 
ATOM     13  C   UNL     1      47.328   6.091  19.970  0.00  0.00    +0.000 A 
ATOM     14  C   UNL     1      48.147   7.011  20.617  0.00  0.00    +0.000 A 
ATOM     15  C   UNL     1      49.227   7.518  19.920  0.00  0.00    +0.000 A 
ATOM     16  N   UNL     1      49.513   7.188  18.645  0.00  0.00    +0.000 NA
ENDBRANCH  10  11
ENDBRANCH   8  10
ENDBRANCH   7   8
BRANCH   7  17
ATOM     17  C   UNL     1      48.921   8.219  13.578  0.00  0.00    +0.000 C 
BRANCH  17  18
ATOM     18  C   UNL     1      49.306   9.318  14.562  0.00  0.00    +0.000 C 
BRANCH  18  19
ATOM     19  N   UNL     1      48.084   9.908  15.119  0.00  0.00    +0.000 NA
ATOM     20  H   UNL     1      47.465   9.169  15.450  0.00  0.00    +0.000 HD
ATOM     21  H   UNL     1      47.574  10.399  14.386  0.00  0.00    +0.000 HD
ENDBRANCH  18  19
ENDBRANCH  17  18
ENDBRANCH   7  17
ENDBRANCH   1   7
BRANCH   4  22
ATOM     22  C   UNL     1      44.428   4.097  11.024  0.00  0.00    +0.000 C 
BRANCH  22  23
ATOM     23  N   UNL     1      44.791   2.709  10.762  0.00  0.00    +0.000 NA
ATOM     24  H   UNL     1      44.329   2.110  11.447  0.00  0.00    +0.000 HD
BRANCH  23  25
ATOM     25  C   UNL     1      44.347   2.296   9.423  0.00  0.00    +0.000 C 
BRANCH  25  26
ATOM     26  C   UNL     1      45.486   2.293   8.421  0.00  0.00    +0.000 A 
ATOM     27  C   UNL     1      45.787   3.449   7.702  0.00  0.00    +0.000 A 
ATOM     28  C   UNL     1      46.846   3.428   6.800  0.00  0.00    +0.000 A 
ATOM     29  C   UNL     1      47.573   2.256   6.635  0.00  0.00    +0.000 A 
ATOM     30  C   UNL     1      47.208   1.149   7.383  0.00  0.00    +0.000 A 
ATOM     31  N   UNL     1      46.187   1.140   8.270  0.00  0.00    +0.000 NA
ENDBRANCH  25  26
ENDBRANCH  23  25
ENDBRANCH  22  23
ENDBRANCH   4  22
TORSDOF 11
ENDMDL
MODEL 7
REMARK VINA RESULT:    -6.249      1.917      8.195
REMARK INTER + INTRA:         -11.427
REMARK INTER:                  -9.908
REMARK INTRA:                  -1.519
REMARK UNBOUND:                -1.341
REMARK  Name = 
REMARK  11 active torsions:
REMARK  status: ('A' for Active; 'I' for Inactive)
REMARK    1  A    between atoms: N_1  and  C_2
REMARK    2  A    between atoms: C_2  and  C_3
REMARK    3  A    between atoms: C_3  and  C_4
REMARK    4  A    between atoms: C_4  and  N_5
REMARK    5  A    between atoms: C_4  and  C_13
REMARK    6  A    between atoms: N_5  and  C_6
REMARK    7  A    between atoms: C_6  and  C_7
REMARK    8  A    between atoms: C_16  and  C_17
REMARK    9  A    between atoms: C_17  and  N_18
REMARK   10  A    between atoms: N_18  and  C_19
REMARK   11  A    between atoms: C_19  and  C_20
REMARK                            x       y       z     vdW  Elec       q    Type
REMARK                         _______ _______ _______ _____ _____    ______ ____
ROOT
ATOM      1  C   UNL     1      47.291   6.531  13.268  0.00  0.00    +0.000 A 
ATOM      2  C   UNL     1      47.352   5.164  13.609  0.00  0.00    +0.000 A 
ATOM      3  C   UNL     1      46.203   4.364  13.610  0.00  0.00    +0.000 A 
ATOM      4  C   UNL     1      44.972   4.887  13.203  0.00  0.00    +0.000 A 
ATOM      5  C   UNL     1      44.905   6.237  12.844  0.00  0.00    +0.000 A 
ATOM      6  C   UNL     1      46.043   7.048  12.892  0.00  0.00    +0.000 A 
ENDROOT
BRANCH   1   7
ATOM      7  C   UNL     1      48.551   7.401  13.371  0.00  0.00    +0.000 C 
BRANCH   7   8
ATOM      8  N   UNL     1      49.549   6.847  14.329  0.00  0.00    +0.000 NA
ATOM      9  H   UNL     1      50.479   6.997  13.940  0.00  0.00    +0.000 HD
BRANCH   8  10
ATOM     10  C   UNL     1      49.491   7.569  15.619  0.00  0.00    +0.000 C 
BRANCH  10  11
ATOM     11  C   UNL     1      48.909   6.828  16.808  0.00  0.00    +0.000 A 
ATOM     12  C   UNL     1      48.630   5.466  16.751  0.00  0.00    +0.000 A 
ATOM     13  C   UNL     1      47.892   4.892  17.786  0.00  0.00    +0.000 A 
ATOM     14  C   UNL     1      47.455   5.682  18.845  0.00  0.00    +0.000 A 
ATOM     15  C   UNL     1      47.799   7.021  18.839  0.00  0.00    +0.000 A 
ATOM     16  N   UNL     1      48.510   7.603  17.853  0.00  0.00    +0.000 NA
ENDBRANCH  10  11
ENDBRANCH   8  10
ENDBRANCH   7   8
BRANCH   7  17
ATOM     17  C   UNL     1      48.170   8.866  13.717  0.00  0.00    +0.000 C 
BRANCH  17  18
ATOM     18  C   UNL     1      48.279   9.866  12.571  0.00  0.00    +0.000 C 
BRANCH  18  19
ATOM     19  N   UNL     1      47.394  11.003  12.846  0.00  0.00    +0.000 NA
ATOM     20  H   UNL     1      47.795  11.854  12.455  0.00  0.00    +0.000 HD
ATOM     21  H   UNL     1      47.332  11.155  13.852  0.00  0.00    +0.000 HD
ENDBRANCH  18  19
ENDBRANCH  17  18
ENDBRANCH   7  17
ENDBRANCH   1   7
BRANCH   4  22
ATOM     22  C   UNL     1      43.732   4.027  13.186  0.00  0.00    +0.000 C 
BRANCH  22  23
ATOM     23  N   UNL     1      43.976   2.780  12.471  0.00  0.00    +0.000 NA
ATOM     24  H   UNL     1      43.616   2.002  13.026  0.00  0.00    +0.000 HD
BRANCH  23  25
ATOM     25  C   UNL     1      43.282   2.774  11.176  0.00  0.00    +0.000 C 
BRANCH  25  26
ATOM     26  C   UNL     1      44.240   2.973  10.016  0.00  0.00    +0.000 A 
ATOM     27  C   UNL     1      44.591   4.260   9.613  0.00  0.00    +0.000 A 
ATOM     28  C   UNL     1      45.483   4.418   8.557  0.00  0.00    +0.000 A 
ATOM     29  C   UNL     1      45.996   3.291   7.928  0.00  0.00    +0.000 A 
ATOM     30  C   UNL     1      45.594   2.047   8.385  0.00  0.00    +0.000 A 
ATOM     31  N   UNL     1      44.733   1.861   9.411  0.00  0.00    +0.000 NA
ENDBRANCH  25  26
ENDBRANCH  23  25
ENDBRANCH  22  23
ENDBRANCH   4  22
TORSDOF 11
ENDMDL
MODEL 8
REMARK VINA RESULT:    -6.079      1.780      2.878
REMARK INTER + INTRA:         -11.152
REMARK INTER:                  -9.953
REMARK INTRA:                  -1.199
REMARK UNBOUND:                -1.341
REMARK  Name = 
REMARK  11 active torsions:
REMARK  status: ('A' for Active; 'I' for Inactive)
REMARK    1  A    between atoms: N_1  and  C_2
REMARK    2  A    between atoms: C_2  and  C_3
REMARK    3  A    between atoms: C_3  and  C_4
REMARK    4  A    between atoms: C_4  and  N_5
REMARK    5  A    between atoms: C_4  and  C_13
REMARK    6  A    between atoms: N_5  and  C_6
REMARK    7  A    between atoms: C_6  and  C_7
REMARK    8  A    between atoms: C_16  and  C_17
REMARK    9  A    between atoms: C_17  and  N_18
REMARK   10  A    between atoms: N_18  and  C_19
REMARK   11  A    between atoms: C_19  and  C_20
REMARK                            x       y       z     vdW  Elec       q    Type
REMARK                         _______ _______ _______ _____ _____    ______ ____
ROOT
ATOM      1  C   UNL     1      46.555   7.653  12.867  0.00  0.00    +0.000 A 
ATOM      2  C   UNL     1      47.438   6.558  12.759  0.00  0.00    +0.000 A 
ATOM      3  C   UNL     1      48.705   6.584  13.354  0.00  0.00    +0.000 A 
ATOM      4  C   UNL     1      49.102   7.676  14.133  0.00  0.00    +0.000 A 
ATOM      5  C   UNL     1      48.227   8.759  14.262  0.00  0.00    +0.000 A 
ATOM      6  C   UNL     1      46.981   8.752  13.626  0.00  0.00    +0.000 A 
ENDROOT
BRANCH   1   7
ATOM      7  C   UNL     1      45.215   7.630  12.123  0.00  0.00    +0.000 C 
BRANCH   7   8
ATOM      8  N   UNL     1      45.286   6.869  10.843  0.00  0.00    +0.000 NA
ATOM      9  H   UNL     1      46.268   6.698  10.631  0.00  0.00    +0.000 HD
BRANCH   8  10
ATOM     10  C   UNL     1      44.629   5.551  10.982  0.00  0.00    +0.000 C 
BRANCH  10  11
ATOM     11  C   UNL     1      44.858   4.538   9.876  0.00  0.00    +0.000 A 
ATOM     12  C   UNL     1      44.460   3.212  10.009  0.00  0.00    +0.000 A 
ATOM     13  C   UNL     1      44.897   2.285   9.063  0.00  0.00    +0.000 A 
ATOM     14  C   UNL     1      45.712   2.699   8.014  0.00  0.00    +0.000 A 
ATOM     15  C   UNL     1      46.040   4.040   7.940  0.00  0.00    +0.000 A 
ATOM     16  N   UNL     1      45.632   4.958   8.839  0.00  0.00    +0.000 NA
ENDBRANCH  10  11
ENDBRANCH   8  10
ENDBRANCH   7   8
BRANCH   7  17
ATOM     17  C   UNL     1      44.689   9.075  11.907  0.00  0.00    +0.000 C 
BRANCH  17  18
ATOM     18  C   UNL     1      43.785   9.277  10.697  0.00  0.00    +0.000 C 
BRANCH  18  19
ATOM     19  N   UNL     1      42.539   8.531  10.903  0.00  0.00    +0.000 NA
ATOM     20  H   UNL     1      42.410   7.859  10.149  0.00  0.00    +0.000 HD
ATOM     21  H   UNL     1      41.745   9.168  10.855  0.00  0.00    +0.000 HD
ENDBRANCH  18  19
ENDBRANCH  17  18
ENDBRANCH   7  17
ENDBRANCH   1   7
BRANCH   4  22
ATOM     22  C   UNL     1      50.460   7.705  14.790  0.00  0.00    +0.000 C 
BRANCH  22  23
ATOM     23  N   UNL     1      50.691   6.487  15.557  0.00  0.00    +0.000 NA
ATOM     24  H   UNL     1      51.681   6.431  15.802  0.00  0.00    +0.000 HD
BRANCH  23  25
ATOM     25  C   UNL     1      49.914   6.498  16.804  0.00  0.00    +0.000 C 
BRANCH  25  26
ATOM     26  C   UNL     1      49.167   5.196  17.021  0.00  0.00    +0.000 A 
ATOM     27  C   UNL     1      49.833   4.085  17.537  0.00  0.00    +0.000 A 
ATOM     28  C   UNL     1      49.123   2.906  17.742  0.00  0.00    +0.000 A 
ATOM     29  C   UNL     1      47.772   2.864  17.423  0.00  0.00    +0.000 A 
ATOM     30  C   UNL     1      47.185   4.008  16.909  0.00  0.00    +0.000 A 
ATOM     31  N   UNL     1      47.847   5.169  16.703  0.00  0.00    +0.000 NA
ENDBRANCH  25  26
ENDBRANCH  23  25
ENDBRANCH  22  23
ENDBRANCH   4  22
TORSDOF 11
ENDMDL
MODEL 9
REMARK VINA RESULT:    -6.039      2.846      4.454
REMARK INTER + INTRA:         -11.087
REMARK INTER:                 -10.230
REMARK INTRA:                  -0.857
REMARK UNBOUND:                -1.341
REMARK  Name = 
REMARK  11 active torsions:
REMARK  status: ('A' for Active; 'I' for Inactive)
REMARK    1  A    between atoms: N_1  and  C_2
REMARK    2  A    between atoms: C_2  and  C_3
REMARK    3  A    between atoms: C_3  and  C_4
REMARK    4  A    between atoms: C_4  and  N_5
REMARK    5  A    between atoms: C_4  and  C_13
REMARK    6  A    between atoms: N_5  and  C_6
REMARK    7  A    between atoms: C_6  and  C_7
REMARK    8  A    between atoms: C_16  and  C_17
REMARK    9  A    between atoms: C_17  and  N_18
REMARK   10  A    between atoms: N_18  and  C_19
REMARK   11  A    between atoms: C_19  and  C_20
REMARK                            x       y       z     vdW  Elec       q    Type
REMARK                         _______ _______ _______ _____ _____    ______ ____
ROOT
ATOM      1  C   UNL     1      45.771   5.474  11.746  0.00  0.00    +0.000 A 
ATOM      2  C   UNL     1      46.022   6.819  11.404  0.00  0.00    +0.000 A 
ATOM      3  C   UNL     1      46.953   7.587  12.113  0.00  0.00    +0.000 A 
ATOM      4  C   UNL     1      47.711   7.016  13.140  0.00  0.00    +0.000 A 
ATOM      5  C   UNL     1      47.484   5.678  13.474  0.00  0.00    +0.000 A 
ATOM      6  C   UNL     1      46.518   4.925  12.798  0.00  0.00    +0.000 A 
ENDROOT
BRANCH   1   7
ATOM      7  C   UNL     1      44.676   4.691  11.011  0.00  0.00    +0.000 C 
BRANCH   7   8
ATOM      8  N   UNL     1      44.873   4.685   9.534  0.00  0.00    +0.000 NA
ATOM      9  H   UNL     1      45.843   4.931   9.342  0.00  0.00    +0.000 HD
BRANCH   8  10
ATOM     10  C   UNL     1      44.646   3.330   8.983  0.00  0.00    +0.000 C 
BRANCH  10  11
ATOM     11  C   UNL     1      45.740   2.738   8.115  0.00  0.00    +0.000 A 
ATOM     12  C   UNL     1      46.203   3.393   6.979  0.00  0.00    +0.000 A 
ATOM     13  C   UNL     1      47.040   2.702   6.103  0.00  0.00    +0.000 A 
ATOM     14  C   UNL     1      47.394   1.386   6.380  0.00  0.00    +0.000 A 
ATOM     15  C   UNL     1      46.913   0.817   7.543  0.00  0.00    +0.000 A 
ATOM     16  N   UNL     1      46.103   1.460   8.408  0.00  0.00    +0.000 NA
ENDBRANCH  10  11
ENDBRANCH   8  10
ENDBRANCH   7   8
BRANCH   7  17
ATOM     17  C   UNL     1      43.272   5.224  11.404  0.00  0.00    +0.000 C 
BRANCH  17  18
ATOM     18  C   UNL     1      42.901   5.091  12.877  0.00  0.00    +0.000 C 
BRANCH  18  19
ATOM     19  N   UNL     1      43.259   3.745  13.338  0.00  0.00    +0.000 NA
ATOM     20  H   UNL     1      42.800   3.047  12.754  0.00  0.00    +0.000 HD
ATOM     21  H   UNL     1      42.906   3.600  14.283  0.00  0.00    +0.000 HD
ENDBRANCH  18  19
ENDBRANCH  17  18
ENDBRANCH   7  17
ENDBRANCH   1   7
BRANCH   4  22
ATOM     22  C   UNL     1      48.728   7.834  13.898  0.00  0.00    +0.000 C 
BRANCH  22  23
ATOM     23  N   UNL     1      50.072   7.306  13.698  0.00  0.00    +0.000 NA
ATOM     24  H   UNL     1      50.086   6.748  12.843  0.00  0.00    +0.000 HD
BRANCH  23  25
ATOM     25  C   UNL     1      51.045   8.396  13.545  0.00  0.00    +0.000 C 
BRANCH  25  26
ATOM     26  C   UNL     1      51.636   8.441  12.148  0.00  0.00    +0.000 A 
ATOM     27  C   UNL     1      51.296   7.463  11.214  0.00  0.00    +0.000 A 
ATOM     28  C   UNL     1      51.837   7.533   9.935  0.00  0.00    +0.000 A 
ATOM     29  C   UNL     1      52.706   8.571   9.621  0.00  0.00    +0.000 A 
ATOM     30  C   UNL     1      52.997   9.500  10.607  0.00  0.00    +0.000 A 
ATOM     31  N   UNL     1      52.484   9.461  11.857  0.00  0.00    +0.000 NA
ENDBRANCH  25  26
ENDBRANCH  23  25
ENDBRANCH  22  23
ENDBRANCH   4  22
TORSDOF 11
ENDMDL
