MODEL 1
REMARK VINA RESULT:    -8.113      0.000      0.000
REMARK INTER + INTRA:         -11.742
REMARK INTER:                 -11.196
REMARK INTRA:                  -0.546
REMARK UNBOUND:                -0.546
REMARK  Name = 
REMARK  7 active torsions:
REMARK  status: ('A' for Active; 'I' for Inactive)
REMARK    1  A    between atoms: C_2  and  C_4
REMARK    2  A    between atoms: C_7  and  C_8
REMARK    3  A    between atoms: C_8  and  S_9
REMARK    4  A    between atoms: S_9  and  C_10
REMARK    5  A    between atoms: C_14  and  N_15
REMARK    6  A    between atoms: N_15  and  C_16
REMARK    7  A    between atoms: C_19  and  O_20
REMARK                            x       y       z     vdW  Elec       q    Type
REMARK                         _______ _______ _______ _____ _____    ______ ____
ROOT
ATOM      1  C   UNL     1      45.048   5.127  11.957  0.00  0.00    +0.000 A 
ATOM      2  C   UNL     1      45.764   6.282  11.627  0.00  0.00    +0.000 A 
ATOM      3  C   UNL     1      46.945   6.593  12.291  0.00  0.00    +0.000 A 
ATOM      4  C   UNL     1      47.404   5.769  13.318  0.00  0.00    +0.000 A 
ATOM      5  C   UNL     1      46.661   4.663  13.748  0.00  0.00    +0.000 A 
ATOM      6  C   UNL     1      45.506   4.326  13.015  0.00  0.00    +0.000 A 
ENDROOT
BRANCH   5   7
ATOM      7  N   UNL     1      47.082   3.819  14.788  0.00  0.00    +0.000 N 
ATOM      8  H   UNL     1      46.650   2.900  14.729  0.00  0.00    +0.000 HD
BRANCH   7   9
ATOM      9  C   UNL     1      47.166   4.337  16.158  0.00  0.00    +0.000 C 
ATOM     10  C   UNL     1      48.442   5.180  16.351  0.00  0.00    +0.000 C 
ATOM     11  C   UNL     1      49.278   4.480  17.418  0.00  0.00    +0.000 C 
ATOM     12  C   UNL     1      48.283   3.655  18.219  0.00  0.00    +0.000 C 
ATOM     13  C   UNL     1      47.248   3.209  17.200  0.00  0.00    +0.000 C 
BRANCH  12  14
ATOM     14  O   UNL     1      47.679   4.432  19.248  0.00  0.00    +0.000 OA
ATOM     15  H   UNL     1      46.910   3.958  19.599  0.00  0.00    +0.000 HD
ENDBRANCH  12  14
ENDBRANCH   7   9
ENDBRANCH   5   7
BRANCH   1  16
ATOM     16  S   UNL     1      43.684   4.710  10.880  0.00  0.00    +0.000 S 
BRANCH  16  17
ATOM     17  C   UNL     1      43.924   2.931  10.531  0.00  0.00    +0.000 C 
BRANCH  17  21
ATOM     18  C   UNL     1      46.640   2.306   7.288  0.00  0.00    +0.000 A 
ATOM     19  C   UNL     1      46.162   3.594   7.521  0.00  0.00    +0.000 A 
ATOM     20  C   UNL     1      45.253   3.806   8.556  0.00  0.00    +0.000 A 
ATOM     21  C   UNL     1      44.860   2.729   9.354  0.00  0.00    +0.000 A 
ATOM     22  N   UNL     1      45.288   1.462   9.110  0.00  0.00    +0.000 NA
ATOM     23  C   UNL     1      46.161   1.279   8.087  0.00  0.00    +0.000 A 
BRANCH  18  25
ATOM     24  N   UNL     1      48.765   2.751   6.213  0.00  0.00    +0.000 N 
ATOM     25  C   UNL     1      47.623   2.003   6.234  0.00  0.00    +0.000 C 
ATOM     26  O   UNL     1      47.442   1.091   5.432  0.00  0.00    +0.000 OA
ATOM     27  H   UNL     1      49.479   2.468   5.554  0.00  0.00    +0.000 HD
ATOM     28  H   UNL     1      49.060   3.309   7.004  0.00  0.00    +0.000 HD
ENDBRANCH  18  25
ENDBRANCH  17  21
ENDBRANCH  16  17
ENDBRANCH   1  16
TORSDOF 7
ENDMDL
MODEL 2
REMARK VINA RESULT:    -7.900      2.964      4.238
REMARK INTER + INTRA:         -11.448
REMARK INTER:                 -10.557
REMARK INTRA:                  -0.891
REMARK UNBOUND:                -0.546
REMARK  Name = 
REMARK  7 active torsions:
REMARK  status: ('A' for Active; 'I' for Inactive)
REMARK    1  A    between atoms: C_2  and  C_4
REMARK    2  A    between atoms: C_7  and  C_8
REMARK    3  A    between atoms: C_8  and  S_9
REMARK    4  A    between atoms: S_9  and  C_10
REMARK    5  A    between atoms: C_14  and  N_15
REMARK    6  A    between atoms: N_15  and  C_16
REMARK    7  A    between atoms: C_19  and  O_20
REMARK                            x       y       z     vdW  Elec       q    Type
REMARK                         _______ _______ _______ _____ _____    ______ ____
ROOT
ATOM      1  C   UNL     1      45.109   4.401  12.375  0.00  0.00    +0.000 A 
ATOM      2  C   UNL     1      45.968   3.482  12.986  0.00  0.00    +0.000 A 
ATOM      3  C   UNL     1      46.999   3.921  13.809  0.00  0.00    +0.000 A 
ATOM      4  C   UNL     1      47.203   5.287  14.001  0.00  0.00    +0.000 A 
ATOM      5  C   UNL     1      46.432   6.238  13.324  0.00  0.00    +0.000 A 
ATOM      6  C   UNL     1      45.348   5.773  12.553  0.00  0.00    +0.000 A 
ENDROOT
BRANCH   5   7
ATOM      7  N   UNL     1      46.616   7.622  13.479  0.00  0.00    +0.000 N 
ATOM      8  H   UNL     1      45.828   8.059  13.951  0.00  0.00    +0.000 HD
BRANCH   7   9
ATOM      9  C   UNL     1      47.142   8.415  12.363  0.00  0.00    +0.000 C 
ATOM     10  C   UNL     1      48.349   7.715  11.708  0.00  0.00    +0.000 C 
ATOM     11  C   UNL     1      49.548   8.642  11.885  0.00  0.00    +0.000 C 
ATOM     12  C   UNL     1      48.950  10.028  12.065  0.00  0.00    +0.000 C 
ATOM     13  C   UNL     1      47.654   9.791  12.822  0.00  0.00    +0.000 C 
BRANCH  12  14
ATOM     14  O   UNL     1      48.697  10.648  10.809  0.00  0.00    +0.000 OA
ATOM     15  H   UNL     1      48.158  11.442  10.945  0.00  0.00    +0.000 HD
ENDBRANCH  12  14
ENDBRANCH   7   9
ENDBRANCH   5   7
BRANCH   1  16
ATOM     16  S   UNL     1      43.686   3.715  11.538  0.00  0.00    +0.000 S 
BRANCH  16  17
ATOM     17  C   UNL     1      43.781   4.422   9.854  0.00  0.00    +0.000 C 
BRANCH  17  21
ATOM     18  C   UNL     1      46.641   2.410   7.392  0.00  0.00    +0.000 A 
ATOM     19  C   UNL     1      45.988   1.686   8.388  0.00  0.00    +0.000 A 
ATOM     20  C   UNL     1      45.077   2.336   9.216  0.00  0.00    +0.000 A 
ATOM     21  C   UNL     1      44.816   3.693   9.016  0.00  0.00    +0.000 A 
ATOM     22  N   UNL     1      45.476   4.420   8.076  0.00  0.00    +0.000 NA
ATOM     23  C   UNL     1      46.370   3.767   7.291  0.00  0.00    +0.000 A 
BRANCH  18  25
ATOM     24  N   UNL     1      48.812   2.396   6.318  0.00  0.00    +0.000 N 
ATOM     25  C   UNL     1      47.596   1.792   6.457  0.00  0.00    +0.000 C 
ATOM     26  O   UNL     1      47.326   0.754   5.859  0.00  0.00    +0.000 OA
ATOM     27  H   UNL     1      49.498   1.907   5.756  0.00  0.00    +0.000 HD
ATOM     28  H   UNL     1      49.158   3.075   6.984  0.00  0.00    +0.000 HD
ENDBRANCH  18  25
ENDBRANCH  17  21
ENDBRANCH  16  17
ENDBRANCH   1  16
TORSDOF 7
ENDMDL
MODEL 3
REMARK VINA RESULT:    -7.436      3.678      5.579
REMARK INTER + INTRA:         -10.807
REMARK INTER:                 -10.020
REMARK INTRA:                  -0.787
REMARK UNBOUND:                -0.546
REMARK  Name = 
REMARK  7 active torsions:
REMARK  status: ('A' for Active; 'I' for Inactive)
REMARK    1  A    between atoms: C_2  and  C_4
REMARK    2  A    between atoms: C_7  and  C_8
REMARK    3  A    between atoms: C_8  and  S_9
REMARK    4  A    between atoms: S_9  and  C_10
REMARK    5  A    between atoms: C_14  and  N_15
REMARK    6  A    between atoms: N_15  and  C_16
REMARK    7  A    between atoms: C_19  and  O_20
REMARK                            x       y       z     vdW  Elec       q    Type
REMARK                         _______ _______ _______ _____ _____    ______ ____
ROOT
ATOM      1  C   UNL     1      45.411   5.230  12.459  0.00  0.00    +0.000 A 
ATOM      2  C   UNL     1      46.727   5.201  12.929  0.00  0.00    +0.000 A 
ATOM      3  C   UNL     1      47.359   6.373  13.330  0.00  0.00    +0.000 A 
ATOM      4  C   UNL     1      46.690   7.592  13.229  0.00  0.00    +0.000 A 
ATOM      5  C   UNL     1      45.412   7.676  12.665  0.00  0.00    +0.000 A 
ATOM      6  C   UNL     1      44.764   6.470  12.334  0.00  0.00    +0.000 A 
ENDROOT
BRANCH   5   7
ATOM      7  N   UNL     1      44.713   8.886  12.534  0.00  0.00    +0.000 N 
ATOM      8  H   UNL     1      43.876   8.906  13.111  0.00  0.00    +0.000 HD
BRANCH   7   9
ATOM      9  C   UNL     1      44.519   9.474  11.204  0.00  0.00    +0.000 C 
ATOM     10  C   UNL     1      44.897  10.968  11.200  0.00  0.00    +0.000 C 
ATOM     11  C   UNL     1      43.631  11.744  10.848  0.00  0.00    +0.000 C 
ATOM     12  C   UNL     1      42.758  10.753  10.097  0.00  0.00    +0.000 C 
ATOM     13  C   UNL     1      43.050   9.413  10.752  0.00  0.00    +0.000 C 
BRANCH  12  14
ATOM     14  O   UNL     1      43.085  10.722   8.712  0.00  0.00    +0.000 OA
ATOM     15  H   UNL     1      42.308  10.976   8.192  0.00  0.00    +0.000 HD
ENDBRANCH  12  14
ENDBRANCH   7   9
ENDBRANCH   5   7
BRANCH   1  16
ATOM     16  S   UNL     1      44.630   3.643  12.202  0.00  0.00    +0.000 S 
BRANCH  16  17
ATOM     17  C   UNL     1      43.829   3.805  10.565  0.00  0.00    +0.000 C 
BRANCH  17  21
ATOM     18  C   UNL     1      46.572   2.604   7.513  0.00  0.00    +0.000 A 
ATOM     19  C   UNL     1      46.253   3.956   7.631  0.00  0.00    +0.000 A 
ATOM     20  C   UNL     1      45.338   4.357   8.602  0.00  0.00    +0.000 A 
ATOM     21  C   UNL     1      44.778   3.400   9.452  0.00  0.00    +0.000 A 
ATOM     22  N   UNL     1      45.050   2.075   9.319  0.00  0.00    +0.000 NA
ATOM     23  C   UNL     1      45.934   1.708   8.357  0.00  0.00    +0.000 A 
BRANCH  18  25
ATOM     24  N   UNL     1      47.986   2.981   5.582  0.00  0.00    +0.000 N 
ATOM     25  C   UNL     1      47.551   2.103   6.532  0.00  0.00    +0.000 C 
ATOM     26  O   UNL     1      47.986   0.956   6.592  0.00  0.00    +0.000 OA
ATOM     27  H   UNL     1      48.734   2.660   4.979  0.00  0.00    +0.000 HD
ATOM     28  H   UNL     1      47.859   3.981   5.671  0.00  0.00    +0.000 HD
ENDBRANCH  18  25
ENDBRANCH  17  21
ENDBRANCH  16  17
ENDBRANCH   1  16
TORSDOF 7
ENDMDL
MODEL 4
REMARK VINA RESULT:    -7.129      3.772      7.681
REMARK INTER + INTRA:         -10.384
REMARK INTER:                  -9.424
REMARK INTRA:                  -0.961
REMARK UNBOUND:                -0.546
REMARK  Name = 
REMARK  7 active torsions:
REMARK  status: ('A' for Active; 'I' for Inactive)
REMARK    1  A    between atoms: C_2  and  C_4
REMARK    2  A    between atoms: C_7  and  C_8
REMARK    3  A    between atoms: C_8  and  S_9
REMARK    4  A    between atoms: S_9  and  C_10
REMARK    5  A    between atoms: C_14  and  N_15
REMARK    6  A    between atoms: N_15  and  C_16
REMARK    7  A    between atoms: C_19  and  O_20
REMARK                            x       y       z     vdW  Elec       q    Type
REMARK                         _______ _______ _______ _____ _____    ______ ____
ROOT
ATOM      1  C   UNL     1      46.822   8.984  12.425  0.00  0.00    +0.000 A 
ATOM      2  C   UNL     1      46.467  10.271  12.008  0.00  0.00    +0.000 A 
ATOM      3  C   UNL     1      45.222  10.508  11.436  0.00  0.00    +0.000 A 
ATOM      4  C   UNL     1      44.333   9.451  11.243  0.00  0.00    +0.000 A 
ATOM      5  C   UNL     1      44.693   8.134  11.550  0.00  0.00    +0.000 A 
ATOM      6  C   UNL     1      45.929   7.927  12.194  0.00  0.00    +0.000 A 
ENDROOT
BRANCH   5   7
ATOM      7  N   UNL     1      43.832   7.041  11.356  0.00  0.00    +0.000 N 
ATOM      8  H   UNL     1      42.874   7.263  11.613  0.00  0.00    +0.000 HD
BRANCH   7   9
ATOM      9  C   UNL     1      44.254   5.700  11.772  0.00  0.00    +0.000 C 
ATOM     10  C   UNL     1      44.869   4.923  10.591  0.00  0.00    +0.000 C 
ATOM     11  C   UNL     1      43.985   3.702  10.357  0.00  0.00    +0.000 C 
ATOM     12  C   UNL     1      43.288   3.459  11.686  0.00  0.00    +0.000 C 
ATOM     13  C   UNL     1      43.072   4.847  12.263  0.00  0.00    +0.000 C 
BRANCH  12  14
ATOM     14  O   UNL     1      44.094   2.669  12.554  0.00  0.00    +0.000 OA
ATOM     15  H   UNL     1      44.197   1.782  12.178  0.00  0.00    +0.000 HD
ENDBRANCH  12  14
ENDBRANCH   7   9
ENDBRANCH   5   7
BRANCH   1  16
ATOM     16  S   UNL     1      48.342   8.850  13.357  0.00  0.00    +0.000 S 
BRANCH  16  17
ATOM     17  C   UNL     1      48.852   7.109  13.119  0.00  0.00    +0.000 C 
BRANCH  17  21
ATOM     18  C   UNL     1      47.623   4.626  16.376  0.00  0.00    +0.000 A 
ATOM     19  C   UNL     1      46.974   4.492  15.150  0.00  0.00    +0.000 A 
ATOM     20  C   UNL     1      47.344   5.315  14.089  0.00  0.00    +0.000 A 
ATOM     21  C   UNL     1      48.375   6.241  14.268  0.00  0.00    +0.000 A 
ATOM     22  N   UNL     1      48.987   6.409  15.471  0.00  0.00    +0.000 NA
ATOM     23  C   UNL     1      48.598   5.605  16.492  0.00  0.00    +0.000 A 
BRANCH  18  25
ATOM     24  N   UNL     1      47.818   4.157  18.744  0.00  0.00    +0.000 N 
ATOM     25  C   UNL     1      47.310   3.775  17.536  0.00  0.00    +0.000 C 
ATOM     26  O   UNL     1      46.590   2.786  17.430  0.00  0.00    +0.000 OA
ATOM     27  H   UNL     1      47.512   3.628  19.552  0.00  0.00    +0.000 HD
ATOM     28  H   UNL     1      48.175   5.090  18.910  0.00  0.00    +0.000 HD
ENDBRANCH  18  25
ENDBRANCH  17  21
ENDBRANCH  16  17
ENDBRANCH   1  16
TORSDOF 7
ENDMDL
MODEL 5
REMARK VINA RESULT:    -7.048      2.690      3.020
REMARK INTER + INTRA:         -10.272
REMARK INTER:                  -9.503
REMARK INTRA:                  -0.769
REMARK UNBOUND:                -0.546
REMARK  Name = 
REMARK  7 active torsions:
REMARK  status: ('A' for Active; 'I' for Inactive)
REMARK    1  A    between atoms: C_2  and  C_4
REMARK    2  A    between atoms: C_7  and  C_8
REMARK    3  A    between atoms: C_8  and  S_9
REMARK    4  A    between atoms: S_9  and  C_10
REMARK    5  A    between atoms: C_14  and  N_15
REMARK    6  A    between atoms: N_15  and  C_16
REMARK    7  A    between atoms: C_19  and  O_20
REMARK                            x       y       z     vdW  Elec       q    Type
REMARK                         _______ _______ _______ _____ _____    ______ ____
ROOT
ATOM      1  C   UNL     1      45.194   5.126  12.453  0.00  0.00    +0.000 A 
ATOM      2  C   UNL     1      44.730   6.184  11.665  0.00  0.00    +0.000 A 
ATOM      3  C   UNL     1      45.335   7.434  11.736  0.00  0.00    +0.000 A 
ATOM      4  C   UNL     1      46.389   7.647  12.624  0.00  0.00    +0.000 A 
ATOM      5  C   UNL     1      46.812   6.644  13.503  0.00  0.00    +0.000 A 
ATOM      6  C   UNL     1      46.235   5.366  13.364  0.00  0.00    +0.000 A 
ENDROOT
BRANCH   5   7
ATOM      7  N   UNL     1      47.859   6.824  14.421  0.00  0.00    +0.000 N 
ATOM      8  H   UNL     1      47.608   6.500  15.352  0.00  0.00    +0.000 HD
BRANCH   7   9
ATOM      9  C   UNL     1      48.615   8.081  14.425  0.00  0.00    +0.000 C 
ATOM     10  C   UNL     1      50.127   7.816  14.283  0.00  0.00    +0.000 C 
ATOM     11  C   UNL     1      50.790   8.343  15.552  0.00  0.00    +0.000 C 
ATOM     12  C   UNL     1      49.827   9.387  16.095  0.00  0.00    +0.000 C 
ATOM     13  C   UNL     1      48.448   8.853  15.744  0.00  0.00    +0.000 C 
BRANCH  12  14
ATOM     14  O   UNL     1      50.048  10.657  15.491  0.00  0.00    +0.000 OA
ATOM     15  H   UNL     1      50.064  10.555  14.527  0.00  0.00    +0.000 HD
ENDBRANCH  12  14
ENDBRANCH   7   9
ENDBRANCH   5   7
BRANCH   1  16
ATOM     16  S   UNL     1      44.498   3.517  12.102  0.00  0.00    +0.000 S 
BRANCH  16  17
ATOM     17  C   UNL     1      43.768   3.707  10.435  0.00  0.00    +0.000 C 
BRANCH  17  21
ATOM     18  C   UNL     1      46.579   2.388   7.495  0.00  0.00    +0.000 A 
ATOM     19  C   UNL     1      46.283   3.747   7.575  0.00  0.00    +0.000 A 
ATOM     20  C   UNL     1      45.348   4.187   8.508  0.00  0.00    +0.000 A 
ATOM     21  C   UNL     1      44.743   3.260   9.361  0.00  0.00    +0.000 A 
ATOM     22  N   UNL     1      44.992   1.927   9.263  0.00  0.00    +0.000 NA
ATOM     23  C   UNL     1      45.897   1.522   8.337  0.00  0.00    +0.000 A 
BRANCH  18  25
ATOM     24  N   UNL     1      48.686   2.605   6.321  0.00  0.00    +0.000 N 
ATOM     25  C   UNL     1      47.576   1.847   6.556  0.00  0.00    +0.000 C 
ATOM     26  O   UNL     1      47.435   0.743   6.037  0.00  0.00    +0.000 OA
ATOM     27  H   UNL     1      49.414   2.180   5.758  0.00  0.00    +0.000 HD
ATOM     28  H   UNL     1      48.956   3.371   6.925  0.00  0.00    +0.000 HD
ENDBRANCH  18  25
ENDBRANCH  17  21
ENDBRANCH  16  17
ENDBRANCH   1  16
TORSDOF 7
ENDMDL
MODEL 6
REMARK VINA RESULT:    -6.741      4.586      8.226
REMARK INTER + INTRA:          -9.849
REMARK INTER:                  -9.077
REMARK INTRA:                  -0.772
REMARK UNBOUND:                -0.546
REMARK  Name = 
REMARK  7 active torsions:
REMARK  status: ('A' for Active; 'I' for Inactive)
REMARK    1  A    between atoms: C_2  and  C_4
REMARK    2  A    between atoms: C_7  and  C_8
REMARK    3  A    between atoms: C_8  and  S_9
REMARK    4  A    between atoms: S_9  and  C_10
REMARK    5  A    between atoms: C_14  and  N_15
REMARK    6  A    between atoms: N_15  and  C_16
REMARK    7  A    between atoms: C_19  and  O_20
REMARK                            x       y       z     vdW  Elec       q    Type
REMARK                         _______ _______ _______ _____ _____    ______ ____
ROOT
ATOM      1  C   UNL     1      49.065   7.099  14.723  0.00  0.00    +0.000 A 
ATOM      2  C   UNL     1      50.038   7.784  13.986  0.00  0.00    +0.000 A 
ATOM      3  C   UNL     1      49.899   7.942  12.612  0.00  0.00    +0.000 A 
ATOM      4  C   UNL     1      48.802   7.385  11.955  0.00  0.00    +0.000 A 
ATOM      5  C   UNL     1      47.865   6.604  12.640  0.00  0.00    +0.000 A 
ATOM      6  C   UNL     1      47.985   6.518  14.042  0.00  0.00    +0.000 A 
ENDROOT
BRANCH   5   7
ATOM      7  N   UNL     1      46.756   6.015  12.012  0.00  0.00    +0.000 N 
ATOM      8  H   UNL     1      46.563   6.437  11.107  0.00  0.00    +0.000 HD
BRANCH   7   9
ATOM      9  C   UNL     1      45.547   5.726  12.790  0.00  0.00    +0.000 C 
ATOM     10  C   UNL     1      45.321   4.206  12.915  0.00  0.00    +0.000 C 
ATOM     11  C   UNL     1      43.990   3.899  12.235  0.00  0.00    +0.000 C 
ATOM     12  C   UNL     1      43.217   5.208  12.273  0.00  0.00    +0.000 C 
ATOM     13  C   UNL     1      44.280   6.283  12.120  0.00  0.00    +0.000 C 
BRANCH  12  14
ATOM     14  O   UNL     1      42.517   5.358  13.503  0.00  0.00    +0.000 OA
ATOM     15  H   UNL     1      41.793   4.715  13.541  0.00  0.00    +0.000 HD
ENDBRANCH  12  14
ENDBRANCH   7   9
ENDBRANCH   5   7
BRANCH   1  16
ATOM     16  S   UNL     1      49.231   7.167  16.502  0.00  0.00    +0.000 S 
BRANCH  16  17
ATOM     17  C   UNL     1      48.454   5.614  17.076  0.00  0.00    +0.000 C 
BRANCH  17  21
ATOM     18  C   UNL     1      51.273   2.427  17.499  0.00  0.00    +0.000 A 
ATOM     19  C   UNL     1      51.683   3.726  17.791  0.00  0.00    +0.000 A 
ATOM     20  C   UNL     1      50.784   4.777  17.629  0.00  0.00    +0.000 A 
ATOM     21  C   UNL     1      49.482   4.505  17.202  0.00  0.00    +0.000 A 
ATOM     22  N   UNL     1      49.083   3.248  16.875  0.00  0.00    +0.000 NA
ATOM     23  C   UNL     1      49.982   2.243  17.027  0.00  0.00    +0.000 A 
BRANCH  18  25
ATOM     24  N   UNL     1      51.590   0.124  18.181  0.00  0.00    +0.000 N 
ATOM     25  C   UNL     1      52.153   1.259  17.672  0.00  0.00    +0.000 C 
ATOM     26  O   UNL     1      53.333   1.291  17.334  0.00  0.00    +0.000 OA
ATOM     27  H   UNL     1      52.175  -0.702  18.198  0.00  0.00    +0.000 HD
ATOM     28  H   UNL     1      50.589  -0.016  18.210  0.00  0.00    +0.000 HD
ENDBRANCH  18  25
ENDBRANCH  17  21
ENDBRANCH  16  17
ENDBRANCH   1  16
TORSDOF 7
ENDMDL
MODEL 7
REMARK VINA RESULT:    -6.706      3.762      7.927
REMARK INTER + INTRA:          -9.800
REMARK INTER:                  -9.228
REMARK INTRA:                  -0.572
REMARK UNBOUND:                -0.546
REMARK  Name = 
REMARK  7 active torsions:
REMARK  status: ('A' for Active; 'I' for Inactive)
REMARK    1  A    between atoms: C_2  and  C_4
REMARK    2  A    between atoms: C_7  and  C_8
REMARK    3  A    between atoms: C_8  and  S_9
REMARK    4  A    between atoms: S_9  and  C_10
REMARK    5  A    between atoms: C_14  and  N_15
REMARK    6  A    between atoms: N_15  and  C_16
REMARK    7  A    between atoms: C_19  and  O_20
REMARK                            x       y       z     vdW  Elec       q    Type
REMARK                         _______ _______ _______ _____ _____    ______ ____
ROOT
ATOM      1  C   UNL     1      47.821   8.034  12.370  0.00  0.00    +0.000 A 
ATOM      2  C   UNL     1      47.661   9.417  12.238  0.00  0.00    +0.000 A 
ATOM      3  C   UNL     1      46.398   9.965  12.042  0.00  0.00    +0.000 A 
ATOM      4  C   UNL     1      45.286   9.130  11.941  0.00  0.00    +0.000 A 
ATOM      5  C   UNL     1      45.419   7.737  11.962  0.00  0.00    +0.000 A 
ATOM      6  C   UNL     1      46.696   7.206  12.233  0.00  0.00    +0.000 A 
ENDROOT
BRANCH   5   7
ATOM      7  N   UNL     1      44.326   6.864  11.847  0.00  0.00    +0.000 N 
ATOM      8  H   UNL     1      43.490   7.241  12.288  0.00  0.00    +0.000 HD
BRANCH   7   9
ATOM      9  C   UNL     1      44.513   5.429  12.084  0.00  0.00    +0.000 C 
ATOM     10  C   UNL     1      44.964   4.710  10.797  0.00  0.00    +0.000 C 
ATOM     11  C   UNL     1      43.877   3.697  10.452  0.00  0.00    +0.000 C 
ATOM     12  C   UNL     1      43.170   3.414  11.767  0.00  0.00    +0.000 C 
ATOM     13  C   UNL     1      43.208   4.737  12.514  0.00  0.00    +0.000 C 
BRANCH  12  14
ATOM     14  O   UNL     1      43.839   2.397  12.504  0.00  0.00    +0.000 OA
ATOM     15  H   UNL     1      44.141   1.705  11.896  0.00  0.00    +0.000 HD
ENDBRANCH  12  14
ENDBRANCH   7   9
ENDBRANCH   5   7
BRANCH   1  16
ATOM     16  S   UNL     1      49.447   7.471  12.854  0.00  0.00    +0.000 S 
BRANCH  16  17
ATOM     17  C   UNL     1      49.543   7.878  14.635  0.00  0.00    +0.000 C 
BRANCH  17  21
ATOM     18  C   UNL     1      48.222   4.584  17.020  0.00  0.00    +0.000 A 
ATOM     19  C   UNL     1      49.206   5.428  17.531  0.00  0.00    +0.000 A 
ATOM     20  C   UNL     1      49.667   6.487  16.753  0.00  0.00    +0.000 A 
ATOM     21  C   UNL     1      49.116   6.697  15.486  0.00  0.00    +0.000 A 
ATOM     22  N   UNL     1      48.185   5.857  14.961  0.00  0.00    +0.000 NA
ATOM     23  C   UNL     1      47.763   4.824  15.733  0.00  0.00    +0.000 A 
BRANCH  18  25
ATOM     24  N   UNL     1      48.315   3.101  18.933  0.00  0.00    +0.000 N 
ATOM     25  C   UNL     1      47.662   3.461  17.789  0.00  0.00    +0.000 C 
ATOM     26  O   UNL     1      46.628   2.897  17.439  0.00  0.00    +0.000 OA
ATOM     27  H   UNL     1      47.866   2.400  19.509  0.00  0.00    +0.000 HD
ATOM     28  H   UNL     1      48.992   3.705  19.381  0.00  0.00    +0.000 HD
ENDBRANCH  18  25
ENDBRANCH  17  21
ENDBRANCH  16  17
ENDBRANCH   1  16
TORSDOF 7
ENDMDL
MODEL 8
REMARK VINA RESULT:    -6.627      4.722      5.946
REMARK INTER + INTRA:          -9.691
REMARK INTER:                  -8.559
REMARK INTRA:                  -1.132
REMARK UNBOUND:                -0.546
REMARK  Name = 
REMARK  7 active torsions:
REMARK  status: ('A' for Active; 'I' for Inactive)
REMARK    1  A    between atoms: C_2  and  C_4
REMARK    2  A    between atoms: C_7  and  C_8
REMARK    3  A    between atoms: C_8  and  S_9
REMARK    4  A    between atoms: S_9  and  C_10
REMARK    5  A    between atoms: C_14  and  N_15
REMARK    6  A    between atoms: N_15  and  C_16
REMARK    7  A    between atoms: C_19  and  O_20
REMARK                            x       y       z     vdW  Elec       q    Type
REMARK                         _______ _______ _______ _____ _____    ______ ____
ROOT
ATOM      1  C   UNL     1      48.723   8.236  15.509  0.00  0.00    +0.000 A 
ATOM      2  C   UNL     1      48.110   9.231  16.277  0.00  0.00    +0.000 A 
ATOM      3  C   UNL     1      48.059   9.121  17.662  0.00  0.00    +0.000 A 
ATOM      4  C   UNL     1      48.592   7.995  18.290  0.00  0.00    +0.000 A 
ATOM      5  C   UNL     1      49.118   6.931  17.550  0.00  0.00    +0.000 A 
ATOM      6  C   UNL     1      49.225   7.095  16.155  0.00  0.00    +0.000 A 
ENDROOT
BRANCH   5   7
ATOM      7  N   UNL     1      49.649   5.775  18.145  0.00  0.00    +0.000 N 
ATOM      8  H   UNL     1      50.572   5.551  17.782  0.00  0.00    +0.000 HD
BRANCH   7   9
ATOM      9  C   UNL     1      48.796   4.598  18.338  0.00  0.00    +0.000 C 
ATOM     10  C   UNL     1      49.466   3.331  17.771  0.00  0.00    +0.000 C 
ATOM     11  C   UNL     1      48.561   2.812  16.658  0.00  0.00    +0.000 C 
ATOM     12  C   UNL     1      47.183   3.367  16.981  0.00  0.00    +0.000 C 
ATOM     13  C   UNL     1      47.454   4.728  17.599  0.00  0.00    +0.000 C 
BRANCH  12  14
ATOM     14  O   UNL     1      46.489   2.524  17.895  0.00  0.00    +0.000 OA
ATOM     15  H   UNL     1      46.477   2.941  18.770  0.00  0.00    +0.000 HD
ENDBRANCH  12  14
ENDBRANCH   7   9
ENDBRANCH   5   7
BRANCH   1  16
ATOM     16  S   UNL     1      48.937   8.601  13.772  0.00  0.00    +0.000 S 
BRANCH  16  17
ATOM     17  C   UNL     1      48.807   6.967  12.959  0.00  0.00    +0.000 C 
BRANCH  17  21
ATOM     18  C   UNL     1      44.716   5.722  12.923  0.00  0.00    +0.000 A 
ATOM     19  C   UNL     1      45.649   4.936  13.596  0.00  0.00    +0.000 A 
ATOM     20  C   UNL     1      46.989   5.313  13.591  0.00  0.00    +0.000 A 
ATOM     21  C   UNL     1      47.368   6.486  12.932  0.00  0.00    +0.000 A 
ATOM     22  N   UNL     1      46.474   7.239  12.238  0.00  0.00    +0.000 NA
ATOM     23  C   UNL     1      45.176   6.842  12.246  0.00  0.00    +0.000 A 
BRANCH  18  25
ATOM     24  N   UNL     1      42.520   6.007  11.942  0.00  0.00    +0.000 N 
ATOM     25  C   UNL     1      43.277   5.407  12.906  0.00  0.00    +0.000 C 
ATOM     26  O   UNL     1      42.787   4.608  13.700  0.00  0.00    +0.000 OA
ATOM     27  H   UNL     1      41.556   5.705  11.871  0.00  0.00    +0.000 HD
ATOM     28  H   UNL     1      42.930   6.443  11.126  0.00  0.00    +0.000 HD
ENDBRANCH  18  25
ENDBRANCH  17  21
ENDBRANCH  16  17
ENDBRANCH   1  16
TORSDOF 7
ENDMDL
MODEL 9
REMARK VINA RESULT:    -6.473      4.164      5.775
REMARK INTER + INTRA:          -9.479
REMARK INTER:                  -8.722
REMARK INTRA:                  -0.757
REMARK UNBOUND:                -0.546
REMARK  Name = 
REMARK  7 active torsions:
REMARK  status: ('A' for Active; 'I' for Inactive)
REMARK    1  A    between atoms: C_2  and  C_4
REMARK    2  A    between atoms: C_7  and  C_8
REMARK    3  A    between atoms: C_8  and  S_9
REMARK    4  A    between atoms: S_9  and  C_10
REMARK    5  A    between atoms: C_14  and  N_15
REMARK    6  A    between atoms: N_15  and  C_16
REMARK    7  A    between atoms: C_19  and  O_20
REMARK                            x       y       z     vdW  Elec       q    Type
REMARK                         _______ _______ _______ _____ _____    ______ ____
ROOT
ATOM      1  C   UNL     1      49.921   7.526  15.614  0.00  0.00    +0.000 A 
ATOM      2  C   UNL     1      51.299   7.351  15.449  0.00  0.00    +0.000 A 
ATOM      3  C   UNL     1      52.037   6.641  16.389  0.00  0.00    +0.000 A 
ATOM      4  C   UNL     1      51.408   6.128  17.523  0.00  0.00    +0.000 A 
ATOM      5  C   UNL     1      50.054   6.372  17.776  0.00  0.00    +0.000 A 
ATOM      6  C   UNL     1      49.311   7.032  16.777  0.00  0.00    +0.000 A 
ENDROOT
BRANCH   5   7
ATOM      7  N   UNL     1      49.390   5.886  18.914  0.00  0.00    +0.000 N 
ATOM      8  H   UNL     1      49.973   5.937  19.745  0.00  0.00    +0.000 HD
BRANCH   7   9
ATOM      9  C   UNL     1      48.605   4.650  18.826  0.00  0.00    +0.000 C 
ATOM     10  C   UNL     1      49.399   3.542  18.105  0.00  0.00    +0.000 C 
ATOM     11  C   UNL     1      48.615   3.185  16.846  0.00  0.00    +0.000 C 
ATOM     12  C   UNL     1      47.182   3.599  17.142  0.00  0.00    +0.000 C 
ATOM     13  C   UNL     1      47.316   4.840  18.009  0.00  0.00    +0.000 C 
BRANCH  12  14
ATOM     14  O   UNL     1      46.481   2.571  17.833  0.00  0.00    +0.000 OA
ATOM     15  H   UNL     1      46.996   2.294  18.606  0.00  0.00    +0.000 HD
ENDBRANCH  12  14
ENDBRANCH   7   9
ENDBRANCH   5   7
BRANCH   1  16
ATOM     16  S   UNL     1      49.046   8.246  14.231  0.00  0.00    +0.000 S 
BRANCH  16  17
ATOM     17  C   UNL     1      49.052   6.922  12.969  0.00  0.00    +0.000 C 
BRANCH  17  21
ATOM     18  C   UNL     1      45.308   4.867  12.770  0.00  0.00    +0.000 A 
ATOM     19  C   UNL     1      45.561   5.887  11.855  0.00  0.00    +0.000 A 
ATOM     20  C   UNL     1      46.764   6.584  11.927  0.00  0.00    +0.000 A 
ATOM     21  C   UNL     1      47.703   6.231  12.899  0.00  0.00    +0.000 A 
ATOM     22  N   UNL     1      47.451   5.266  13.823  0.00  0.00    +0.000 NA
ATOM     23  C   UNL     1      46.266   4.611  13.740  0.00  0.00    +0.000 A 
BRANCH  18  25
ATOM     24  N   UNL     1      44.210   2.720  12.542  0.00  0.00    +0.000 N 
ATOM     25  C   UNL     1      44.074   4.063  12.742  0.00  0.00    +0.000 C 
ATOM     26  O   UNL     1      42.973   4.574  12.931  0.00  0.00    +0.000 OA
ATOM     27  H   UNL     1      43.368   2.162  12.630  0.00  0.00    +0.000 HD
ATOM     28  H   UNL     1      45.095   2.243  12.655  0.00  0.00    +0.000 HD
ENDBRANCH  18  25
ENDBRANCH  17  21
ENDBRANCH  16  17
ENDBRANCH   1  16
TORSDOF 7
ENDMDL
