MODEL 1
REMARK VINA RESULT:    -7.061      0.000      0.000
REMARK INTER + INTRA:         -11.847
REMARK INTER:                 -10.569
REMARK INTRA:                  -1.277
REMARK UNBOUND:                -1.277
REMARK  Name = 
REMARK  9 active torsions:
REMARK  status: ('A' for Active; 'I' for Inactive)
REMARK    1  A    between atoms: C_2  and  O_3
REMARK    2  A    between atoms: C_2  and  C_4
REMARK    3  A    between atoms: C_4  and  C_5
REMARK    4  A    between atoms: C_5  and  C_6
REMARK    5  A    between atoms: C_6  and  C_7
REMARK    6  A    between atoms: C_12  and  N_13
REMARK    7  A    between atoms: N_13  and  C_14
REMARK    8  A    between atoms: C_14  and  C_15
REMARK    9  A    between atoms: C_19  and  C_20
REMARK                            x       y       z     vdW  Elec       q    Type
REMARK                         _______ _______ _______ _____ _____    ______ ____
ROOT
ATOM      1  N   UNL     1      47.597   6.235  13.261  0.00  0.00    +0.000 N 
ATOM      2  H   UNL     1      47.779   5.332  12.833  0.00  0.00    +0.000 HD
ENDROOT
BRANCH   1   8
ATOM      3  C   UNL     1      48.267   5.695  15.625  0.00  0.00    +0.000 A 
ATOM      4  C   UNL     1      49.146   6.101  16.655  0.00  0.00    +0.000 A 
ATOM      5  C   UNL     1      50.178   6.990  16.410  0.00  0.00    +0.000 A 
ATOM      6  C   UNL     1      50.309   7.456  15.126  0.00  0.00    +0.000 A 
ATOM      7  N   UNL     1      49.457   7.137  14.131  0.00  0.00    +0.000 NA
ATOM      8  C   UNL     1      48.418   6.292  14.374  0.00  0.00    +0.000 A 
BRANCH   3   9
ATOM      9  C   UNL     1      47.292   4.608  15.985  0.00  0.00    +0.000 C 
BRANCH   9  10
ATOM     10  C   UNL     1      47.446   4.104  17.430  0.00  0.00    +0.000 C 
BRANCH  10  11
ATOM     11  C   UNL     1      48.063   2.723  17.653  0.00  0.00    +0.000 C 
BRANCH  11  13
ATOM     12  O   UNL     1      50.432   2.988  17.191  0.00  0.00    +0.000 OA
ATOM     13  C   UNL     1      49.356   2.490  16.913  0.00  0.00    +0.000 C 
BRANCH  13  14
ATOM     14  O   UNL     1      49.201   1.631  15.877  0.00  0.00    +0.000 OA
ATOM     15  H   UNL     1      49.023   0.712  16.152  0.00  0.00    +0.000 HD
ENDBRANCH  13  14
ENDBRANCH  11  13
ENDBRANCH  10  11
ENDBRANCH   9  10
ENDBRANCH   3   9
ENDBRANCH   1   8
BRANCH   1  16
ATOM     16  C   UNL     1      46.414   6.959  12.805  0.00  0.00    +0.000 C 
ATOM     17  C   UNL     1      46.753   8.180  11.941  0.00  0.00    +0.000 C 
ATOM     18  C   UNL     1      46.072   8.367  13.249  0.00  0.00    +0.000 C 
BRANCH  16  19
ATOM     19  C   UNL     1      45.320   6.045  12.258  0.00  0.00    +0.000 A 
ATOM     20  C   UNL     1      44.002   6.133  12.738  0.00  0.00    +0.000 A 
ATOM     21  C   UNL     1      42.965   5.405  12.158  0.00  0.00    +0.000 A 
ATOM     22  C   UNL     1      43.221   4.586  11.062  0.00  0.00    +0.000 A 
ATOM     23  C   UNL     1      44.519   4.463  10.553  0.00  0.00    +0.000 A 
ATOM     24  C   UNL     1      45.560   5.148  11.201  0.00  0.00    +0.000 A 
BRANCH  23  25
ATOM     25  C   UNL     1      44.795   3.723   9.254  0.00  0.00    +0.000 C 
ATOM     26  C   UNL     1      45.196   2.266   9.543  0.00  0.00    +0.000 C 
ATOM     27  C   UNL     1      45.617   1.541   8.276  0.00  0.00    +0.000 C 
ATOM     28  O   UNL     1      46.651   2.260   7.611  0.00  0.00    +0.000 OA
ATOM     29  C   UNL     1      46.217   3.551   7.188  0.00  0.00    +0.000 C 
ATOM     30  C   UNL     1      45.848   4.419   8.384  0.00  0.00    +0.000 C 
ENDBRANCH  23  25
ENDBRANCH  16  19
ENDBRANCH   1  16
TORSDOF 9
ENDMDL
MODEL 2
REMARK VINA RESULT:    -6.909      1.767      2.979
REMARK INTER + INTRA:         -11.619
REMARK INTER:                  -9.974
REMARK INTRA:                  -1.645
REMARK UNBOUND:                -1.277
REMARK  Name = 
REMARK  9 active torsions:
REMARK  status: ('A' for Active; 'I' for Inactive)
REMARK    1  A    between atoms: C_2  and  O_3
REMARK    2  A    between atoms: C_2  and  C_4
REMARK    3  A    between atoms: C_4  and  C_5
REMARK    4  A    between atoms: C_5  and  C_6
REMARK    5  A    between atoms: C_6  and  C_7
REMARK    6  A    between atoms: C_12  and  N_13
REMARK    7  A    between atoms: N_13  and  C_14
REMARK    8  A    between atoms: C_14  and  C_15
REMARK    9  A    between atoms: C_19  and  C_20
REMARK                            x       y       z     vdW  Elec       q    Type
REMARK                         _______ _______ _______ _____ _____    ______ ____
ROOT
ATOM      1  N   UNL     1      49.893   7.236  13.866  0.00  0.00    +0.000 N 
ATOM      2  H   UNL     1      50.332   6.331  13.723  0.00  0.00    +0.000 HD
ENDROOT
BRANCH   1   8
ATOM      3  C   UNL     1      48.934   6.658  16.118  0.00  0.00    +0.000 A 
ATOM      4  C   UNL     1      48.815   7.149  17.439  0.00  0.00    +0.000 A 
ATOM      5  C   UNL     1      49.549   8.241  17.868  0.00  0.00    +0.000 A 
ATOM      6  C   UNL     1      50.394   8.822  16.957  0.00  0.00    +0.000 A 
ATOM      7  N   UNL     1      50.492   8.418  15.674  0.00  0.00    +0.000 NA
ATOM      8  C   UNL     1      49.747   7.369  15.236  0.00  0.00    +0.000 A 
BRANCH   3   9
ATOM      9  C   UNL     1      48.205   5.375  15.827  0.00  0.00    +0.000 C 
BRANCH   9  10
ATOM     10  C   UNL     1      47.692   4.665  17.091  0.00  0.00    +0.000 C 
BRANCH  10  11
ATOM     11  C   UNL     1      47.625   3.137  17.085  0.00  0.00    +0.000 C 
BRANCH  11  13
ATOM     12  O   UNL     1      49.314   1.793  15.973  0.00  0.00    +0.000 OA
ATOM     13  C   UNL     1      48.961   2.454  16.933  0.00  0.00    +0.000 C 
BRANCH  13  14
ATOM     14  O   UNL     1      49.764   2.665  18.003  0.00  0.00    +0.000 OA
ATOM     15  H   UNL     1      49.317   2.535  18.861  0.00  0.00    +0.000 HD
ENDBRANCH  13  14
ENDBRANCH  11  13
ENDBRANCH  10  11
ENDBRANCH   9  10
ENDBRANCH   3   9
ENDBRANCH   1   8
BRANCH   1  16
ATOM     16  C   UNL     1      49.315   7.885  12.692  0.00  0.00    +0.000 C 
ATOM     17  C   UNL     1      50.125   7.643  11.412  0.00  0.00    +0.000 C 
ATOM     18  C   UNL     1      49.986   9.023  11.949  0.00  0.00    +0.000 C 
BRANCH  16  19
ATOM     19  C   UNL     1      47.807   7.679  12.569  0.00  0.00    +0.000 A 
ATOM     20  C   UNL     1      46.941   8.775  12.413  0.00  0.00    +0.000 A 
ATOM     21  C   UNL     1      45.581   8.601  12.164  0.00  0.00    +0.000 A 
ATOM     22  C   UNL     1      45.059   7.317  12.040  0.00  0.00    +0.000 A 
ATOM     23  C   UNL     1      45.882   6.195  12.194  0.00  0.00    +0.000 A 
ATOM     24  C   UNL     1      47.233   6.396  12.519  0.00  0.00    +0.000 A 
BRANCH  23  25
ATOM     25  C   UNL     1      45.379   4.794  11.886  0.00  0.00    +0.000 C 
ATOM     26  C   UNL     1      45.007   4.674  10.397  0.00  0.00    +0.000 C 
ATOM     27  C   UNL     1      44.367   3.331  10.088  0.00  0.00    +0.000 C 
ATOM     28  O   UNL     1      43.249   3.105  10.940  0.00  0.00    +0.000 OA
ATOM     29  C   UNL     1      43.627   3.041  12.314  0.00  0.00    +0.000 C 
ATOM     30  C   UNL     1      44.207   4.372  12.779  0.00  0.00    +0.000 C 
ENDBRANCH  23  25
ENDBRANCH  16  19
ENDBRANCH   1  16
TORSDOF 9
ENDMDL
MODEL 3
REMARK VINA RESULT:    -6.783      2.204      3.369
REMARK INTER + INTRA:         -11.430
REMARK INTER:                  -9.501
REMARK INTRA:                  -1.929
REMARK UNBOUND:                -1.277
REMARK  Name = 
REMARK  9 active torsions:
REMARK  status: ('A' for Active; 'I' for Inactive)
REMARK    1  A    between atoms: C_2  and  O_3
REMARK    2  A    between atoms: C_2  and  C_4
REMARK    3  A    between atoms: C_4  and  C_5
REMARK    4  A    between atoms: C_5  and  C_6
REMARK    5  A    between atoms: C_6  and  C_7
REMARK    6  A    between atoms: C_12  and  N_13
REMARK    7  A    between atoms: N_13  and  C_14
REMARK    8  A    between atoms: C_14  and  C_15
REMARK    9  A    between atoms: C_19  and  C_20
REMARK                            x       y       z     vdW  Elec       q    Type
REMARK                         _______ _______ _______ _____ _____    ______ ____
ROOT
ATOM      1  N   UNL     1      47.451   6.135  13.478  0.00  0.00    +0.000 N 
ATOM      2  H   UNL     1      48.048   5.607  12.847  0.00  0.00    +0.000 HD
ENDROOT
BRANCH   1   8
ATOM      3  C   UNL     1      48.613   6.313  15.702  0.00  0.00    +0.000 A 
ATOM      4  C   UNL     1      48.962   5.553  16.842  0.00  0.00    +0.000 A 
ATOM      5  C   UNL     1      48.430   4.293  17.055  0.00  0.00    +0.000 A 
ATOM      6  C   UNL     1      47.552   3.818  16.114  0.00  0.00    +0.000 A 
ATOM      7  N   UNL     1      47.240   4.489  14.986  0.00  0.00    +0.000 NA
ATOM      8  C   UNL     1      47.788   5.712  14.752  0.00  0.00    +0.000 A 
BRANCH   3   9
ATOM      9  C   UNL     1      49.134   7.724  15.669  0.00  0.00    +0.000 C 
BRANCH   9  10
ATOM     10  C   UNL     1      50.341   7.906  14.733  0.00  0.00    +0.000 C 
BRANCH  10  11
ATOM     11  C   UNL     1      50.203   8.869  13.553  0.00  0.00    +0.000 C 
BRANCH  11  13
ATOM     12  O   UNL     1      50.766   8.795  11.192  0.00  0.00    +0.000 OA
ATOM     13  C   UNL     1      50.383   8.229  12.200  0.00  0.00    +0.000 C 
BRANCH  13  14
ATOM     14  O   UNL     1      50.078   6.909  12.217  0.00  0.00    +0.000 OA
ATOM     15  H   UNL     1      49.699   6.582  11.379  0.00  0.00    +0.000 HD
ENDBRANCH  13  14
ENDBRANCH  11  13
ENDBRANCH  10  11
ENDBRANCH   9  10
ENDBRANCH   3   9
ENDBRANCH   1   8
BRANCH   1  16
ATOM     16  C   UNL     1      46.322   6.844  12.884  0.00  0.00    +0.000 C 
ATOM     17  C   UNL     1      46.751   8.010  11.984  0.00  0.00    +0.000 C 
ATOM     18  C   UNL     1      45.965   8.279  13.218  0.00  0.00    +0.000 C 
BRANCH  16  19
ATOM     19  C   UNL     1      45.263   5.912  12.298  0.00  0.00    +0.000 A 
ATOM     20  C   UNL     1      43.939   5.944  12.767  0.00  0.00    +0.000 A 
ATOM     21  C   UNL     1      42.931   5.199  12.155  0.00  0.00    +0.000 A 
ATOM     22  C   UNL     1      43.224   4.423  11.038  0.00  0.00    +0.000 A 
ATOM     23  C   UNL     1      44.531   4.356  10.539  0.00  0.00    +0.000 A 
ATOM     24  C   UNL     1      45.542   5.055  11.219  0.00  0.00    +0.000 A 
BRANCH  23  25
ATOM     25  C   UNL     1      44.843   3.665   9.222  0.00  0.00    +0.000 C 
ATOM     26  C   UNL     1      45.305   2.219   9.473  0.00  0.00    +0.000 C 
ATOM     27  C   UNL     1      45.762   1.548   8.189  0.00  0.00    +0.000 C 
ATOM     28  O   UNL     1      46.766   2.328   7.549  0.00  0.00    +0.000 OA
ATOM     29  C   UNL     1      46.279   3.611   7.159  0.00  0.00    +0.000 C 
ATOM     30  C   UNL     1      45.868   4.430   8.377  0.00  0.00    +0.000 C 
ENDBRANCH  23  25
ENDBRANCH  16  19
ENDBRANCH   1  16
TORSDOF 9
ENDMDL
MODEL 4
REMARK VINA RESULT:    -6.566      2.346      8.069
REMARK INTER + INTRA:         -11.106
REMARK INTER:                 -10.077
REMARK INTRA:                  -1.029
REMARK UNBOUND:                -1.277
REMARK  Name = 
REMARK  9 active torsions:
REMARK  status: ('A' for Active; 'I' for Inactive)
REMARK    1  A    between atoms: C_2  and  O_3
REMARK    2  A    between atoms: C_2  and  C_4
REMARK    3  A    between atoms: C_4  and  C_5
REMARK    4  A    between atoms: C_5  and  C_6
REMARK    5  A    between atoms: C_6  and  C_7
REMARK    6  A    between atoms: C_12  and  N_13
REMARK    7  A    between atoms: N_13  and  C_14
REMARK    8  A    between atoms: C_14  and  C_15
REMARK    9  A    between atoms: C_19  and  C_20
REMARK                            x       y       z     vdW  Elec       q    Type
REMARK                         _______ _______ _______ _____ _____    ______ ____
ROOT
ATOM      1  N   UNL     1      46.346   5.405  12.343  0.00  0.00    +0.000 N 
ATOM      2  H   UNL     1      47.131   4.839  12.652  0.00  0.00    +0.000 HD
ENDROOT
BRANCH   1   8
ATOM      3  C   UNL     1      44.982   4.297  10.543  0.00  0.00    +0.000 A 
ATOM      4  C   UNL     1      43.850   3.472  10.350  0.00  0.00    +0.000 A 
ATOM      5  C   UNL     1      43.245   2.824  11.412  0.00  0.00    +0.000 A 
ATOM      6  C   UNL     1      43.791   3.018  12.656  0.00  0.00    +0.000 A 
ATOM      7  N   UNL     1      44.834   3.841  12.887  0.00  0.00    +0.000 NA
ATOM      8  C   UNL     1      45.411   4.510  11.853  0.00  0.00    +0.000 A 
BRANCH   3   9
ATOM      9  C   UNL     1      45.638   4.814   9.292  0.00  0.00    +0.000 C 
BRANCH   9  10
ATOM     10  C   UNL     1      45.610   3.808   8.129  0.00  0.00    +0.000 C 
BRANCH  10  11
ATOM     11  C   UNL     1      46.787   3.799   7.153  0.00  0.00    +0.000 C 
BRANCH  11  13
ATOM     12  O   UNL     1      47.138   1.430   7.555  0.00  0.00    +0.000 OA
ATOM     13  C   UNL     1      47.505   2.476   7.052  0.00  0.00    +0.000 C 
BRANCH  13  14
ATOM     14  O   UNL     1      48.635   2.567   6.312  0.00  0.00    +0.000 OA
ATOM     15  H   UNL     1      49.436   2.756   6.837  0.00  0.00    +0.000 HD
ENDBRANCH  13  14
ENDBRANCH  11  13
ENDBRANCH  10  11
ENDBRANCH   9  10
ENDBRANCH   3   9
ENDBRANCH   1   8
BRANCH   1  16
ATOM     16  C   UNL     1      46.573   6.841  12.219  0.00  0.00    +0.000 C 
ATOM     17  C   UNL     1      45.512   7.682  12.940  0.00  0.00    +0.000 C 
ATOM     18  C   UNL     1      45.648   7.773  11.462  0.00  0.00    +0.000 C 
BRANCH  16  19
ATOM     19  C   UNL     1      48.023   7.248  12.474  0.00  0.00    +0.000 A 
ATOM     20  C   UNL     1      48.755   7.950  11.501  0.00  0.00    +0.000 A 
ATOM     21  C   UNL     1      50.031   8.446  11.765  0.00  0.00    +0.000 A 
ATOM     22  C   UNL     1      50.594   8.273  13.026  0.00  0.00    +0.000 A 
ATOM     23  C   UNL     1      49.904   7.576  14.025  0.00  0.00    +0.000 A 
ATOM     24  C   UNL     1      48.654   7.020  13.710  0.00  0.00    +0.000 A 
BRANCH  23  25
ATOM     25  C   UNL     1      50.414   7.529  15.456  0.00  0.00    +0.000 C 
ATOM     26  C   UNL     1      51.948   7.407  15.473  0.00  0.00    +0.000 C 
ATOM     27  C   UNL     1      52.477   7.212  16.884  0.00  0.00    +0.000 C 
ATOM     28  O   UNL     1      51.843   6.099  17.505  0.00  0.00    +0.000 OA
ATOM     29  C   UNL     1      50.437   6.295  17.646  0.00  0.00    +0.000 C 
ATOM     30  C   UNL     1      49.766   6.413  16.283  0.00  0.00    +0.000 C 
ENDBRANCH  23  25
ENDBRANCH  16  19
ENDBRANCH   1  16
TORSDOF 9
ENDMDL
MODEL 5
REMARK VINA RESULT:    -6.473      4.420      6.930
REMARK INTER + INTRA:         -10.967
REMARK INTER:                  -9.634
REMARK INTRA:                  -1.332
REMARK UNBOUND:                -1.277
REMARK  Name = 
REMARK  9 active torsions:
REMARK  status: ('A' for Active; 'I' for Inactive)
REMARK    1  A    between atoms: C_2  and  O_3
REMARK    2  A    between atoms: C_2  and  C_4
REMARK    3  A    between atoms: C_4  and  C_5
REMARK    4  A    between atoms: C_5  and  C_6
REMARK    5  A    between atoms: C_6  and  C_7
REMARK    6  A    between atoms: C_12  and  N_13
REMARK    7  A    between atoms: N_13  and  C_14
REMARK    8  A    between atoms: C_14  and  C_15
REMARK    9  A    between atoms: C_19  and  C_20
REMARK                            x       y       z     vdW  Elec       q    Type
REMARK                         _______ _______ _______ _____ _____    ______ ____
ROOT
ATOM      1  N   UNL     1      45.322   8.580  12.418  0.00  0.00    +0.000 N 
ATOM      2  H   UNL     1      44.527   8.535  13.048  0.00  0.00    +0.000 HD
ENDROOT
BRANCH   1   8
ATOM      3  C   UNL     1      44.269  10.306  10.920  0.00  0.00    +0.000 A 
ATOM      4  C   UNL     1      44.545  11.524  10.258  0.00  0.00    +0.000 A 
ATOM      5  C   UNL     1      45.689  12.250  10.535  0.00  0.00    +0.000 A 
ATOM      6  C   UNL     1      46.541  11.736  11.480  0.00  0.00    +0.000 A 
ATOM      7  N   UNL     1      46.342  10.551  12.091  0.00  0.00    +0.000 NA
ATOM      8  C   UNL     1      45.237   9.814  11.796  0.00  0.00    +0.000 A 
BRANCH   3   9
ATOM      9  C   UNL     1      42.921   9.699  10.645  0.00  0.00    +0.000 C 
BRANCH   9  10
ATOM     10  C   UNL     1      41.749  10.613  11.039  0.00  0.00    +0.000 C 
BRANCH  10  11
ATOM     11  C   UNL     1      40.328  10.061  10.917  0.00  0.00    +0.000 C 
BRANCH  11  13
ATOM     12  O   UNL     1      38.358  10.265  12.322  0.00  0.00    +0.000 OA
ATOM     13  C   UNL     1      39.303  10.783  11.755  0.00  0.00    +0.000 C 
BRANCH  13  14
ATOM     14  O   UNL     1      39.553  12.112  11.829  0.00  0.00    +0.000 OA
ATOM     15  H   UNL     1      39.528  12.467  12.737  0.00  0.00    +0.000 HD
ENDBRANCH  13  14
ENDBRANCH  11  13
ENDBRANCH  10  11
ENDBRANCH   9  10
ENDBRANCH   3   9
ENDBRANCH   1   8
BRANCH   1  16
ATOM     16  C   UNL     1      46.030   7.331  12.153  0.00  0.00    +0.000 C 
ATOM     17  C   UNL     1      46.998   6.940  13.276  0.00  0.00    +0.000 C 
ATOM     18  C   UNL     1      47.525   7.248  11.920  0.00  0.00    +0.000 C 
BRANCH  16  19
ATOM     19  C   UNL     1      45.117   6.215  11.649  0.00  0.00    +0.000 A 
ATOM     20  C   UNL     1      43.788   6.116  12.095  0.00  0.00    +0.000 A 
ATOM     21  C   UNL     1      42.903   5.189  11.546  0.00  0.00    +0.000 A 
ATOM     22  C   UNL     1      43.323   4.354  10.516  0.00  0.00    +0.000 A 
ATOM     23  C   UNL     1      44.640   4.413  10.043  0.00  0.00    +0.000 A 
ATOM     24  C   UNL     1      45.533   5.302  10.663  0.00  0.00    +0.000 A 
BRANCH  23  25
ATOM     25  C   UNL     1      45.074   3.646   8.805  0.00  0.00    +0.000 C 
ATOM     26  C   UNL     1      45.532   2.228   9.189  0.00  0.00    +0.000 C 
ATOM     27  C   UNL     1      46.107   1.485   7.994  0.00  0.00    +0.000 C 
ATOM     28  O   UNL     1      47.151   2.243   7.392  0.00  0.00    +0.000 OA
ATOM     29  C   UNL     1      46.681   3.488   6.879  0.00  0.00    +0.000 C 
ATOM     30  C   UNL     1      46.157   4.374   8.001  0.00  0.00    +0.000 C 
ENDBRANCH  23  25
ENDBRANCH  16  19
ENDBRANCH   1  16
TORSDOF 9
ENDMDL
MODEL 6
REMARK VINA RESULT:    -6.433      2.963      7.970
REMARK INTER + INTRA:         -10.907
REMARK INTER:                  -9.491
REMARK INTRA:                  -1.415
REMARK UNBOUND:                -1.277
REMARK  Name = 
REMARK  9 active torsions:
REMARK  status: ('A' for Active; 'I' for Inactive)
REMARK    1  A    between atoms: C_2  and  O_3
REMARK    2  A    between atoms: C_2  and  C_4
REMARK    3  A    between atoms: C_4  and  C_5
REMARK    4  A    between atoms: C_5  and  C_6
REMARK    5  A    between atoms: C_6  and  C_7
REMARK    6  A    between atoms: C_12  and  N_13
REMARK    7  A    between atoms: N_13  and  C_14
REMARK    8  A    between atoms: C_14  and  C_15
REMARK    9  A    between atoms: C_19  and  C_20
REMARK                            x       y       z     vdW  Elec       q    Type
REMARK                         _______ _______ _______ _____ _____    ______ ____
ROOT
ATOM      1  N   UNL     1      48.123   6.731  16.171  0.00  0.00    +0.000 N 
ATOM      2  H   UNL     1      47.119   6.734  16.326  0.00  0.00    +0.000 HD
ENDROOT
BRANCH   1   8
ATOM      3  C   UNL     1      47.737   6.156  13.753  0.00  0.00    +0.000 A 
ATOM      4  C   UNL     1      48.253   6.383  12.457  0.00  0.00    +0.000 A 
ATOM      5  C   UNL     1      49.208   7.358  12.224  0.00  0.00    +0.000 A 
ATOM      6  C   UNL     1      49.628   8.090  13.306  0.00  0.00    +0.000 A 
ATOM      7  N   UNL     1      49.202   7.864  14.565  0.00  0.00    +0.000 NA
ATOM      8  C   UNL     1      48.291   6.884  14.806  0.00  0.00    +0.000 A 
BRANCH   3   9
ATOM      9  C   UNL     1      46.594   5.182  13.843  0.00  0.00    +0.000 C 
BRANCH   9  10
ATOM     10  C   UNL     1      45.846   4.995  12.512  0.00  0.00    +0.000 C 
BRANCH  10  11
ATOM     11  C   UNL     1      44.971   3.753  12.343  0.00  0.00    +0.000 C 
BRANCH  11  13
ATOM     12  O   UNL     1      42.941   4.790  13.179  0.00  0.00    +0.000 OA
ATOM     13  C   UNL     1      43.488   4.019  12.412  0.00  0.00    +0.000 C 
BRANCH  13  14
ATOM     14  O   UNL     1      42.799   3.299  11.495  0.00  0.00    +0.000 OA
ATOM     15  H   UNL     1      43.292   3.143  10.667  0.00  0.00    +0.000 HD
ENDBRANCH  13  14
ENDBRANCH  11  13
ENDBRANCH  10  11
ENDBRANCH   9  10
ENDBRANCH   3   9
ENDBRANCH   1   8
BRANCH   1  16
ATOM     16  C   UNL     1      48.963   6.278  17.276  0.00  0.00    +0.000 C 
ATOM     17  C   UNL     1      48.558   6.884  18.626  0.00  0.00    +0.000 C 
ATOM     18  C   UNL     1      49.894   7.191  18.049  0.00  0.00    +0.000 C 
BRANCH  16  19
ATOM     19  C   UNL     1      49.202   4.770  17.274  0.00  0.00    +0.000 A 
ATOM     20  C   UNL     1      48.213   3.885  16.813  0.00  0.00    +0.000 A 
ATOM     21  C   UNL     1      48.462   2.520  16.677  0.00  0.00    +0.000 A 
ATOM     22  C   UNL     1      49.722   2.012  16.977  0.00  0.00    +0.000 A 
ATOM     23  C   UNL     1      50.737   2.855  17.446  0.00  0.00    +0.000 A 
ATOM     24  C   UNL     1      50.439   4.212  17.646  0.00  0.00    +0.000 A 
BRANCH  23  25
ATOM     25  C   UNL     1      52.166   2.362  17.608  0.00  0.00    +0.000 C 
ATOM     26  C   UNL     1      52.194   0.826  17.707  0.00  0.00    +0.000 C 
ATOM     27  C   UNL     1      53.591   0.312  18.013  0.00  0.00    +0.000 C 
ATOM     28  O   UNL     1      54.104   0.935  19.186  0.00  0.00    +0.000 OA
ATOM     29  C   UNL     1      54.242   2.346  19.025  0.00  0.00    +0.000 C 
ATOM     30  C   UNL     1      52.885   3.002  18.801  0.00  0.00    +0.000 C 
ENDBRANCH  23  25
ENDBRANCH  16  19
ENDBRANCH   1  16
TORSDOF 9
ENDMDL
MODEL 7
REMARK VINA RESULT:    -6.358      1.680      8.192
REMARK INTER + INTRA:         -10.795
REMARK INTER:                 -10.132
REMARK INTRA:                  -0.663
REMARK UNBOUND:                -1.277
REMARK  Name = 
REMARK  9 active torsions:
REMARK  status: ('A' for Active; 'I' for Inactive)
REMARK    1  A    between atoms: C_2  and  O_3
REMARK    2  A    between atoms: C_2  and  C_4
REMARK    3  A    between atoms: C_4  and  C_5
REMARK    4  A    between atoms: C_5  and  C_6
REMARK    5  A    between atoms: C_6  and  C_7
REMARK    6  A    between atoms: C_12  and  N_13
REMARK    7  A    between atoms: N_13  and  C_14
REMARK    8  A    between atoms: C_14  and  C_15
REMARK    9  A    between atoms: C_19  and  C_20
REMARK                            x       y       z     vdW  Elec       q    Type
REMARK                         _______ _______ _______ _____ _____    ______ ____
ROOT
ATOM      1  N   UNL     1      46.741   5.856  12.367  0.00  0.00    +0.000 N 
ATOM      2  H   UNL     1      47.367   5.115  12.065  0.00  0.00    +0.000 HD
ENDROOT
BRANCH   1   8
ATOM      3  C   UNL     1      44.910   5.201  10.771  0.00  0.00    +0.000 A 
ATOM      4  C   UNL     1      43.515   4.985  10.703  0.00  0.00    +0.000 A 
ATOM      5  C   UNL     1      42.743   4.910  11.850  0.00  0.00    +0.000 A 
ATOM      6  C   UNL     1      43.392   5.055  13.050  0.00  0.00    +0.000 A 
ATOM      7  N   UNL     1      44.710   5.320  13.152  0.00  0.00    +0.000 NA
ATOM      8  C   UNL     1      45.468   5.431  12.029  0.00  0.00    +0.000 A 
BRANCH   3   9
ATOM      9  C   UNL     1      45.654   5.103   9.467  0.00  0.00    +0.000 C 
BRANCH   9  10
ATOM     10  C   UNL     1      45.033   4.094   8.486  0.00  0.00    +0.000 C 
BRANCH  10  11
ATOM     11  C   UNL     1      45.837   2.842   8.132  0.00  0.00    +0.000 C 
BRANCH  11  13
ATOM     12  O   UNL     1      47.947   2.366   7.029  0.00  0.00    +0.000 OA
ATOM     13  C   UNL     1      46.971   3.081   7.166  0.00  0.00    +0.000 C 
BRANCH  13  14
ATOM     14  O   UNL     1      46.785   4.203   6.432  0.00  0.00    +0.000 OA
ATOM     15  H   UNL     1      47.052   4.110   5.498  0.00  0.00    +0.000 HD
ENDBRANCH  13  14
ENDBRANCH  11  13
ENDBRANCH  10  11
ENDBRANCH   9  10
ENDBRANCH   3   9
ENDBRANCH   1   8
BRANCH   1  16
ATOM     16  C   UNL     1      47.350   7.136  12.717  0.00  0.00    +0.000 C 
ATOM     17  C   UNL     1      46.319   8.245  12.958  0.00  0.00    +0.000 C 
ATOM     18  C   UNL     1      47.283   8.364  11.833  0.00  0.00    +0.000 C 
BRANCH  16  19
ATOM     19  C   UNL     1      48.448   7.014  13.771  0.00  0.00    +0.000 A 
ATOM     20  C   UNL     1      49.681   7.669  13.605  0.00  0.00    +0.000 A 
ATOM     21  C   UNL     1      50.642   7.681  14.614  0.00  0.00    +0.000 A 
ATOM     22  C   UNL     1      50.379   7.056  15.829  0.00  0.00    +0.000 A 
ATOM     23  C   UNL     1      49.167   6.387  16.039  0.00  0.00    +0.000 A 
ATOM     24  C   UNL     1      48.246   6.324  14.980  0.00  0.00    +0.000 A 
BRANCH  23  25
ATOM     25  C   UNL     1      48.781   5.854  17.409  0.00  0.00    +0.000 C 
ATOM     26  C   UNL     1      49.625   6.532  18.503  0.00  0.00    +0.000 C 
ATOM     27  C   UNL     1      49.365   5.919  19.869  0.00  0.00    +0.000 C 
ATOM     28  O   UNL     1      49.568   4.511  19.829  0.00  0.00    +0.000 OA
ATOM     29  C   UNL     1      48.660   3.864  18.940  0.00  0.00    +0.000 C 
ATOM     30  C   UNL     1      48.881   4.328  17.506  0.00  0.00    +0.000 C 
ENDBRANCH  23  25
ENDBRANCH  16  19
ENDBRANCH   1  16
TORSDOF 9
ENDMDL
MODEL 8
REMARK VINA RESULT:    -6.157      2.866      4.868
REMARK INTER + INTRA:         -10.494
REMARK INTER:                  -9.007
REMARK INTRA:                  -1.487
REMARK UNBOUND:                -1.277
REMARK  Name = 
REMARK  9 active torsions:
REMARK  status: ('A' for Active; 'I' for Inactive)
REMARK    1  A    between atoms: C_2  and  O_3
REMARK    2  A    between atoms: C_2  and  C_4
REMARK    3  A    between atoms: C_4  and  C_5
REMARK    4  A    between atoms: C_5  and  C_6
REMARK    5  A    between atoms: C_6  and  C_7
REMARK    6  A    between atoms: C_12  and  N_13
REMARK    7  A    between atoms: N_13  and  C_14
REMARK    8  A    between atoms: C_14  and  C_15
REMARK    9  A    between atoms: C_19  and  C_20
REMARK                            x       y       z     vdW  Elec       q    Type
REMARK                         _______ _______ _______ _____ _____    ______ ____
ROOT
ATOM      1  N   UNL     1      48.554   7.205  16.906  0.00  0.00    +0.000 N 
ATOM      2  H   UNL     1      47.638   7.035  16.501  0.00  0.00    +0.000 HD
ENDROOT
BRANCH   1   8
ATOM      3  C   UNL     1      48.534   6.645  19.359  0.00  0.00    +0.000 A 
ATOM      4  C   UNL     1      48.008   7.080  20.597  0.00  0.00    +0.000 A 
ATOM      5  C   UNL     1      47.394   8.313  20.724  0.00  0.00    +0.000 A 
ATOM      6  C   UNL     1      47.319   9.092  19.597  0.00  0.00    +0.000 A 
ATOM      7  N   UNL     1      47.757   8.689  18.387  0.00  0.00    +0.000 NA
ATOM      8  C   UNL     1      48.329   7.463  18.247  0.00  0.00    +0.000 A 
BRANCH   3   9
ATOM      9  C   UNL     1      49.313   5.359  19.391  0.00  0.00    +0.000 C 
BRANCH   9  10
ATOM     10  C   UNL     1      48.538   4.161  18.816  0.00  0.00    +0.000 C 
BRANCH  10  11
ATOM     11  C   UNL     1      48.899   3.671  17.414  0.00  0.00    +0.000 C 
BRANCH  11  13
ATOM     12  O   UNL     1      47.758   2.897  15.415  0.00  0.00    +0.000 OA
ATOM     13  C   UNL     1      47.723   3.205  16.593  0.00  0.00    +0.000 C 
BRANCH  13  14
ATOM     14  O   UNL     1      46.584   3.148  17.324  0.00  0.00    +0.000 OA
ATOM     15  H   UNL     1      46.736   3.135  18.288  0.00  0.00    +0.000 HD
ENDBRANCH  13  14
ENDBRANCH  11  13
ENDBRANCH  10  11
ENDBRANCH   9  10
ENDBRANCH   3   9
ENDBRANCH   1   8
BRANCH   1  16
ATOM     16  C   UNL     1      49.658   7.430  15.977  0.00  0.00    +0.000 C 
ATOM     17  C   UNL     1      50.870   6.533  16.256  0.00  0.00    +0.000 C 
ATOM     18  C   UNL     1      50.996   8.008  16.391  0.00  0.00    +0.000 C 
BRANCH  16  19
ATOM     19  C   UNL     1      49.213   7.506  14.518  0.00  0.00    +0.000 A 
ATOM     20  C   UNL     1      50.065   8.033  13.533  0.00  0.00    +0.000 A 
ATOM     21  C   UNL     1      49.732   7.987  12.180  0.00  0.00    +0.000 A 
ATOM     22  C   UNL     1      48.543   7.385  11.779  0.00  0.00    +0.000 A 
ATOM     23  C   UNL     1      47.661   6.852  12.726  0.00  0.00    +0.000 A 
ATOM     24  C   UNL     1      47.983   6.978  14.087  0.00  0.00    +0.000 A 
BRANCH  23  25
ATOM     25  C   UNL     1      46.450   6.033  12.308  0.00  0.00    +0.000 C 
ATOM     26  C   UNL     1      45.343   6.954  11.764  0.00  0.00    +0.000 C 
ATOM     27  C   UNL     1      44.068   6.182  11.473  0.00  0.00    +0.000 C 
ATOM     28  O   UNL     1      43.647   5.461  12.627  0.00  0.00    +0.000 OA
ATOM     29  C   UNL     1      44.605   4.482  13.025  0.00  0.00    +0.000 C 
ATOM     30  C   UNL     1      45.917   5.141  13.435  0.00  0.00    +0.000 C 
ENDBRANCH  23  25
ENDBRANCH  16  19
ENDBRANCH   1  16
TORSDOF 9
ENDMDL
MODEL 9
REMARK VINA RESULT:    -5.715      3.038      8.620
REMARK INTER + INTRA:          -9.833
REMARK INTER:                  -9.267
REMARK INTRA:                  -0.566
REMARK UNBOUND:                -1.277
REMARK  Name = 
REMARK  9 active torsions:
REMARK  status: ('A' for Active; 'I' for Inactive)
REMARK    1  A    between atoms: C_2  and  O_3
REMARK    2  A    between atoms: C_2  and  C_4
REMARK    3  A    between atoms: C_4  and  C_5
REMARK    4  A    between atoms: C_5  and  C_6
REMARK    5  A    between atoms: C_6  and  C_7
REMARK    6  A    between atoms: C_12  and  N_13
REMARK    7  A    between atoms: N_13  and  C_14
REMARK    8  A    between atoms: C_14  and  C_15
REMARK    9  A    between atoms: C_19  and  C_20
REMARK                            x       y       z     vdW  Elec       q    Type
REMARK                         _______ _______ _______ _____ _____    ______ ____
ROOT
ATOM      1  N   UNL     1      47.597   5.135  16.312  0.00  0.00    +0.000 N 
ATOM      2  H   UNL     1      46.660   5.431  16.572  0.00  0.00    +0.000 HD
ENDROOT
BRANCH   1   8
ATOM      3  C   UNL     1      47.312   5.515  13.841  0.00  0.00    +0.000 A 
ATOM      4  C   UNL     1      47.925   6.141  12.732  0.00  0.00    +0.000 A 
ATOM      5  C   UNL     1      48.973   7.030  12.896  0.00  0.00    +0.000 A 
ATOM      6  C   UNL     1      49.388   7.274  14.181  0.00  0.00    +0.000 A 
ATOM      7  N   UNL     1      48.866   6.654  15.259  0.00  0.00    +0.000 NA
ATOM      8  C   UNL     1      47.861   5.752  15.101  0.00  0.00    +0.000 A 
BRANCH   3   9
ATOM      9  C   UNL     1      46.086   4.697  13.539  0.00  0.00    +0.000 C 
BRANCH   9  10
ATOM     10  C   UNL     1      44.947   5.517  12.908  0.00  0.00    +0.000 C 
BRANCH  10  11
ATOM     11  C   UNL     1      44.842   5.552  11.383  0.00  0.00    +0.000 C 
BRANCH  11  13
ATOM     12  O   UNL     1      43.681   3.420  11.322  0.00  0.00    +0.000 OA
ATOM     13  C   UNL     1      43.959   4.481  10.793  0.00  0.00    +0.000 C 
BRANCH  13  14
ATOM     14  O   UNL     1      43.479   4.832   9.576  0.00  0.00    +0.000 OA
ATOM     15  H   UNL     1      43.194   4.073   9.032  0.00  0.00    +0.000 HD
ENDBRANCH  13  14
ENDBRANCH  11  13
ENDBRANCH  10  11
ENDBRANCH   9  10
ENDBRANCH   3   9
ENDBRANCH   1   8
BRANCH   1  16
ATOM     16  C   UNL     1      48.166   4.012  17.051  0.00  0.00    +0.000 C 
ATOM     17  C   UNL     1      48.101   2.689  16.277  0.00  0.00    +0.000 C 
ATOM     18  C   UNL     1      47.349   2.838  17.551  0.00  0.00    +0.000 C 
BRANCH  16  19
ATOM     19  C   UNL     1      49.512   4.334  17.696  0.00  0.00    +0.000 A 
ATOM     20  C   UNL     1      49.629   5.372  18.636  0.00  0.00    +0.000 A 
ATOM     21  C   UNL     1      50.815   5.594  19.335  0.00  0.00    +0.000 A 
ATOM     22  C   UNL     1      51.908   4.759  19.125  0.00  0.00    +0.000 A 
ATOM     23  C   UNL     1      51.840   3.715  18.195  0.00  0.00    +0.000 A 
ATOM     24  C   UNL     1      50.660   3.560  17.449  0.00  0.00    +0.000 A 
BRANCH  23  25
ATOM     25  C   UNL     1      52.949   2.683  18.077  0.00  0.00    +0.000 C 
ATOM     26  C   UNL     1      52.356   1.290  17.800  0.00  0.00    +0.000 C 
ATOM     27  C   UNL     1      53.428   0.213  17.820  0.00  0.00    +0.000 C 
ATOM     28  O   UNL     1      54.152   0.254  19.046  0.00  0.00    +0.000 OA
ATOM     29  C   UNL     1      54.846   1.488  19.216  0.00  0.00    +0.000 C 
ATOM     30  C   UNL     1      53.868   2.653  19.304  0.00  0.00    +0.000 C 
ENDBRANCH  23  25
ENDBRANCH  16  19
ENDBRANCH   1  16
TORSDOF 9
ENDMDL
