MODEL 1
REMARK VINA RESULT:    -7.041      0.000      0.000
REMARK INTER + INTRA:         -12.629
REMARK INTER:                 -11.156
REMARK INTRA:                  -1.472
REMARK UNBOUND:                -1.472
REMARK  Name = 
REMARK  13 active torsions:
REMARK  status: ('A' for Active; 'I' for Inactive)
REMARK    1  A    between atoms: C_1  and  O_2
REMARK    2  A    between atoms: O_2  and  C_3
REMARK    3  A    between atoms: C_5  and  O_6
REMARK    4  A    between atoms: O_6  and  C_7
REMARK    5  A    between atoms: C_9  and  C_10
REMARK    6  A    between atoms: N_12  and  C_13
REMARK    7  A    between atoms: C_13  and  C_14
REMARK    8  A    between atoms: C_17  and  O_18
REMARK    9  A    between atoms: O_18  and  C_19
REMARK   10  A    between atoms: C_19  and  C_20
REMARK   11  A    between atoms: C_20  and  C_21
REMARK   12  A    between atoms: C_26  and  O_27
REMARK   13  A    between atoms: O_27  and  C_28
REMARK                            x       y       z     vdW  Elec       q    Type
REMARK                         _______ _______ _______ _____ _____    ______ ____
ROOT
ATOM      1  C   UNL     1      49.037   7.388  14.984  0.00  0.00    +0.000 C 
ATOM      2  O   UNL     1      49.988   6.971  14.327  0.00  0.00    +0.000 OA
ATOM      3  N   UNL     1      47.891   7.840  14.380  0.00  0.00    +0.000 N 
ATOM      4  H   UNL     1      47.141   8.232  14.932  0.00  0.00    +0.000 HD
ENDROOT
BRANCH   1   9
ATOM      5  C   UNL     1      49.018   5.050  19.788  0.00  0.00    +0.000 A 
ATOM      6  N   UNL     1      48.869   4.322  18.666  0.00  0.00    +0.000 NA
ATOM      7  C   UNL     1      48.849   4.974  17.481  0.00  0.00    +0.000 A 
ATOM      8  C   UNL     1      49.003   6.364  17.437  0.00  0.00    +0.000 A 
ATOM      9  C   UNL     1      49.071   7.408  16.448  0.00  0.00    +0.000 A 
ATOM     10  C   UNL     1      49.205   8.597  17.159  0.00  0.00    +0.000 A 
ATOM     11  N   UNL     1      49.245   8.319  18.496  0.00  0.00    +0.000 N 
ATOM     12  C   UNL     1      49.132   6.973  18.677  0.00  0.00    +0.000 A 
ATOM     13  N   UNL     1      49.141   6.379  19.878  0.00  0.00    +0.000 NA
ATOM     14  H   UNL     1      49.343   8.986  19.248  0.00  0.00    +0.000 HD
BRANCH   5  16
ATOM     15  C   UNL     1      48.236   5.134  21.978  0.00  0.00    +0.000 C 
ATOM     16  O   UNL     1      48.979   4.409  21.008  0.00  0.00    +0.000 OA
ENDBRANCH   5  16
BRANCH   7  17
ATOM     17  O   UNL     1      48.645   4.264  16.314  0.00  0.00    +0.000 OA
ATOM     18  C   UNL     1      47.358   3.662  16.222  0.00  0.00    +0.000 C 
ENDBRANCH   7  17
ENDBRANCH   1   9
BRANCH   3  19
ATOM     19  C   UNL     1      47.770   7.826  12.945  0.00  0.00    +0.000 C 
BRANCH  19  20
ATOM     20  C   UNL     1      46.818   6.766  12.466  0.00  0.00    +0.000 A 
ATOM     21  C   UNL     1      46.406   5.763  13.348  0.00  0.00    +0.000 A 
ATOM     22  C   UNL     1      45.507   4.777  12.933  0.00  0.00    +0.000 A 
ATOM     23  C   UNL     1      45.021   4.767  11.625  0.00  0.00    +0.000 A 
ATOM     24  C   UNL     1      45.437   5.759  10.736  0.00  0.00    +0.000 A 
ATOM     25  C   UNL     1      46.331   6.754  11.154  0.00  0.00    +0.000 A 
BRANCH  23  26
ATOM     26  O   UNL     1      44.141   3.845  11.110  0.00  0.00    +0.000 OA
BRANCH  26  27
ATOM     27  C   UNL     1      44.744   2.625  10.682  0.00  0.00    +0.000 C 
BRANCH  27  28
ATOM     28  C   UNL     1      44.423   2.361   9.213  0.00  0.00    +0.000 C 
BRANCH  28  29
ATOM     29  C   UNL     1      45.585   2.497   8.246  0.00  0.00    +0.000 A 
ATOM     30  C   UNL     1      45.926   3.772   7.732  0.00  0.00    +0.000 A 
ATOM     31  C   UNL     1      47.056   3.980   6.940  0.00  0.00    +0.000 A 
ATOM     32  C   UNL     1      47.877   2.909   6.631  0.00  0.00    +0.000 A 
ATOM     33  C   UNL     1      47.547   1.639   7.094  0.00  0.00    +0.000 A 
ATOM     34  C   UNL     1      46.404   1.411   7.882  0.00  0.00    +0.000 A 
BRANCH  34  35
ATOM     35  O   UNL     1      46.306   0.103   8.275  0.00  0.00    +0.000 OA
ATOM     36  C   UNL     1      46.771  -0.916   7.406  0.00  0.00    +0.000 C 
ENDBRANCH  34  35
ENDBRANCH  28  29
ENDBRANCH  27  28
ENDBRANCH  26  27
ENDBRANCH  23  26
ENDBRANCH  19  20
ENDBRANCH   3  19
TORSDOF 10
ENDMDL
MODEL 2
REMARK VINA RESULT:    -6.889      1.456      2.250
REMARK INTER + INTRA:         -12.389
REMARK INTER:                 -10.992
REMARK INTRA:                  -1.397
REMARK UNBOUND:                -1.472
REMARK  Name = 
REMARK  13 active torsions:
REMARK  status: ('A' for Active; 'I' for Inactive)
REMARK    1  A    between atoms: C_1  and  O_2
REMARK    2  A    between atoms: O_2  and  C_3
REMARK    3  A    between atoms: C_5  and  O_6
REMARK    4  A    between atoms: O_6  and  C_7
REMARK    5  A    between atoms: C_9  and  C_10
REMARK    6  A    between atoms: N_12  and  C_13
REMARK    7  A    between atoms: C_13  and  C_14
REMARK    8  A    between atoms: C_17  and  O_18
REMARK    9  A    between atoms: O_18  and  C_19
REMARK   10  A    between atoms: C_19  and  C_20
REMARK   11  A    between atoms: C_20  and  C_21
REMARK   12  A    between atoms: C_26  and  O_27
REMARK   13  A    between atoms: O_27  and  C_28
REMARK                            x       y       z     vdW  Elec       q    Type
REMARK                         _______ _______ _______ _____ _____    ______ ____
ROOT
ATOM      1  C   UNL     1      48.030   8.805  14.237  0.00  0.00    +0.000 C 
ATOM      2  O   UNL     1      48.815   8.891  13.295  0.00  0.00    +0.000 OA
ATOM      3  N   UNL     1      46.676   8.715  14.034  0.00  0.00    +0.000 N 
ATOM      4  H   UNL     1      46.040   8.703  14.820  0.00  0.00    +0.000 HD
ENDROOT
BRANCH   1   9
ATOM      5  C   UNL     1      49.632   6.305  18.678  0.00  0.00    +0.000 A 
ATOM      6  N   UNL     1      49.208   5.607  17.608  0.00  0.00    +0.000 NA
ATOM      7  C   UNL     1      48.783   6.296  16.525  0.00  0.00    +0.000 A 
ATOM      8  C   UNL     1      48.812   7.695  16.522  0.00  0.00    +0.000 A 
ATOM      9  C   UNL     1      48.500   8.775  15.624  0.00  0.00    +0.000 A 
ATOM     10  C   UNL     1      48.751   9.945  16.333  0.00  0.00    +0.000 A 
ATOM     11  N   UNL     1      49.212   9.624  17.579  0.00  0.00    +0.000 N 
ATOM     12  C   UNL     1      49.261   8.268  17.703  0.00  0.00    +0.000 A 
ATOM     13  N   UNL     1      49.674   7.636  18.809  0.00  0.00    +0.000 NA
ATOM     14  H   UNL     1      49.481  10.270  18.308  0.00  0.00    +0.000 HD
BRANCH   5  16
ATOM     15  C   UNL     1      48.999   4.734  20.274  0.00  0.00    +0.000 C 
ATOM     16  O   UNL     1      50.009   5.620  19.814  0.00  0.00    +0.000 OA
ENDBRANCH   5  16
BRANCH   7  17
ATOM     17  O   UNL     1      48.292   5.613  15.429  0.00  0.00    +0.000 OA
ATOM     18  C   UNL     1      47.446   4.518  15.764  0.00  0.00    +0.000 C 
ENDBRANCH   7  17
ENDBRANCH   1   9
BRANCH   3  19
ATOM     19  C   UNL     1      46.137   8.709  12.699  0.00  0.00    +0.000 C 
BRANCH  19  20
ATOM     20  C   UNL     1      45.470   7.405  12.362  0.00  0.00    +0.000 A 
ATOM     21  C   UNL     1      44.294   7.409  11.607  0.00  0.00    +0.000 A 
ATOM     22  C   UNL     1      43.666   6.209  11.265  0.00  0.00    +0.000 A 
ATOM     23  C   UNL     1      44.192   4.987  11.688  0.00  0.00    +0.000 A 
ATOM     24  C   UNL     1      45.361   4.977  12.452  0.00  0.00    +0.000 A 
ATOM     25  C   UNL     1      45.997   6.179  12.788  0.00  0.00    +0.000 A 
BRANCH  23  26
ATOM     26  O   UNL     1      43.655   3.752  11.416  0.00  0.00    +0.000 OA
BRANCH  26  27
ATOM     27  C   UNL     1      44.575   2.815  10.858  0.00  0.00    +0.000 C 
BRANCH  27  28
ATOM     28  C   UNL     1      44.323   2.649   9.361  0.00  0.00    +0.000 C 
BRANCH  28  29
ATOM     29  C   UNL     1      45.545   2.346   8.513  0.00  0.00    +0.000 A 
ATOM     30  C   UNL     1      45.963   1.005   8.338  0.00  0.00    +0.000 A 
ATOM     31  C   UNL     1      47.000   0.654   7.472  0.00  0.00    +0.000 A 
ATOM     32  C   UNL     1      47.657   1.642   6.760  0.00  0.00    +0.000 A 
ATOM     33  C   UNL     1      47.289   2.973   6.940  0.00  0.00    +0.000 A 
ATOM     34  C   UNL     1      46.255   3.343   7.818  0.00  0.00    +0.000 A 
BRANCH  34  35
ATOM     35  O   UNL     1      46.022   4.693   7.794  0.00  0.00    +0.000 OA
ATOM     36  C   UNL     1      46.329   5.467   8.942  0.00  0.00    +0.000 C 
ENDBRANCH  34  35
ENDBRANCH  28  29
ENDBRANCH  27  28
ENDBRANCH  26  27
ENDBRANCH  23  26
ENDBRANCH  19  20
ENDBRANCH   3  19
TORSDOF 10
ENDMDL
MODEL 3
REMARK VINA RESULT:    -6.837      3.660      8.558
REMARK INTER + INTRA:         -12.307
REMARK INTER:                 -10.281
REMARK INTRA:                  -2.026
REMARK UNBOUND:                -1.472
REMARK  Name = 
REMARK  13 active torsions:
REMARK  status: ('A' for Active; 'I' for Inactive)
REMARK    1  A    between atoms: C_1  and  O_2
REMARK    2  A    between atoms: O_2  and  C_3
REMARK    3  A    between atoms: C_5  and  O_6
REMARK    4  A    between atoms: O_6  and  C_7
REMARK    5  A    between atoms: C_9  and  C_10
REMARK    6  A    between atoms: N_12  and  C_13
REMARK    7  A    between atoms: C_13  and  C_14
REMARK    8  A    between atoms: C_17  and  O_18
REMARK    9  A    between atoms: O_18  and  C_19
REMARK   10  A    between atoms: C_19  and  C_20
REMARK   11  A    between atoms: C_20  and  C_21
REMARK   12  A    between atoms: C_26  and  O_27
REMARK   13  A    between atoms: O_27  and  C_28
REMARK                            x       y       z     vdW  Elec       q    Type
REMARK                         _______ _______ _______ _____ _____    ______ ____
ROOT
ATOM      1  C   UNL     1      46.536   9.083  12.462  0.00  0.00    +0.000 C 
ATOM      2  O   UNL     1      47.103   9.967  11.823  0.00  0.00    +0.000 OA
ATOM      3  N   UNL     1      46.949   8.732  13.722  0.00  0.00    +0.000 N 
ATOM      4  H   UNL     1      46.508   7.964  14.211  0.00  0.00    +0.000 HD
ENDROOT
BRANCH   1   9
ATOM      5  C   UNL     1      43.747   4.669  11.333  0.00  0.00    +0.000 A 
ATOM      6  N   UNL     1      44.978   4.588  11.870  0.00  0.00    +0.000 NA
ATOM      7  C   UNL     1      45.648   5.739  12.103  0.00  0.00    +0.000 A 
ATOM      8  C   UNL     1      45.056   6.973  11.811  0.00  0.00    +0.000 A 
ATOM      9  C   UNL     1      45.377   8.372  11.918  0.00  0.00    +0.000 A 
ATOM     10  C   UNL     1      44.289   9.054  11.381  0.00  0.00    +0.000 A 
ATOM     11  N   UNL     1      43.343   8.151  10.987  0.00  0.00    +0.000 N 
ATOM     12  C   UNL     1      43.790   6.890  11.248  0.00  0.00    +0.000 A 
ATOM     13  N   UNL     1      43.091   5.780  10.980  0.00  0.00    +0.000 NA
ATOM     14  H   UNL     1      42.448   8.358  10.568  0.00  0.00    +0.000 HD
BRANCH   5  16
ATOM     15  C   UNL     1      43.413   2.438  11.905  0.00  0.00    +0.000 C 
ATOM     16  O   UNL     1      43.073   3.503  11.031  0.00  0.00    +0.000 OA
ENDBRANCH   5  16
BRANCH   7  17
ATOM     17  O   UNL     1      46.935   5.692  12.604  0.00  0.00    +0.000 OA
ATOM     18  C   UNL     1      47.029   5.097  13.895  0.00  0.00    +0.000 C 
ENDBRANCH   7  17
ENDBRANCH   1   9
BRANCH   3  19
ATOM     19  C   UNL     1      48.064   9.404  14.338  0.00  0.00    +0.000 C 
BRANCH  19  20
ATOM     20  C   UNL     1      48.464   8.766  15.638  0.00  0.00    +0.000 A 
ATOM     21  C   UNL     1      49.288   7.637  15.625  0.00  0.00    +0.000 A 
ATOM     22  C   UNL     1      49.689   7.037  16.821  0.00  0.00    +0.000 A 
ATOM     23  C   UNL     1      49.258   7.543  18.048  0.00  0.00    +0.000 A 
ATOM     24  C   UNL     1      48.425   8.663  18.067  0.00  0.00    +0.000 A 
ATOM     25  C   UNL     1      48.030   9.272  16.869  0.00  0.00    +0.000 A 
BRANCH  23  26
ATOM     26  O   UNL     1      49.584   7.030  19.280  0.00  0.00    +0.000 OA
BRANCH  26  27
ATOM     27  C   UNL     1      50.534   5.967  19.246  0.00  0.00    +0.000 C 
BRANCH  27  28
ATOM     28  C   UNL     1      49.878   4.654  19.669  0.00  0.00    +0.000 C 
BRANCH  28  29
ATOM     29  C   UNL     1      49.262   3.831  18.553  0.00  0.00    +0.000 A 
ATOM     30  C   UNL     1      47.886   3.977  18.251  0.00  0.00    +0.000 A 
ATOM     31  C   UNL     1      47.291   3.343  17.159  0.00  0.00    +0.000 A 
ATOM     32  C   UNL     1      48.058   2.534  16.340  0.00  0.00    +0.000 A 
ATOM     33  C   UNL     1      49.406   2.346  16.634  0.00  0.00    +0.000 A 
ATOM     34  C   UNL     1      50.017   2.967  17.738  0.00  0.00    +0.000 A 
BRANCH  34  35
ATOM     35  O   UNL     1      51.357   2.692  17.803  0.00  0.00    +0.000 OA
ATOM     36  C   UNL     1      51.809   1.382  17.499  0.00  0.00    +0.000 C 
ENDBRANCH  34  35
ENDBRANCH  28  29
ENDBRANCH  27  28
ENDBRANCH  26  27
ENDBRANCH  23  26
ENDBRANCH  19  20
ENDBRANCH   3  19
TORSDOF 10
ENDMDL
MODEL 4
REMARK VINA RESULT:    -6.824      1.869      2.138
REMARK INTER + INTRA:         -12.286
REMARK INTER:                 -10.917
REMARK INTRA:                  -1.369
REMARK UNBOUND:                -1.472
REMARK  Name = 
REMARK  13 active torsions:
REMARK  status: ('A' for Active; 'I' for Inactive)
REMARK    1  A    between atoms: C_1  and  O_2
REMARK    2  A    between atoms: O_2  and  C_3
REMARK    3  A    between atoms: C_5  and  O_6
REMARK    4  A    between atoms: O_6  and  C_7
REMARK    5  A    between atoms: C_9  and  C_10
REMARK    6  A    between atoms: N_12  and  C_13
REMARK    7  A    between atoms: C_13  and  C_14
REMARK    8  A    between atoms: C_17  and  O_18
REMARK    9  A    between atoms: O_18  and  C_19
REMARK   10  A    between atoms: C_19  and  C_20
REMARK   11  A    between atoms: C_20  and  C_21
REMARK   12  A    between atoms: C_26  and  O_27
REMARK   13  A    between atoms: O_27  and  C_28
REMARK                            x       y       z     vdW  Elec       q    Type
REMARK                         _______ _______ _______ _____ _____    ______ ____
ROOT
ATOM      1  C   UNL     1      48.705   8.060  14.676  0.00  0.00    +0.000 C 
ATOM      2  O   UNL     1      48.507   9.272  14.617  0.00  0.00    +0.000 OA
ATOM      3  N   UNL     1      47.826   7.163  14.126  0.00  0.00    +0.000 N 
ATOM      4  H   UNL     1      47.974   6.168  14.233  0.00  0.00    +0.000 HD
ENDROOT
BRANCH   1   9
ATOM      5  C   UNL     1      51.276   4.498  17.716  0.00  0.00    +0.000 A 
ATOM      6  N   UNL     1      49.940   4.438  17.564  0.00  0.00    +0.000 NA
ATOM      7  C   UNL     1      49.342   5.388  16.809  0.00  0.00    +0.000 A 
ATOM      8  C   UNL     1      50.105   6.383  16.191  0.00  0.00    +0.000 A 
ATOM      9  C   UNL     1      49.900   7.513  15.322  0.00  0.00    +0.000 A 
ATOM     10  C   UNL     1      51.155   8.085  15.139  0.00  0.00    +0.000 A 
ATOM     11  N   UNL     1      52.086   7.355  15.821  0.00  0.00    +0.000 N 
ATOM     12  C   UNL     1      51.467   6.319  16.454  0.00  0.00    +0.000 A 
ATOM     13  N   UNL     1      52.107   5.415  17.207  0.00  0.00    +0.000 NA
ATOM     14  H   UNL     1      53.079   7.532  15.864  0.00  0.00    +0.000 HD
BRANCH   5  16
ATOM     15  C   UNL     1      53.274   3.420  18.228  0.00  0.00    +0.000 C 
ATOM     16  O   UNL     1      51.896   3.576  18.533  0.00  0.00    +0.000 OA
ENDBRANCH   5  16
BRANCH   7  17
ATOM     17  O   UNL     1      47.967   5.388  16.675  0.00  0.00    +0.000 OA
ATOM     18  C   UNL     1      47.314   4.367  17.423  0.00  0.00    +0.000 C 
ENDBRANCH   7  17
ENDBRANCH   1   9
BRANCH   3  19
ATOM     19  C   UNL     1      46.641   7.623  13.448  0.00  0.00    +0.000 C 
BRANCH  19  20
ATOM     20  C   UNL     1      45.930   6.512  12.730  0.00  0.00    +0.000 A 
ATOM     21  C   UNL     1      45.783   5.271  13.357  0.00  0.00    +0.000 A 
ATOM     22  C   UNL     1      45.110   4.228  12.718  0.00  0.00    +0.000 A 
ATOM     23  C   UNL     1      44.589   4.401  11.434  0.00  0.00    +0.000 A 
ATOM     24  C   UNL     1      44.743   5.633  10.798  0.00  0.00    +0.000 A 
ATOM     25  C   UNL     1      45.410   6.684  11.441  0.00  0.00    +0.000 A 
BRANCH  23  26
ATOM     26  O   UNL     1      43.917   3.444  10.712  0.00  0.00    +0.000 OA
BRANCH  26  27
ATOM     27  C   UNL     1      44.304   3.353   9.343  0.00  0.00    +0.000 C 
BRANCH  27  28
ATOM     28  C   UNL     1      45.313   2.222   9.150  0.00  0.00    +0.000 C 
BRANCH  28  29
ATOM     29  C   UNL     1      46.059   2.218   7.829  0.00  0.00    +0.000 A 
ATOM     30  C   UNL     1      46.072   3.385   7.026  0.00  0.00    +0.000 A 
ATOM     31  C   UNL     1      46.840   3.484   5.865  0.00  0.00    +0.000 A 
ATOM     32  C   UNL     1      47.616   2.408   5.468  0.00  0.00    +0.000 A 
ATOM     33  C   UNL     1      47.595   1.237   6.220  0.00  0.00    +0.000 A 
ATOM     34  C   UNL     1      46.816   1.118   7.385  0.00  0.00    +0.000 A 
BRANCH  34  35
ATOM     35  O   UNL     1      46.993  -0.095   7.997  0.00  0.00    +0.000 OA
ATOM     36  C   UNL     1      46.649  -1.279   7.296  0.00  0.00    +0.000 C 
ENDBRANCH  34  35
ENDBRANCH  28  29
ENDBRANCH  27  28
ENDBRANCH  26  27
ENDBRANCH  23  26
ENDBRANCH  19  20
ENDBRANCH   3  19
TORSDOF 10
ENDMDL
MODEL 5
REMARK VINA RESULT:    -6.700      3.604      8.731
REMARK INTER + INTRA:         -12.089
REMARK INTER:                  -9.938
REMARK INTRA:                  -2.151
REMARK UNBOUND:                -1.472
REMARK  Name = 
REMARK  13 active torsions:
REMARK  status: ('A' for Active; 'I' for Inactive)
REMARK    1  A    between atoms: C_1  and  O_2
REMARK    2  A    between atoms: O_2  and  C_3
REMARK    3  A    between atoms: C_5  and  O_6
REMARK    4  A    between atoms: O_6  and  C_7
REMARK    5  A    between atoms: C_9  and  C_10
REMARK    6  A    between atoms: N_12  and  C_13
REMARK    7  A    between atoms: C_13  and  C_14
REMARK    8  A    between atoms: C_17  and  O_18
REMARK    9  A    between atoms: O_18  and  C_19
REMARK   10  A    between atoms: C_19  and  C_20
REMARK   11  A    between atoms: C_20  and  C_21
REMARK   12  A    between atoms: C_26  and  O_27
REMARK   13  A    between atoms: O_27  and  C_28
REMARK                            x       y       z     vdW  Elec       q    Type
REMARK                         _______ _______ _______ _____ _____    ______ ____
ROOT
ATOM      1  C   UNL     1      46.749   8.747  12.796  0.00  0.00    +0.000 C 
ATOM      2  O   UNL     1      47.305   9.504  12.003  0.00  0.00    +0.000 OA
ATOM      3  N   UNL     1      47.095   8.721  14.123  0.00  0.00    +0.000 N 
ATOM      4  H   UNL     1      46.668   8.053  14.751  0.00  0.00    +0.000 HD
ENDROOT
BRANCH   1   9
ATOM      5  C   UNL     1      44.187   4.060  12.756  0.00  0.00    +0.000 A 
ATOM      6  N   UNL     1      45.345   4.207  13.424  0.00  0.00    +0.000 NA
ATOM      7  C   UNL     1      45.964   5.408  13.370  0.00  0.00    +0.000 A 
ATOM      8  C   UNL     1      45.392   6.465  12.655  0.00  0.00    +0.000 A 
ATOM      9  C   UNL     1      45.675   7.847  12.369  0.00  0.00    +0.000 A 
ATOM     10  C   UNL     1      44.650   8.281  11.533  0.00  0.00    +0.000 A 
ATOM     11  N   UNL     1      43.773   7.254  11.329  0.00  0.00    +0.000 N 
ATOM     12  C   UNL     1      44.205   6.153  12.008  0.00  0.00    +0.000 A 
ATOM     13  N   UNL     1      43.560   4.980  12.013  0.00  0.00    +0.000 NA
ATOM     14  H   UNL     1      42.931   7.280  10.771  0.00  0.00    +0.000 HD
BRANCH   5  16
ATOM     15  C   UNL     1      43.227   2.398  11.438  0.00  0.00    +0.000 C 
ATOM     16  O   UNL     1      43.573   2.824  12.748  0.00  0.00    +0.000 OA
ENDBRANCH   5  16
BRANCH   7  17
ATOM     17  O   UNL     1      47.181   5.578  14.001  0.00  0.00    +0.000 OA
ATOM     18  C   UNL     1      47.328   4.808  15.189  0.00  0.00    +0.000 C 
ENDBRANCH   7  17
ENDBRANCH   1   9
BRANCH   3  19
ATOM     19  C   UNL     1      48.122   9.596  14.627  0.00  0.00    +0.000 C 
BRANCH  19  20
ATOM     20  C   UNL     1      48.840   9.007  15.808  0.00  0.00    +0.000 A 
ATOM     21  C   UNL     1      49.629   7.866  15.634  0.00  0.00    +0.000 A 
ATOM     22  C   UNL     1      50.322   7.310  16.712  0.00  0.00    +0.000 A 
ATOM     23  C   UNL     1      50.223   7.874  17.985  0.00  0.00    +0.000 A 
ATOM     24  C   UNL     1      49.428   9.007  18.168  0.00  0.00    +0.000 A 
ATOM     25  C   UNL     1      48.740   9.571  17.085  0.00  0.00    +0.000 A 
BRANCH  23  26
ATOM     26  O   UNL     1      50.853   7.408  19.113  0.00  0.00    +0.000 OA
BRANCH  26  27
ATOM     27  C   UNL     1      51.917   6.492  18.862  0.00  0.00    +0.000 C 
BRANCH  27  28
ATOM     28  C   UNL     1      51.598   5.128  19.469  0.00  0.00    +0.000 C 
BRANCH  28  29
ATOM     29  C   UNL     1      50.723   4.217  18.629  0.00  0.00    +0.000 A 
ATOM     30  C   UNL     1      51.321   3.241  17.795  0.00  0.00    +0.000 A 
ATOM     31  C   UNL     1      50.570   2.295  17.096  0.00  0.00    +0.000 A 
ATOM     32  C   UNL     1      49.191   2.304  17.205  0.00  0.00    +0.000 A 
ATOM     33  C   UNL     1      48.574   3.274  17.992  0.00  0.00    +0.000 A 
ATOM     34  C   UNL     1      49.317   4.242  18.692  0.00  0.00    +0.000 A 
BRANCH  34  35
ATOM     35  O   UNL     1      48.514   5.056  19.446  0.00  0.00    +0.000 OA
ATOM     36  C   UNL     1      47.350   5.614  18.858  0.00  0.00    +0.000 C 
ENDBRANCH  34  35
ENDBRANCH  28  29
ENDBRANCH  27  28
ENDBRANCH  26  27
ENDBRANCH  23  26
ENDBRANCH  19  20
ENDBRANCH   3  19
TORSDOF 10
ENDMDL
MODEL 6
REMARK VINA RESULT:    -6.674      2.712      9.608
REMARK INTER + INTRA:         -12.049
REMARK INTER:                  -9.613
REMARK INTRA:                  -2.436
REMARK UNBOUND:                -1.472
REMARK  Name = 
REMARK  13 active torsions:
REMARK  status: ('A' for Active; 'I' for Inactive)
REMARK    1  A    between atoms: C_1  and  O_2
REMARK    2  A    between atoms: O_2  and  C_3
REMARK    3  A    between atoms: C_5  and  O_6
REMARK    4  A    between atoms: O_6  and  C_7
REMARK    5  A    between atoms: C_9  and  C_10
REMARK    6  A    between atoms: N_12  and  C_13
REMARK    7  A    between atoms: C_13  and  C_14
REMARK    8  A    between atoms: C_17  and  O_18
REMARK    9  A    between atoms: O_18  and  C_19
REMARK   10  A    between atoms: C_19  and  C_20
REMARK   11  A    between atoms: C_20  and  C_21
REMARK   12  A    between atoms: C_26  and  O_27
REMARK   13  A    between atoms: O_27  and  C_28
REMARK                            x       y       z     vdW  Elec       q    Type
REMARK                         _______ _______ _______ _____ _____    ______ ____
ROOT
ATOM      1  C   UNL     1      48.347   6.751  14.623  0.00  0.00    +0.000 C 
ATOM      2  O   UNL     1      49.537   6.496  14.795  0.00  0.00    +0.000 OA
ATOM      3  N   UNL     1      47.827   7.984  14.924  0.00  0.00    +0.000 N 
ATOM      4  H   UNL     1      46.836   8.159  14.831  0.00  0.00    +0.000 HD
ENDROOT
BRANCH   1   9
ATOM      5  C   UNL     1      44.794   5.019  11.028  0.00  0.00    +0.000 A 
ATOM      6  N   UNL     1      45.281   6.272  10.968  0.00  0.00    +0.000 NA
ATOM      7  C   UNL     1      46.152   6.664  11.926  0.00  0.00    +0.000 A 
ATOM      8  C   UNL     1      46.546   5.773  12.930  0.00  0.00    +0.000 A 
ATOM      9  C   UNL     1      47.425   5.756  14.070  0.00  0.00    +0.000 A 
ATOM     10  C   UNL     1      47.277   4.499  14.646  0.00  0.00    +0.000 A 
ATOM     11  N   UNL     1      46.389   3.768  13.909  0.00  0.00    +0.000 N 
ATOM     12  C   UNL     1      45.946   4.523  12.864  0.00  0.00    +0.000 A 
ATOM     13  N   UNL     1      45.066   4.090  11.953  0.00  0.00    +0.000 NA
ATOM     14  H   UNL     1      46.093   2.819  14.087  0.00  0.00    +0.000 HD
BRANCH   5  16
ATOM     15  C   UNL     1      44.451   4.063   8.934  0.00  0.00    +0.000 C 
ATOM     16  O   UNL     1      43.857   4.622  10.097  0.00  0.00    +0.000 OA
ENDBRANCH   5  16
BRANCH   7  17
ATOM     17  O   UNL     1      46.631   7.959  11.925  0.00  0.00    +0.000 OA
ATOM     18  C   UNL     1      45.641   8.941  12.214  0.00  0.00    +0.000 C 
ENDBRANCH   7  17
ENDBRANCH   1   9
BRANCH   3  19
ATOM     19  C   UNL     1      48.675   9.025  15.446  0.00  0.00    +0.000 C 
BRANCH  19  20
ATOM     20  C   UNL     1      48.668   9.064  16.948  0.00  0.00    +0.000 A 
ATOM     21  C   UNL     1      49.718   8.475  17.656  0.00  0.00    +0.000 A 
ATOM     22  C   UNL     1      49.744   8.515  19.052  0.00  0.00    +0.000 A 
ATOM     23  C   UNL     1      48.710   9.127  19.764  0.00  0.00    +0.000 A 
ATOM     24  C   UNL     1      47.652   9.707  19.062  0.00  0.00    +0.000 A 
ATOM     25  C   UNL     1      47.630   9.676  17.661  0.00  0.00    +0.000 A 
BRANCH  23  26
ATOM     26  O   UNL     1      48.631   9.218  21.132  0.00  0.00    +0.000 OA
BRANCH  26  27
ATOM     27  C   UNL     1      48.784   7.978  21.819  0.00  0.00    +0.000 C 
BRANCH  27  28
ATOM     28  C   UNL     1      47.571   7.082  21.575  0.00  0.00    +0.000 C 
BRANCH  28  29
ATOM     29  C   UNL     1      47.736   6.022  20.501  0.00  0.00    +0.000 A 
ATOM     30  C   UNL     1      46.940   6.079  19.330  0.00  0.00    +0.000 A 
ATOM     31  C   UNL     1      47.131   5.210  18.256  0.00  0.00    +0.000 A 
ATOM     32  C   UNL     1      48.123   4.247  18.325  0.00  0.00    +0.000 A 
ATOM     33  C   UNL     1      48.897   4.147  19.478  0.00  0.00    +0.000 A 
ATOM     34  C   UNL     1      48.709   5.007  20.574  0.00  0.00    +0.000 A 
BRANCH  34  35
ATOM     35  O   UNL     1      49.616   4.770  21.573  0.00  0.00    +0.000 OA
ATOM     36  C   UNL     1      50.994   4.984  21.319  0.00  0.00    +0.000 C 
ENDBRANCH  34  35
ENDBRANCH  28  29
ENDBRANCH  27  28
ENDBRANCH  26  27
ENDBRANCH  23  26
ENDBRANCH  19  20
ENDBRANCH   3  19
TORSDOF 10
ENDMDL
MODEL 7
REMARK VINA RESULT:    -6.337      3.364      9.389
REMARK INTER + INTRA:         -11.514
REMARK INTER:                  -9.321
REMARK INTRA:                  -2.193
REMARK UNBOUND:                -1.472
REMARK  Name = 
REMARK  13 active torsions:
REMARK  status: ('A' for Active; 'I' for Inactive)
REMARK    1  A    between atoms: C_1  and  O_2
REMARK    2  A    between atoms: O_2  and  C_3
REMARK    3  A    between atoms: C_5  and  O_6
REMARK    4  A    between atoms: O_6  and  C_7
REMARK    5  A    between atoms: C_9  and  C_10
REMARK    6  A    between atoms: N_12  and  C_13
REMARK    7  A    between atoms: C_13  and  C_14
REMARK    8  A    between atoms: C_17  and  O_18
REMARK    9  A    between atoms: O_18  and  C_19
REMARK   10  A    between atoms: C_19  and  C_20
REMARK   11  A    between atoms: C_20  and  C_21
REMARK   12  A    between atoms: C_26  and  O_27
REMARK   13  A    between atoms: O_27  and  C_28
REMARK                            x       y       z     vdW  Elec       q    Type
REMARK                         _______ _______ _______ _____ _____    ______ ____
ROOT
ATOM      1  C   UNL     1      47.556   8.246  13.660  0.00  0.00    +0.000 C 
ATOM      2  O   UNL     1      47.945   9.334  13.241  0.00  0.00    +0.000 OA
ATOM      3  N   UNL     1      48.214   7.589  14.668  0.00  0.00    +0.000 N 
ATOM      4  H   UNL     1      47.915   6.669  14.961  0.00  0.00    +0.000 HD
ENDROOT
BRANCH   1   9
ATOM      5  C   UNL     1      44.289   4.081  12.938  0.00  0.00    +0.000 A 
ATOM      6  N   UNL     1      45.449   3.940  13.605  0.00  0.00    +0.000 NA
ATOM      7  C   UNL     1      46.250   5.023  13.727  0.00  0.00    +0.000 A 
ATOM      8  C   UNL     1      45.859   6.254  13.190  0.00  0.00    +0.000 A 
ATOM      9  C   UNL     1      46.359   7.602  13.115  0.00  0.00    +0.000 A 
ATOM     10  C   UNL     1      45.423   8.314  12.371  0.00  0.00    +0.000 A 
ATOM     11  N   UNL     1      44.397   7.481  12.024  0.00  0.00    +0.000 N 
ATOM     12  C   UNL     1      44.644   6.236  12.520  0.00  0.00    +0.000 A 
ATOM     13  N   UNL     1      43.823   5.191  12.354  0.00  0.00    +0.000 NA
ATOM     14  H   UNL     1      43.576   7.725  11.489  0.00  0.00    +0.000 HD
BRANCH   5  16
ATOM     15  C   UNL     1      43.347   2.633  11.379  0.00  0.00    +0.000 C 
ATOM     16  O   UNL     1      43.489   2.973  12.750  0.00  0.00    +0.000 OA
ENDBRANCH   5  16
BRANCH   7  17
ATOM     17  O   UNL     1      47.472   4.901  14.359  0.00  0.00    +0.000 OA
ATOM     18  C   UNL     1      47.604   3.716  15.137  0.00  0.00    +0.000 C 
ENDBRANCH   7  17
ENDBRANCH   1   9
BRANCH   3  19
ATOM     19  C   UNL     1      49.383   8.170  15.276  0.00  0.00    +0.000 C 
BRANCH  19  20
ATOM     20  C   UNL     1      49.159   8.516  16.721  0.00  0.00    +0.000 A 
ATOM     21  C   UNL     1      50.106   8.132  17.675  0.00  0.00    +0.000 A 
ATOM     22  C   UNL     1      49.930   8.459  19.022  0.00  0.00    +0.000 A 
ATOM     23  C   UNL     1      48.796   9.157  19.440  0.00  0.00    +0.000 A 
ATOM     24  C   UNL     1      47.841   9.534  18.494  0.00  0.00    +0.000 A 
ATOM     25  C   UNL     1      48.021   9.215  17.141  0.00  0.00    +0.000 A 
BRANCH  23  26
ATOM     26  O   UNL     1      48.519   9.523  20.735  0.00  0.00    +0.000 OA
BRANCH  26  27
ATOM     27  C   UNL     1      48.609   8.462  21.683  0.00  0.00    +0.000 C 
BRANCH  27  28
ATOM     28  C   UNL     1      47.437   7.498  21.515  0.00  0.00    +0.000 C 
BRANCH  28  29
ATOM     29  C   UNL     1      47.686   6.304  20.611  0.00  0.00    +0.000 A 
ATOM     30  C   UNL     1      46.993   6.199  19.380  0.00  0.00    +0.000 A 
ATOM     31  C   UNL     1      47.269   5.194  18.453  0.00  0.00    +0.000 A 
ATOM     32  C   UNL     1      48.246   4.255  18.735  0.00  0.00    +0.000 A 
ATOM     33  C   UNL     1      48.919   4.315  19.952  0.00  0.00    +0.000 A 
ATOM     34  C   UNL     1      48.643   5.314  20.903  0.00  0.00    +0.000 A 
BRANCH  34  35
ATOM     35  O   UNL     1      49.461   5.219  21.998  0.00  0.00    +0.000 OA
ATOM     36  C   UNL     1      50.852   5.018  21.806  0.00  0.00    +0.000 C 
ENDBRANCH  34  35
ENDBRANCH  28  29
ENDBRANCH  27  28
ENDBRANCH  26  27
ENDBRANCH  23  26
ENDBRANCH  19  20
ENDBRANCH   3  19
TORSDOF 10
ENDMDL
MODEL 8
REMARK VINA RESULT:    -6.213      4.209      5.883
REMARK INTER + INTRA:         -11.318
REMARK INTER:                  -9.874
REMARK INTRA:                  -1.444
REMARK UNBOUND:                -1.472
REMARK  Name = 
REMARK  13 active torsions:
REMARK  status: ('A' for Active; 'I' for Inactive)
REMARK    1  A    between atoms: C_1  and  O_2
REMARK    2  A    between atoms: O_2  and  C_3
REMARK    3  A    between atoms: C_5  and  O_6
REMARK    4  A    between atoms: O_6  and  C_7
REMARK    5  A    between atoms: C_9  and  C_10
REMARK    6  A    between atoms: N_12  and  C_13
REMARK    7  A    between atoms: C_13  and  C_14
REMARK    8  A    between atoms: C_17  and  O_18
REMARK    9  A    between atoms: O_18  and  C_19
REMARK   10  A    between atoms: C_19  and  C_20
REMARK   11  A    between atoms: C_20  and  C_21
REMARK   12  A    between atoms: C_26  and  O_27
REMARK   13  A    between atoms: O_27  and  C_28
REMARK                            x       y       z     vdW  Elec       q    Type
REMARK                         _______ _______ _______ _____ _____    ______ ____
ROOT
ATOM      1  C   UNL     1      46.980  10.278  11.921  0.00  0.00    +0.000 C 
ATOM      2  O   UNL     1      46.108  11.142  11.993  0.00  0.00    +0.000 OA
ATOM      3  N   UNL     1      46.758   8.998  12.361  0.00  0.00    +0.000 N 
ATOM      4  H   UNL     1      47.504   8.315  12.347  0.00  0.00    +0.000 HD
ENDROOT
BRANCH   1   9
ATOM      5  C   UNL     1      52.213   9.402  11.297  0.00  0.00    +0.000 A 
ATOM      6  N   UNL     1      51.495   8.689  12.185  0.00  0.00    +0.000 NA
ATOM      7  C   UNL     1      50.181   8.979  12.322  0.00  0.00    +0.000 A 
ATOM      8  C   UNL     1      49.593   9.978  11.539  0.00  0.00    +0.000 A 
ATOM      9  C   UNL     1      48.294  10.566  11.343  0.00  0.00    +0.000 A 
ATOM     10  C   UNL     1      48.469  11.569  10.394  0.00  0.00    +0.000 A 
ATOM     11  N   UNL     1      49.778  11.594  10.003  0.00  0.00    +0.000 N 
ATOM     12  C   UNL     1      50.466  10.632  10.681  0.00  0.00    +0.000 A 
ATOM     13  N   UNL     1      51.775  10.399  10.519  0.00  0.00    +0.000 NA
ATOM     14  H   UNL     1      50.193  12.213   9.322  0.00  0.00    +0.000 HD
BRANCH   5  16
ATOM     15  C   UNL     1      53.869   8.196  10.194  0.00  0.00    +0.000 C 
ATOM     16  O   UNL     1      53.567   9.162  11.189  0.00  0.00    +0.000 OA
ENDBRANCH   5  16
BRANCH   7  17
ATOM     17  O   UNL     1      49.426   8.304  13.261  0.00  0.00    +0.000 OA
ATOM     18  C   UNL     1      49.244   6.922  12.970  0.00  0.00    +0.000 C 
ENDBRANCH   7  17
ENDBRANCH   1   9
BRANCH   3  19
ATOM     19  C   UNL     1      45.482   8.628  12.916  0.00  0.00    +0.000 C 
BRANCH  19  20
ATOM     20  C   UNL     1      44.994   7.309  12.385  0.00  0.00    +0.000 A 
ATOM     21  C   UNL     1      45.653   6.133  12.755  0.00  0.00    +0.000 A 
ATOM     22  C   UNL     1      45.207   4.893  12.290  0.00  0.00    +0.000 A 
ATOM     23  C   UNL     1      44.107   4.810  11.435  0.00  0.00    +0.000 A 
ATOM     24  C   UNL     1      43.452   5.982  11.053  0.00  0.00    +0.000 A 
ATOM     25  C   UNL     1      43.892   7.225  11.525  0.00  0.00    +0.000 A 
BRANCH  23  26
ATOM     26  O   UNL     1      43.590   3.648  10.915  0.00  0.00    +0.000 OA
BRANCH  26  27
ATOM     27  C   UNL     1      44.547   2.610  10.716  0.00  0.00    +0.000 C 
BRANCH  27  28
ATOM     28  C   UNL     1      44.394   2.007   9.321  0.00  0.00    +0.000 C 
BRANCH  28  29
ATOM     29  C   UNL     1      45.611   2.103   8.420  0.00  0.00    +0.000 A 
ATOM     30  C   UNL     1      46.295   0.924   8.034  0.00  0.00    +0.000 A 
ATOM     31  C   UNL     1      47.341   0.937   7.111  0.00  0.00    +0.000 A 
ATOM     32  C   UNL     1      47.741   2.138   6.551  0.00  0.00    +0.000 A 
ATOM     33  C   UNL     1      47.109   3.316   6.938  0.00  0.00    +0.000 A 
ATOM     34  C   UNL     1      46.062   3.321   7.877  0.00  0.00    +0.000 A 
BRANCH  34  35
ATOM     35  O   UNL     1      45.549   4.577   8.064  0.00  0.00    +0.000 OA
ATOM     36  C   UNL     1      46.256   5.499   8.878  0.00  0.00    +0.000 C 
ENDBRANCH  34  35
ENDBRANCH  28  29
ENDBRANCH  27  28
ENDBRANCH  26  27
ENDBRANCH  23  26
ENDBRANCH  19  20
ENDBRANCH   3  19
TORSDOF 10
ENDMDL
MODEL 9
REMARK VINA RESULT:    -6.202      3.823      9.218
REMARK INTER + INTRA:         -11.301
REMARK INTER:                  -8.900
REMARK INTRA:                  -2.400
REMARK UNBOUND:                -1.472
REMARK  Name = 
REMARK  13 active torsions:
REMARK  status: ('A' for Active; 'I' for Inactive)
REMARK    1  A    between atoms: C_1  and  O_2
REMARK    2  A    between atoms: O_2  and  C_3
REMARK    3  A    between atoms: C_5  and  O_6
REMARK    4  A    between atoms: O_6  and  C_7
REMARK    5  A    between atoms: C_9  and  C_10
REMARK    6  A    between atoms: N_12  and  C_13
REMARK    7  A    between atoms: C_13  and  C_14
REMARK    8  A    between atoms: C_17  and  O_18
REMARK    9  A    between atoms: O_18  and  C_19
REMARK   10  A    between atoms: C_19  and  C_20
REMARK   11  A    between atoms: C_20  and  C_21
REMARK   12  A    between atoms: C_26  and  O_27
REMARK   13  A    between atoms: O_27  and  C_28
REMARK                            x       y       z     vdW  Elec       q    Type
REMARK                         _______ _______ _______ _____ _____    ______ ____
ROOT
ATOM      1  C   UNL     1      45.670   4.259  12.975  0.00  0.00    +0.000 C 
ATOM      2  O   UNL     1      45.442   3.146  12.506  0.00  0.00    +0.000 OA
ATOM      3  N   UNL     1      46.550   4.433  14.012  0.00  0.00    +0.000 N 
ATOM      4  H   UNL     1      46.684   5.347  14.423  0.00  0.00    +0.000 HD
ENDROOT
BRANCH   1   9
ATOM      5  C   UNL     1      45.537   9.459  11.758  0.00  0.00    +0.000 A 
ATOM      6  N   UNL     1      46.588   8.930  12.411  0.00  0.00    +0.000 NA
ATOM      7  C   UNL     1      46.550   7.614  12.721  0.00  0.00    +0.000 A 
ATOM      8  C   UNL     1      45.452   6.832  12.345  0.00  0.00    +0.000 A 
ATOM      9  C   UNL     1      45.028   5.460  12.437  0.00  0.00    +0.000 A 
ATOM     10  C   UNL     1      43.764   5.413  11.856  0.00  0.00    +0.000 A 
ATOM     11  N   UNL     1      43.429   6.659  11.409  0.00  0.00    +0.000 N 
ATOM     12  C   UNL     1      44.443   7.525  11.691  0.00  0.00    +0.000 A 
ATOM     13  N   UNL     1      44.422   8.826  11.377  0.00  0.00    +0.000 NA
ATOM     14  H   UNL     1      42.574   6.923  10.940  0.00  0.00    +0.000 HD
BRANCH   5  16
ATOM     15  C   UNL     1      46.795  11.416  11.720  0.00  0.00    +0.000 C 
ATOM     16  O   UNL     1      45.531  10.812  11.489  0.00  0.00    +0.000 OA
ENDBRANCH   5  16
BRANCH   7  17
ATOM     17  O   UNL     1      47.587   7.050  13.438  0.00  0.00    +0.000 OA
ATOM     18  C   UNL     1      48.762   6.820  12.667  0.00  0.00    +0.000 C 
ENDBRANCH   7  17
ENDBRANCH   1   9
BRANCH   3  19
ATOM     19  C   UNL     1      47.244   3.304  14.577  0.00  0.00    +0.000 C 
BRANCH  19  20
ATOM     20  C   UNL     1      47.618   3.530  16.015  0.00  0.00    +0.000 A 
ATOM     21  C   UNL     1      48.610   2.738  16.600  0.00  0.00    +0.000 A 
ATOM     22  C   UNL     1      48.988   2.941  17.930  0.00  0.00    +0.000 A 
ATOM     23  C   UNL     1      48.367   3.924  18.702  0.00  0.00    +0.000 A 
ATOM     24  C   UNL     1      47.367   4.710  18.127  0.00  0.00    +0.000 A 
ATOM     25  C   UNL     1      46.994   4.515  16.791  0.00  0.00    +0.000 A 
BRANCH  23  26
ATOM     26  O   UNL     1      48.655   4.204  20.016  0.00  0.00    +0.000 OA
BRANCH  26  27
ATOM     27  C   UNL     1      48.847   5.589  20.299  0.00  0.00    +0.000 C 
BRANCH  27  28
ATOM     28  C   UNL     1      50.186   6.065  19.740  0.00  0.00    +0.000 C 
BRANCH  28  29
ATOM     29  C   UNL     1      50.121   6.836  18.434  0.00  0.00    +0.000 A 
ATOM     30  C   UNL     1      50.680   6.275  17.259  0.00  0.00    +0.000 A 
ATOM     31  C   UNL     1      50.543   6.876  16.008  0.00  0.00    +0.000 A 
ATOM     32  C   UNL     1      49.847   8.067  15.896  0.00  0.00    +0.000 A 
ATOM     33  C   UNL     1      49.317   8.658  17.040  0.00  0.00    +0.000 A 
ATOM     34  C   UNL     1      49.458   8.071  18.310  0.00  0.00    +0.000 A 
BRANCH  34  35
ATOM     35  O   UNL     1      48.811   8.789  19.280  0.00  0.00    +0.000 OA
ATOM     36  C   UNL     1      47.401   8.926  19.214  0.00  0.00    +0.000 C 
ENDBRANCH  34  35
ENDBRANCH  28  29
ENDBRANCH  27  28
ENDBRANCH  26  27
ENDBRANCH  23  26
ENDBRANCH  19  20
ENDBRANCH   3  19
TORSDOF 10
ENDMDL
