MODEL 1
REMARK VINA RESULT:    -8.129      0.000      0.000
REMARK INTER + INTRA:         -12.434
REMARK INTER:                 -11.455
REMARK INTRA:                  -0.978
REMARK UNBOUND:                -0.978
REMARK  Name = 
REMARK  9 active torsions:
REMARK  status: ('A' for Active; 'I' for Inactive)
REMARK    1  A    between atoms: C_1  and  C_2
REMARK    2  A    between atoms: C_8  and  C_9
REMARK    3  A    between atoms: N_11  and  C_12
REMARK    4  A    between atoms: C_12  and  C_13
REMARK    5  A    between atoms: C_16  and  N_17
REMARK    6  A    between atoms: N_17  and  C_18
REMARK    7  A    between atoms: C_18  and  C_19
REMARK    8  A    between atoms: C_19  and  C_20
REMARK    9  A    between atoms: C_29  and  C_30
REMARK                            x       y       z     vdW  Elec       q    Type
REMARK                         _______ _______ _______ _____ _____    ______ ____
ROOT
ATOM      1  C   UNL     1      47.833   6.614  13.774  0.00  0.00    +0.000 C 
ENDROOT
BRANCH   1   2
ATOM      2  C   UNL     1      46.914   5.863  12.869  0.00  0.00    +0.000 A 
ATOM      3  C   UNL     1      46.343   4.660  13.278  0.00  0.00    +0.000 A 
ATOM      4  C   UNL     1      45.401   4.013  12.478  0.00  0.00    +0.000 A 
ATOM      5  C   UNL     1      44.990   4.557  11.253  0.00  0.00    +0.000 A 
ATOM      6  C   UNL     1      45.631   5.715  10.805  0.00  0.00    +0.000 A 
ATOM      7  C   UNL     1      46.569   6.377  11.610  0.00  0.00    +0.000 A 
BRANCH   5   8
ATOM      8  N   UNL     1      43.983   3.997  10.450  0.00  0.00    +0.000 N 
ATOM      9  H   UNL     1      43.121   4.538  10.499  0.00  0.00    +0.000 HD
BRANCH   8  10
ATOM     10  C   UNL     1      44.386   3.565   9.112  0.00  0.00    +0.000 C 
BRANCH  10  11
ATOM     11  C   UNL     1      45.343   2.374   9.164  0.00  0.00    +0.000 C 
BRANCH  11  12
ATOM     12  C   UNL     1      46.161   2.276   7.900  0.00  0.00    +0.000 A 
ATOM     13  C   UNL     1      46.166   3.294   6.945  0.00  0.00    +0.000 A 
ATOM     14  C   UNL     1      46.928   3.150   5.785  0.00  0.00    +0.000 A 
ATOM     15  C   UNL     1      47.651   1.979   5.616  0.00  0.00    +0.000 A 
ATOM     16  N   UNL     1      47.653   0.967   6.504  0.00  0.00    +0.000 NA
ATOM     17  C   UNL     1      46.911   1.134   7.623  0.00  0.00    +0.000 A 
ENDBRANCH  11  12
ENDBRANCH  10  11
ENDBRANCH   8  10
ENDBRANCH   5   8
ENDBRANCH   1   2
BRANCH   1  20
ATOM     18  C   UNL     1      48.906   6.208  15.912  0.00  0.00    +0.000 C 
ATOM     19  O   UNL     1      49.984   6.588  15.456  0.00  0.00    +0.000 OA
ATOM     20  N   UNL     1      47.752   6.208  15.151  0.00  0.00    +0.000 N 
ATOM     21  H   UNL     1      46.862   6.046  15.606  0.00  0.00    +0.000 HD
BRANCH  18  29
ATOM     22  C   UNL     1      47.175   9.595  20.441  0.00  0.00    +0.000 C 
ATOM     23  C   UNL     1      47.609   8.281  19.869  0.00  0.00    +0.000 A 
ATOM     24  S   UNL     1      47.705   6.914  20.871  0.00  0.00    +0.000 S 
ATOM     25  C   UNL     1      48.222   5.931  19.586  0.00  0.00    +0.000 A 
ATOM     26  N   UNL     1      48.477   4.635  19.831  0.00  0.00    +0.000 NA
ATOM     27  C   UNL     1      48.899   3.970  18.761  0.00  0.00    +0.000 A 
ATOM     28  N   UNL     1      49.083   4.463  17.535  0.00  0.00    +0.000 NA
ATOM     29  C   UNL     1      48.766   5.773  17.319  0.00  0.00    +0.000 A 
ATOM     30  C   UNL     1      48.328   6.603  18.372  0.00  0.00    +0.000 A 
ATOM     31  C   UNL     1      47.966   8.012  18.553  0.00  0.00    +0.000 A 
ATOM     32  C   UNL     1      47.950   9.125  17.546  0.00  0.00    +0.000 C 
ENDBRANCH  18  29
ENDBRANCH   1  20
TORSDOF 7
ENDMDL
MODEL 2
REMARK VINA RESULT:    -8.095      1.822      2.871
REMARK INTER + INTRA:         -12.386
REMARK INTER:                 -11.309
REMARK INTRA:                  -1.077
REMARK UNBOUND:                -0.978
REMARK  Name = 
REMARK  9 active torsions:
REMARK  status: ('A' for Active; 'I' for Inactive)
REMARK    1  A    between atoms: C_1  and  C_2
REMARK    2  A    between atoms: C_8  and  C_9
REMARK    3  A    between atoms: N_11  and  C_12
REMARK    4  A    between atoms: C_12  and  C_13
REMARK    5  A    between atoms: C_16  and  N_17
REMARK    6  A    between atoms: N_17  and  C_18
REMARK    7  A    between atoms: C_18  and  C_19
REMARK    8  A    between atoms: C_19  and  C_20
REMARK    9  A    between atoms: C_29  and  C_30
REMARK                            x       y       z     vdW  Elec       q    Type
REMARK                         _______ _______ _______ _____ _____    ______ ____
ROOT
ATOM      1  C   UNL     1      47.450   8.411  13.126  0.00  0.00    +0.000 C 
ENDROOT
BRANCH   1   2
ATOM      2  C   UNL     1      46.398   7.532  12.535  0.00  0.00    +0.000 A 
ATOM      3  C   UNL     1      45.193   8.072  12.089  0.00  0.00    +0.000 A 
ATOM      4  C   UNL     1      44.254   7.270  11.439  0.00  0.00    +0.000 A 
ATOM      5  C   UNL     1      44.498   5.911  11.201  0.00  0.00    +0.000 A 
ATOM      6  C   UNL     1      45.666   5.355  11.729  0.00  0.00    +0.000 A 
ATOM      7  C   UNL     1      46.620   6.157  12.373  0.00  0.00    +0.000 A 
BRANCH   5   8
ATOM      8  N   UNL     1      43.631   5.079  10.474  0.00  0.00    +0.000 N 
ATOM      9  H   UNL     1      42.995   5.620   9.890  0.00  0.00    +0.000 HD
BRANCH   8  10
ATOM     10  C   UNL     1      44.237   3.909   9.837  0.00  0.00    +0.000 C 
BRANCH  10  11
ATOM     11  C   UNL     1      44.774   4.235   8.444  0.00  0.00    +0.000 C 
BRANCH  11  12
ATOM     12  C   UNL     1      45.706   3.156   7.953  0.00  0.00    +0.000 A 
ATOM     13  C   UNL     1      46.590   3.370   6.893  0.00  0.00    +0.000 A 
ATOM     14  C   UNL     1      47.421   2.335   6.466  0.00  0.00    +0.000 A 
ATOM     15  C   UNL     1      47.329   1.110   7.110  0.00  0.00    +0.000 A 
ATOM     16  N   UNL     1      46.475   0.860   8.120  0.00  0.00    +0.000 NA
ATOM     17  C   UNL     1      45.684   1.882   8.519  0.00  0.00    +0.000 A 
ENDBRANCH  11  12
ENDBRANCH  10  11
ENDBRANCH   8  10
ENDBRANCH   5   8
ENDBRANCH   1   2
BRANCH   1  20
ATOM     18  C   UNL     1      48.885   7.412  14.808  0.00  0.00    +0.000 C 
ATOM     19  O   UNL     1      49.680   7.060  13.937  0.00  0.00    +0.000 OA
ATOM     20  N   UNL     1      47.740   8.124  14.505  0.00  0.00    +0.000 N 
ATOM     21  H   UNL     1      47.201   8.534  15.258  0.00  0.00    +0.000 HD
BRANCH  18  29
ATOM     22  C   UNL     1      47.191   2.575  17.761  0.00  0.00    +0.000 C 
ATOM     23  C   UNL     1      47.879   3.904  17.691  0.00  0.00    +0.000 A 
ATOM     24  S   UNL     1      48.661   4.522  19.066  0.00  0.00    +0.000 S 
ATOM     25  C   UNL     1      49.139   5.926  18.239  0.00  0.00    +0.000 A 
ATOM     26  N   UNL     1      49.846   6.855  18.905  0.00  0.00    +0.000 NA
ATOM     27  C   UNL     1      50.142   7.919  18.167  0.00  0.00    +0.000 A 
ATOM     28  N   UNL     1      49.806   8.128  16.894  0.00  0.00    +0.000 NA
ATOM     29  C   UNL     1      49.129   7.138  16.242  0.00  0.00    +0.000 A 
ATOM     30  C   UNL     1      48.730   5.963  16.909  0.00  0.00    +0.000 A 
ATOM     31  C   UNL     1      47.969   4.750  16.592  0.00  0.00    +0.000 A 
ATOM     32  C   UNL     1      47.311   4.351  15.303  0.00  0.00    +0.000 C 
ENDBRANCH  18  29
ENDBRANCH   1  20
TORSDOF 7
ENDMDL
MODEL 3
REMARK VINA RESULT:    -7.918      2.266      2.812
REMARK INTER + INTRA:         -12.136
REMARK INTER:                 -11.335
REMARK INTRA:                  -0.801
REMARK UNBOUND:                -0.978
REMARK  Name = 
REMARK  9 active torsions:
REMARK  status: ('A' for Active; 'I' for Inactive)
REMARK    1  A    between atoms: C_1  and  C_2
REMARK    2  A    between atoms: C_8  and  C_9
REMARK    3  A    between atoms: N_11  and  C_12
REMARK    4  A    between atoms: C_12  and  C_13
REMARK    5  A    between atoms: C_16  and  N_17
REMARK    6  A    between atoms: N_17  and  C_18
REMARK    7  A    between atoms: C_18  and  C_19
REMARK    8  A    between atoms: C_19  and  C_20
REMARK    9  A    between atoms: C_29  and  C_30
REMARK                            x       y       z     vdW  Elec       q    Type
REMARK                         _______ _______ _______ _____ _____    ______ ____
ROOT
ATOM      1  C   UNL     1      45.924   4.178  14.789  0.00  0.00    +0.000 C 
ENDROOT
BRANCH   1   2
ATOM      2  C   UNL     1      45.761   4.358  13.316  0.00  0.00    +0.000 A 
ATOM      3  C   UNL     1      45.262   3.325  12.526  0.00  0.00    +0.000 A 
ATOM      4  C   UNL     1      45.007   3.528  11.170  0.00  0.00    +0.000 A 
ATOM      5  C   UNL     1      45.227   4.773  10.566  0.00  0.00    +0.000 A 
ATOM      6  C   UNL     1      45.811   5.779  11.341  0.00  0.00    +0.000 A 
ATOM      7  C   UNL     1      46.058   5.587  12.707  0.00  0.00    +0.000 A 
BRANCH   5   8
ATOM      8  N   UNL     1      44.904   5.060   9.230  0.00  0.00    +0.000 N 
ATOM      9  H   UNL     1      45.251   5.976   8.950  0.00  0.00    +0.000 HD
BRANCH   8  10
ATOM     10  C   UNL     1      45.115   3.979   8.266  0.00  0.00    +0.000 C 
BRANCH  10  11
ATOM     11  C   UNL     1      46.488   4.072   7.601  0.00  0.00    +0.000 C 
BRANCH  11  12
ATOM     12  C   UNL     1      46.786   2.834   6.792  0.00  0.00    +0.000 A 
ATOM     13  C   UNL     1      46.891   2.870   5.399  0.00  0.00    +0.000 A 
ATOM     14  C   UNL     1      47.153   1.695   4.695  0.00  0.00    +0.000 A 
ATOM     15  C   UNL     1      47.289   0.516   5.412  0.00  0.00    +0.000 A 
ATOM     16  N   UNL     1      47.173   0.438   6.752  0.00  0.00    +0.000 NA
ATOM     17  C   UNL     1      46.924   1.593   7.412  0.00  0.00    +0.000 A 
ENDBRANCH  11  12
ENDBRANCH  10  11
ENDBRANCH   8  10
ENDBRANCH   5   8
ENDBRANCH   1   2
BRANCH   1  20
ATOM     18  C   UNL     1      47.521   3.502  16.485  0.00  0.00    +0.000 C 
ATOM     19  O   UNL     1      46.604   3.250  17.266  0.00  0.00    +0.000 OA
ATOM     20  N   UNL     1      47.283   3.950  15.200  0.00  0.00    +0.000 N 
ATOM     21  H   UNL     1      48.050   3.988  14.540  0.00  0.00    +0.000 HD
BRANCH  18  29
ATOM     22  C   UNL     1      51.118   7.537  18.886  0.00  0.00    +0.000 C 
ATOM     23  C   UNL     1      50.838   6.156  18.380  0.00  0.00    +0.000 A 
ATOM     24  S   UNL     1      52.046   4.966  18.464  0.00  0.00    +0.000 S 
ATOM     25  C   UNL     1      51.034   3.800  17.757  0.00  0.00    +0.000 A 
ATOM     26  N   UNL     1      51.519   2.562  17.561  0.00  0.00    +0.000 NA
ATOM     27  C   UNL     1      50.650   1.743  16.979  0.00  0.00    +0.000 A 
ATOM     28  N   UNL     1      49.408   2.038  16.593  0.00  0.00    +0.000 NA
ATOM     29  C   UNL     1      48.939   3.293  16.856  0.00  0.00    +0.000 A 
ATOM     30  C   UNL     1      49.761   4.272  17.448  0.00  0.00    +0.000 A 
ATOM     31  C   UNL     1      49.656   5.688  17.818  0.00  0.00    +0.000 A 
ATOM     32  C   UNL     1      48.496   6.627  17.658  0.00  0.00    +0.000 C 
ENDBRANCH  18  29
ENDBRANCH   1  20
TORSDOF 7
ENDMDL
MODEL 4
REMARK VINA RESULT:    -7.911      1.732      2.291
REMARK INTER + INTRA:         -12.127
REMARK INTER:                 -11.273
REMARK INTRA:                  -0.854
REMARK UNBOUND:                -0.978
REMARK  Name = 
REMARK  9 active torsions:
REMARK  status: ('A' for Active; 'I' for Inactive)
REMARK    1  A    between atoms: C_1  and  C_2
REMARK    2  A    between atoms: C_8  and  C_9
REMARK    3  A    between atoms: N_11  and  C_12
REMARK    4  A    between atoms: C_12  and  C_13
REMARK    5  A    between atoms: C_16  and  N_17
REMARK    6  A    between atoms: N_17  and  C_18
REMARK    7  A    between atoms: C_18  and  C_19
REMARK    8  A    between atoms: C_19  and  C_20
REMARK    9  A    between atoms: C_29  and  C_30
REMARK                            x       y       z     vdW  Elec       q    Type
REMARK                         _______ _______ _______ _____ _____    ______ ____
ROOT
ATOM      1  C   UNL     1      46.776   4.255  14.558  0.00  0.00    +0.000 C 
ENDROOT
BRANCH   1   2
ATOM      2  C   UNL     1      46.173   4.347  13.196  0.00  0.00    +0.000 A 
ATOM      3  C   UNL     1      45.522   3.251  12.634  0.00  0.00    +0.000 A 
ATOM      4  C   UNL     1      44.864   3.368  11.409  0.00  0.00    +0.000 A 
ATOM      5  C   UNL     1      44.822   4.587  10.718  0.00  0.00    +0.000 A 
ATOM      6  C   UNL     1      45.551   5.658  11.241  0.00  0.00    +0.000 A 
ATOM      7  C   UNL     1      46.205   5.552  12.477  0.00  0.00    +0.000 A 
BRANCH   5   8
ATOM      8  N   UNL     1      44.101   4.785   9.530  0.00  0.00    +0.000 N 
ATOM      9  H   UNL     1      43.976   5.776   9.330  0.00  0.00    +0.000 HD
BRANCH   8  10
ATOM     10  C   UNL     1      44.487   3.951   8.391  0.00  0.00    +0.000 C 
BRANCH  10  11
ATOM     11  C   UNL     1      45.948   4.168   7.998  0.00  0.00    +0.000 C 
BRANCH  11  12
ATOM     12  C   UNL     1      46.470   3.010   7.185  0.00  0.00    +0.000 A 
ATOM     13  C   UNL     1      46.780   3.140   5.829  0.00  0.00    +0.000 A 
ATOM     14  C   UNL     1      47.246   2.035   5.117  0.00  0.00    +0.000 A 
ATOM     15  C   UNL     1      47.374   0.828   5.787  0.00  0.00    +0.000 A 
ATOM     16  N   UNL     1      47.065   0.658   7.087  0.00  0.00    +0.000 NA
ATOM     17  C   UNL     1      46.621   1.747   7.756  0.00  0.00    +0.000 A 
ENDBRANCH  11  12
ENDBRANCH  10  11
ENDBRANCH   8  10
ENDBRANCH   5   8
ENDBRANCH   1   2
BRANCH   1  20
ATOM     18  C   UNL     1      48.354   5.417  15.989  0.00  0.00    +0.000 C 
ATOM     19  O   UNL     1      48.749   4.344  16.444  0.00  0.00    +0.000 OA
ATOM     20  N   UNL     1      47.379   5.479  15.011  0.00  0.00    +0.000 N 
ATOM     21  H   UNL     1      47.200   6.362  14.549  0.00  0.00    +0.000 HD
BRANCH  18  29
ATOM     22  C   UNL     1      47.519   8.013  21.237  0.00  0.00    +0.000 C 
ATOM     23  C   UNL     1      48.138   7.964  19.875  0.00  0.00    +0.000 A 
ATOM     24  S   UNL     1      49.204   9.193  19.388  0.00  0.00    +0.000 S 
ATOM     25  C   UNL     1      49.440   8.472  17.869  0.00  0.00    +0.000 A 
ATOM     26  N   UNL     1      50.260   9.075  16.992  0.00  0.00    +0.000 NA
ATOM     27  C   UNL     1      50.348   8.437  15.830  0.00  0.00    +0.000 A 
ATOM     28  N   UNL     1      49.718   7.314  15.485  0.00  0.00    +0.000 NA
ATOM     29  C   UNL     1      48.933   6.708  16.423  0.00  0.00    +0.000 A 
ATOM     30  C   UNL     1      48.730   7.287  17.692  0.00  0.00    +0.000 A 
ATOM     31  C   UNL     1      47.947   6.995  18.897  0.00  0.00    +0.000 A 
ATOM     32  C   UNL     1      47.016   5.850  19.169  0.00  0.00    +0.000 C 
ENDBRANCH  18  29
ENDBRANCH   1  20
TORSDOF 7
ENDMDL
MODEL 5
REMARK VINA RESULT:    -7.870      1.494      2.230
REMARK INTER + INTRA:         -12.069
REMARK INTER:                 -10.971
REMARK INTRA:                  -1.098
REMARK UNBOUND:                -0.978
REMARK  Name = 
REMARK  9 active torsions:
REMARK  status: ('A' for Active; 'I' for Inactive)
REMARK    1  A    between atoms: C_1  and  C_2
REMARK    2  A    between atoms: C_8  and  C_9
REMARK    3  A    between atoms: N_11  and  C_12
REMARK    4  A    between atoms: C_12  and  C_13
REMARK    5  A    between atoms: C_16  and  N_17
REMARK    6  A    between atoms: N_17  and  C_18
REMARK    7  A    between atoms: C_18  and  C_19
REMARK    8  A    between atoms: C_19  and  C_20
REMARK    9  A    between atoms: C_29  and  C_30
REMARK                            x       y       z     vdW  Elec       q    Type
REMARK                         _______ _______ _______ _____ _____    ______ ____
ROOT
ATOM      1  C   UNL     1      47.345   3.877  14.793  0.00  0.00    +0.000 C 
ENDROOT
BRANCH   1   2
ATOM      2  C   UNL     1      46.403   4.198  13.681  0.00  0.00    +0.000 A 
ATOM      3  C   UNL     1      46.120   5.522  13.353  0.00  0.00    +0.000 A 
ATOM      4  C   UNL     1      45.325   5.825  12.247  0.00  0.00    +0.000 A 
ATOM      5  C   UNL     1      44.804   4.815  11.426  0.00  0.00    +0.000 A 
ATOM      6  C   UNL     1      45.016   3.489  11.811  0.00  0.00    +0.000 A 
ATOM      7  C   UNL     1      45.823   3.177  12.914  0.00  0.00    +0.000 A 
BRANCH   5   8
ATOM      8  N   UNL     1      44.075   5.063  10.252  0.00  0.00    +0.000 N 
ATOM      9  H   UNL     1      44.135   6.042   9.974  0.00  0.00    +0.000 HD
BRANCH   8  10
ATOM     10  C   UNL     1      44.231   4.087   9.174  0.00  0.00    +0.000 C 
BRANCH  10  11
ATOM     11  C   UNL     1      45.466   4.377   8.320  0.00  0.00    +0.000 C 
BRANCH  11  12
ATOM     12  C   UNL     1      46.134   3.099   7.878  0.00  0.00    +0.000 A 
ATOM     13  C   UNL     1      47.076   3.077   6.847  0.00  0.00    +0.000 A 
ATOM     14  C   UNL     1      47.655   1.867   6.465  0.00  0.00    +0.000 A 
ATOM     15  C   UNL     1      47.259   0.713   7.123  0.00  0.00    +0.000 A 
ATOM     16  N   UNL     1      46.339   0.691   8.106  0.00  0.00    +0.000 NA
ATOM     17  C   UNL     1      45.797   1.878   8.462  0.00  0.00    +0.000 A 
ENDBRANCH  11  12
ENDBRANCH  10  11
ENDBRANCH   8  10
ENDBRANCH   5   8
ENDBRANCH   1   2
BRANCH   1  20
ATOM     18  C   UNL     1      48.322   4.820  16.803  0.00  0.00    +0.000 C 
ATOM     19  O   UNL     1      49.317   4.108  16.668  0.00  0.00    +0.000 OA
ATOM     20  N   UNL     1      47.281   4.798  15.895  0.00  0.00    +0.000 N 
ATOM     21  H   UNL     1      46.563   5.510  15.951  0.00  0.00    +0.000 HD
BRANCH  18  29
ATOM     22  C   UNL     1      48.971  10.687  16.430  0.00  0.00    +0.000 C 
ATOM     23  C   UNL     1      48.677   9.440  17.206  0.00  0.00    +0.000 A 
ATOM     24  S   UNL     1      48.282   9.545  18.854  0.00  0.00    +0.000 S 
ATOM     25  C   UNL     1      48.111   7.861  18.984  0.00  0.00    +0.000 A 
ATOM     26  N   UNL     1      47.782   7.338  20.178  0.00  0.00    +0.000 NA
ATOM     27  C   UNL     1      47.701   6.012  20.167  0.00  0.00    +0.000 A 
ATOM     28  N   UNL     1      47.915   5.206  19.126  0.00  0.00    +0.000 NA
ATOM     29  C   UNL     1      48.199   5.781  17.921  0.00  0.00    +0.000 A 
ATOM     30  C   UNL     1      48.338   7.178  17.792  0.00  0.00    +0.000 A 
ATOM     31  C   UNL     1      48.685   8.133  16.734  0.00  0.00    +0.000 A 
ATOM     32  C   UNL     1      49.034   7.873  15.298  0.00  0.00    +0.000 C 
ENDBRANCH  18  29
ENDBRANCH   1  20
TORSDOF 7
ENDMDL
MODEL 6
REMARK VINA RESULT:    -7.518      1.357      2.458
REMARK INTER + INTRA:         -11.572
REMARK INTER:                 -10.646
REMARK INTRA:                  -0.927
REMARK UNBOUND:                -0.978
REMARK  Name = 
REMARK  9 active torsions:
REMARK  status: ('A' for Active; 'I' for Inactive)
REMARK    1  A    between atoms: C_1  and  C_2
REMARK    2  A    between atoms: C_8  and  C_9
REMARK    3  A    between atoms: N_11  and  C_12
REMARK    4  A    between atoms: C_12  and  C_13
REMARK    5  A    between atoms: C_16  and  N_17
REMARK    6  A    between atoms: N_17  and  C_18
REMARK    7  A    between atoms: C_18  and  C_19
REMARK    8  A    between atoms: C_19  and  C_20
REMARK    9  A    between atoms: C_29  and  C_30
REMARK                            x       y       z     vdW  Elec       q    Type
REMARK                         _______ _______ _______ _____ _____    ______ ____
ROOT
ATOM      1  C   UNL     1      48.211   6.455  13.515  0.00  0.00    +0.000 C 
ENDROOT
BRANCH   1   2
ATOM      2  C   UNL     1      46.984   6.007  12.793  0.00  0.00    +0.000 A 
ATOM      3  C   UNL     1      46.658   6.543  11.549  0.00  0.00    +0.000 A 
ATOM      4  C   UNL     1      45.573   6.048  10.825  0.00  0.00    +0.000 A 
ATOM      5  C   UNL     1      44.792   4.992  11.314  0.00  0.00    +0.000 A 
ATOM      6  C   UNL     1      45.067   4.519  12.600  0.00  0.00    +0.000 A 
ATOM      7  C   UNL     1      46.163   5.003  13.328  0.00  0.00    +0.000 A 
BRANCH   5   8
ATOM      8  N   UNL     1      43.747   4.395  10.591  0.00  0.00    +0.000 N 
ATOM      9  H   UNL     1      42.895   4.951  10.637  0.00  0.00    +0.000 HD
BRANCH   8  10
ATOM     10  C   UNL     1      44.091   3.868   9.270  0.00  0.00    +0.000 C 
BRANCH  10  11
ATOM     11  C   UNL     1      44.898   2.574   9.368  0.00  0.00    +0.000 C 
BRANCH  11  12
ATOM     12  C   UNL     1      45.815   2.413   8.182  0.00  0.00    +0.000 A 
ATOM     13  C   UNL     1      45.970   3.420   7.226  0.00  0.00    +0.000 A 
ATOM     14  C   UNL     1      46.819   3.217   6.138  0.00  0.00    +0.000 A 
ATOM     15  C   UNL     1      47.477   2.001   6.037  0.00  0.00    +0.000 A 
ATOM     16  N   UNL     1      47.337   0.999   6.926  0.00  0.00    +0.000 NA
ATOM     17  C   UNL     1      46.513   1.223   7.975  0.00  0.00    +0.000 A 
ENDBRANCH  11  12
ENDBRANCH  10  11
ENDBRANCH   8  10
ENDBRANCH   5   8
ENDBRANCH   1   2
BRANCH   1  20
ATOM     18  C   UNL     1      48.910   7.092  15.749  0.00  0.00    +0.000 C 
ATOM     19  O   UNL     1      50.006   6.561  15.570  0.00  0.00    +0.000 OA
ATOM     20  N   UNL     1      47.942   7.117  14.762  0.00  0.00    +0.000 N 
ATOM     21  H   UNL     1      47.125   7.701  14.889  0.00  0.00    +0.000 HD
BRANCH  18  29
ATOM     22  C   UNL     1      48.612   4.586  21.098  0.00  0.00    +0.000 C 
ATOM     23  C   UNL     1      48.526   5.777  20.194  0.00  0.00    +0.000 A 
ATOM     24  S   UNL     1      48.198   7.310  20.846  0.00  0.00    +0.000 S 
ATOM     25  C   UNL     1      48.260   8.043  19.315  0.00  0.00    +0.000 A 
ATOM     26  N   UNL     1      48.048   9.367  19.228  0.00  0.00    +0.000 NA
ATOM     27  C   UNL     1      48.095   9.826  17.982  0.00  0.00    +0.000 A 
ATOM     28  N   UNL     1      48.317   9.115  16.876  0.00  0.00    +0.000 NA
ATOM     29  C   UNL     1      48.576   7.782  17.015  0.00  0.00    +0.000 A 
ATOM     30  C   UNL     1      48.536   7.157  18.278  0.00  0.00    +0.000 A 
ATOM     31  C   UNL     1      48.686   5.799  18.814  0.00  0.00    +0.000 A 
ATOM     32  C   UNL     1      48.964   4.517  18.085  0.00  0.00    +0.000 C 
ENDBRANCH  18  29
ENDBRANCH   1  20
TORSDOF 7
ENDMDL
MODEL 7
REMARK VINA RESULT:    -7.483      3.072      4.480
REMARK INTER + INTRA:         -11.524
REMARK INTER:                 -10.549
REMARK INTRA:                  -0.975
REMARK UNBOUND:                -0.978
REMARK  Name = 
REMARK  9 active torsions:
REMARK  status: ('A' for Active; 'I' for Inactive)
REMARK    1  A    between atoms: C_1  and  C_2
REMARK    2  A    between atoms: C_8  and  C_9
REMARK    3  A    between atoms: N_11  and  C_12
REMARK    4  A    between atoms: C_12  and  C_13
REMARK    5  A    between atoms: C_16  and  N_17
REMARK    6  A    between atoms: N_17  and  C_18
REMARK    7  A    between atoms: C_18  and  C_19
REMARK    8  A    between atoms: C_19  and  C_20
REMARK    9  A    between atoms: C_29  and  C_30
REMARK                            x       y       z     vdW  Elec       q    Type
REMARK                         _______ _______ _______ _____ _____    ______ ____
ROOT
ATOM      1  C   UNL     1      47.372   5.606  14.198  0.00  0.00    +0.000 C 
ENDROOT
BRANCH   1   2
ATOM      2  C   UNL     1      46.554   5.272  12.995  0.00  0.00    +0.000 A 
ATOM      3  C   UNL     1      45.757   4.129  12.975  0.00  0.00    +0.000 A 
ATOM      4  C   UNL     1      44.909   3.874  11.897  0.00  0.00    +0.000 A 
ATOM      5  C   UNL     1      44.821   4.760  10.814  0.00  0.00    +0.000 A 
ATOM      6  C   UNL     1      45.687   5.857  10.797  0.00  0.00    +0.000 A 
ATOM      7  C   UNL     1      46.533   6.127  11.883  0.00  0.00    +0.000 A 
BRANCH   5   8
ATOM      8  N   UNL     1      43.923   4.601   9.747  0.00  0.00    +0.000 N 
ATOM      9  H   UNL     1      43.330   5.421   9.631  0.00  0.00    +0.000 HD
BRANCH   8  10
ATOM     10  C   UNL     1      44.474   4.036   8.514  0.00  0.00    +0.000 C 
BRANCH  10  11
ATOM     11  C   UNL     1      45.329   2.800   8.790  0.00  0.00    +0.000 C 
BRANCH  11  12
ATOM     12  C   UNL     1      46.201   2.465   7.605  0.00  0.00    +0.000 A 
ATOM     13  C   UNL     1      46.313   3.321   6.506  0.00  0.00    +0.000 A 
ATOM     14  C   UNL     1      47.120   2.959   5.428  0.00  0.00    +0.000 A 
ATOM     15  C   UNL     1      47.780   1.741   5.481  0.00  0.00    +0.000 A 
ATOM     16  N   UNL     1      47.680   0.881   6.512  0.00  0.00    +0.000 NA
ATOM     17  C   UNL     1      46.895   1.258   7.548  0.00  0.00    +0.000 A 
ENDBRANCH  11  12
ENDBRANCH  10  11
ENDBRANCH   8  10
ENDBRANCH   5   8
ENDBRANCH   1   2
BRANCH   1  20
ATOM     18  C   UNL     1      48.818   7.454  14.812  0.00  0.00    +0.000 C 
ATOM     19  O   UNL     1      49.757   6.678  14.984  0.00  0.00    +0.000 OA
ATOM     20  N   UNL     1      47.578   7.016  14.388  0.00  0.00    +0.000 N 
ATOM     21  H   UNL     1      46.885   7.697  14.102  0.00  0.00    +0.000 HD
BRANCH  18  29
ATOM     22  C   UNL     1      49.303  11.479  10.505  0.00  0.00    +0.000 C 
ATOM     23  C   UNL     1      49.223  11.100  11.951  0.00  0.00    +0.000 A 
ATOM     24  S   UNL     1      49.253  12.309  13.143  0.00  0.00    +0.000 S 
ATOM     25  C   UNL     1      49.134  11.165  14.393  0.00  0.00    +0.000 A 
ATOM     26  N   UNL     1      49.118  11.602  15.664  0.00  0.00    +0.000 NA
ATOM     27  C   UNL     1      49.049  10.621  16.557  0.00  0.00    +0.000 A 
ATOM     28  N   UNL     1      49.002   9.312  16.304  0.00  0.00    +0.000 NA
ATOM     29  C   UNL     1      48.971   8.915  14.999  0.00  0.00    +0.000 A 
ATOM     30  C   UNL     1      49.061   9.849  13.947  0.00  0.00    +0.000 A 
ATOM     31  C   UNL     1      49.124   9.819  12.482  0.00  0.00    +0.000 A 
ATOM     32  C   UNL     1      49.105   8.639  11.555  0.00  0.00    +0.000 C 
ENDBRANCH  18  29
ENDBRANCH   1  20
TORSDOF 7
ENDMDL
MODEL 8
REMARK VINA RESULT:    -6.698      3.032      4.272
REMARK INTER + INTRA:         -10.417
REMARK INTER:                  -9.582
REMARK INTRA:                  -0.834
REMARK UNBOUND:                -0.978
REMARK  Name = 
REMARK  9 active torsions:
REMARK  status: ('A' for Active; 'I' for Inactive)
REMARK    1  A    between atoms: C_1  and  C_2
REMARK    2  A    between atoms: C_8  and  C_9
REMARK    3  A    between atoms: N_11  and  C_12
REMARK    4  A    between atoms: C_12  and  C_13
REMARK    5  A    between atoms: C_16  and  N_17
REMARK    6  A    between atoms: N_17  and  C_18
REMARK    7  A    between atoms: C_18  and  C_19
REMARK    8  A    between atoms: C_19  and  C_20
REMARK    9  A    between atoms: C_29  and  C_30
REMARK                            x       y       z     vdW  Elec       q    Type
REMARK                         _______ _______ _______ _____ _____    ______ ____
ROOT
ATOM      1  C   UNL     1      47.216   6.132  14.395  0.00  0.00    +0.000 C 
ENDROOT
BRANCH   1   2
ATOM      2  C   UNL     1      46.464   5.710  13.176  0.00  0.00    +0.000 A 
ATOM      3  C   UNL     1      45.752   4.513  13.162  0.00  0.00    +0.000 A 
ATOM      4  C   UNL     1      44.961   4.170  12.065  0.00  0.00    +0.000 A 
ATOM      5  C   UNL     1      44.846   5.020  10.956  0.00  0.00    +0.000 A 
ATOM      6  C   UNL     1      45.631   6.176  10.936  0.00  0.00    +0.000 A 
ATOM      7  C   UNL     1      46.419   6.533  12.040  0.00  0.00    +0.000 A 
BRANCH   5   8
ATOM      8  N   UNL     1      43.998   4.770   9.866  0.00  0.00    +0.000 N 
ATOM      9  H   UNL     1      43.671   5.635   9.439  0.00  0.00    +0.000 HD
BRANCH   8  10
ATOM     10  C   UNL     1      44.429   3.726   8.935  0.00  0.00    +0.000 C 
BRANCH  10  11
ATOM     11  C   UNL     1      45.571   4.204   8.038  0.00  0.00    +0.000 C 
BRANCH  11  12
ATOM     12  C   UNL     1      46.235   3.044   7.338  0.00  0.00    +0.000 A 
ATOM     13  C   UNL     1      46.701   3.144   6.025  0.00  0.00    +0.000 A 
ATOM     14  C   UNL     1      47.294   2.038   5.416  0.00  0.00    +0.000 A 
ATOM     15  C   UNL     1      47.388   0.860   6.142  0.00  0.00    +0.000 A 
ATOM     16  N   UNL     1      46.931   0.719   7.401  0.00  0.00    +0.000 NA
ATOM     17  C   UNL     1      46.365   1.808   7.971  0.00  0.00    +0.000 A 
ENDBRANCH  11  12
ENDBRANCH  10  11
ENDBRANCH   8  10
ENDBRANCH   5   8
ENDBRANCH   1   2
BRANCH   1  20
ATOM     18  C   UNL     1      48.932   7.842  14.532  0.00  0.00    +0.000 C 
ATOM     19  O   UNL     1      48.166   8.577  15.153  0.00  0.00    +0.000 OA
ATOM     20  N   UNL     1      48.557   6.575  14.126  0.00  0.00    +0.000 N 
ATOM     21  H   UNL     1      49.262   5.944  13.765  0.00  0.00    +0.000 HD
BRANCH  18  29
ATOM     22  C   UNL     1      53.808   5.924  17.275  0.00  0.00    +0.000 C 
ATOM     23  C   UNL     1      53.122   6.744  16.226  0.00  0.00    +0.000 A 
ATOM     24  S   UNL     1      54.044   7.669  15.142  0.00  0.00    +0.000 S 
ATOM     25  C   UNL     1      52.654   8.246  14.355  0.00  0.00    +0.000 A 
ATOM     26  N   UNL     1      52.804   9.098  13.327  0.00  0.00    +0.000 NA
ATOM     27  C   UNL     1      51.650   9.502  12.806  0.00  0.00    +0.000 A 
ATOM     28  N   UNL     1      50.427   9.152  13.205  0.00  0.00    +0.000 NA
ATOM     29  C   UNL     1      50.321   8.247  14.221  0.00  0.00    +0.000 A 
ATOM     30  C   UNL     1      51.464   7.752  14.882  0.00  0.00    +0.000 A 
ATOM     31  C   UNL     1      51.754   6.859  16.008  0.00  0.00    +0.000 A 
ATOM     32  C   UNL     1      50.803   6.113  16.899  0.00  0.00    +0.000 C 
ENDBRANCH  18  29
ENDBRANCH   1  20
TORSDOF 7
ENDMDL
MODEL 9
REMARK VINA RESULT:    -6.613      4.188      9.280
REMARK INTER + INTRA:         -10.298
REMARK INTER:                  -8.581
REMARK INTRA:                  -1.716
REMARK UNBOUND:                -0.978
REMARK  Name = 
REMARK  9 active torsions:
REMARK  status: ('A' for Active; 'I' for Inactive)
REMARK    1  A    between atoms: C_1  and  C_2
REMARK    2  A    between atoms: C_8  and  C_9
REMARK    3  A    between atoms: N_11  and  C_12
REMARK    4  A    between atoms: C_12  and  C_13
REMARK    5  A    between atoms: C_16  and  N_17
REMARK    6  A    between atoms: N_17  and  C_18
REMARK    7  A    between atoms: C_18  and  C_19
REMARK    8  A    between atoms: C_19  and  C_20
REMARK    9  A    between atoms: C_29  and  C_30
REMARK                            x       y       z     vdW  Elec       q    Type
REMARK                         _______ _______ _______ _____ _____    ______ ____
ROOT
ATOM      1  C   UNL     1      47.680   3.653  16.520  0.00  0.00    +0.000 C 
ENDROOT
BRANCH   1   2
ATOM      2  C   UNL     1      47.999   4.381  17.783  0.00  0.00    +0.000 A 
ATOM      3  C   UNL     1      49.263   4.278  18.361  0.00  0.00    +0.000 A 
ATOM      4  C   UNL     1      49.596   5.042  19.479  0.00  0.00    +0.000 A 
ATOM      5  C   UNL     1      48.684   5.944  20.044  0.00  0.00    +0.000 A 
ATOM      6  C   UNL     1      47.390   5.978  19.517  0.00  0.00    +0.000 A 
ATOM      7  C   UNL     1      47.051   5.222  18.385  0.00  0.00    +0.000 A 
BRANCH   5   8
ATOM      8  N   UNL     1      48.994   6.801  21.111  0.00  0.00    +0.000 N 
ATOM      9  H   UNL     1      49.929   6.624  21.474  0.00  0.00    +0.000 HD
BRANCH   8  10
ATOM     10  C   UNL     1      48.637   8.210  20.937  0.00  0.00    +0.000 C 
BRANCH  10  11
ATOM     11  C   UNL     1      49.780   9.012  20.314  0.00  0.00    +0.000 C 
BRANCH  11  12
ATOM     12  C   UNL     1      49.505   9.314  18.862  0.00  0.00    +0.000 A 
ATOM     13  C   UNL     1      48.217   9.253  18.326  0.00  0.00    +0.000 A 
ATOM     14  C   UNL     1      48.017   9.527  16.973  0.00  0.00    +0.000 A 
ATOM     15  C   UNL     1      49.121   9.843  16.197  0.00  0.00    +0.000 A 
ATOM     16  N   UNL     1      50.380   9.890  16.673  0.00  0.00    +0.000 NA
ATOM     17  C   UNL     1      50.547   9.626  17.989  0.00  0.00    +0.000 A 
ENDBRANCH  11  12
ENDBRANCH  10  11
ENDBRANCH   8  10
ENDBRANCH   5   8
ENDBRANCH   1   2
BRANCH   1  20
ATOM     18  C   UNL     1      46.649   4.016  14.353  0.00  0.00    +0.000 C 
ATOM     19  O   UNL     1      47.394   3.178  13.846  0.00  0.00    +0.000 OA
ATOM     20  N   UNL     1      46.695   4.310  15.703  0.00  0.00    +0.000 N 
ATOM     21  H   UNL     1      45.962   4.879  16.109  0.00  0.00    +0.000 HD
BRANCH  18  29
ATOM     22  C   UNL     1      47.108   9.504  12.196  0.00  0.00    +0.000 C 
ATOM     23  C   UNL     1      46.364   8.217  12.377  0.00  0.00    +0.000 A 
ATOM     24  S   UNL     1      44.844   8.011  11.649  0.00  0.00    +0.000 S 
ATOM     25  C   UNL     1      44.687   6.441  12.276  0.00  0.00    +0.000 A 
ATOM     26  N   UNL     1      43.572   5.746  11.996  0.00  0.00    +0.000 NA
ATOM     27  C   UNL     1      43.546   4.543  12.560  0.00  0.00    +0.000 A 
ATOM     28  N   UNL     1      44.484   4.006  13.341  0.00  0.00    +0.000 NA
ATOM     29  C   UNL     1      45.622   4.727  13.560  0.00  0.00    +0.000 A 
ATOM     30  C   UNL     1      45.775   6.029  13.042  0.00  0.00    +0.000 A 
ATOM     31  C   UNL     1      46.771   7.104  13.103  0.00  0.00    +0.000 A 
ATOM     32  C   UNL     1      48.088   7.137  13.822  0.00  0.00    +0.000 C 
ENDBRANCH  18  29
ENDBRANCH   1  20
TORSDOF 7
ENDMDL
