MODEL 1
REMARK VINA RESULT:    -7.337      0.000      0.000
REMARK INTER + INTRA:          -9.400
REMARK INTER:                  -9.052
REMARK INTRA:                  -0.348
REMARK UNBOUND:                -0.348
REMARK  Name = 
REMARK  4 active torsions:
REMARK  status: ('A' for Active; 'I' for Inactive)
REMARK    1  A    between atoms: C_5  and  C_6
REMARK    2  A    between atoms: C_6  and  O_7
REMARK    3  A    between atoms: O_7  and  C_8
REMARK    4  A    between atoms: C_13  and  C_14
REMARK                            x       y       z     vdW  Elec       q    Type
REMARK                         _______ _______ _______ _____ _____    ______ ____
ROOT
ATOM      1  C   UNL     1      46.655   4.434  13.952  0.00  0.00    +0.000 A 
ATOM      2  C   UNL     1      47.208   5.494  13.243  0.00  0.00    +0.000 A 
ATOM      3  C   UNL     1      48.083   6.362  13.885  0.00  0.00    +0.000 A 
ATOM      4  F   UNL     1      48.594   7.399  13.208  0.00  0.00    +0.000 F 
ATOM      5  C   UNL     1      48.425   6.186  15.227  0.00  0.00    +0.000 A 
ATOM      6  C   UNL     1      47.884   5.118  15.960  0.00  0.00    +0.000 A 
ATOM      7  C   UNL     1      46.976   4.271  15.298  0.00  0.00    +0.000 A 
ENDROOT
BRANCH   6   8
ATOM      8  C   UNL     1      48.216   4.950  17.441  0.00  0.00    +0.000 C 
ATOM      9  C   UNL     1      49.575   5.555  17.841  0.00  0.00    +0.000 C 
ATOM     10  C   UNL     1      50.755   4.660  17.465  0.00  0.00    +0.000 C 
ATOM     11  N   UNL     1      50.629   3.299  17.979  0.00  0.00    +0.000 NA
ATOM     12  C   UNL     1      49.375   2.665  17.586  0.00  0.00    +0.000 C 
ATOM     13  C   UNL     1      48.151   3.501  17.972  0.00  0.00    +0.000 C 
ATOM     14  H   UNL     1      50.681   3.320  19.001  0.00  0.00    +0.000 HD
ENDBRANCH   6   8
BRANCH   1  15
ATOM     15  O   UNL     1      45.780   3.626  13.268  0.00  0.00    +0.000 OA
BRANCH  15  16
ATOM     16  C   UNL     1      44.771   4.243  12.416  0.00  0.00    +0.000 C 
ATOM     17  C   UNL     1      43.378   4.110  13.023  0.00  0.00    +0.000 C 
ATOM     18  C   UNL     1      44.004   5.458  12.925  0.00  0.00    +0.000 C 
BRANCH  16  23
ATOM     19  F   UNL     1      45.547   3.241   6.919  0.00  0.00    +0.000 F 
ATOM     20  C   UNL     1      45.325   3.535   8.204  0.00  0.00    +0.000 A 
ATOM     21  C   UNL     1      45.602   4.796   8.698  0.00  0.00    +0.000 A 
ATOM     22  C   UNL     1      45.390   5.055  10.057  0.00  0.00    +0.000 A 
ATOM     23  C   UNL     1      44.902   4.043  10.899  0.00  0.00    +0.000 A 
ATOM     24  N   UNL     1      44.604   2.811  10.388  0.00  0.00    +0.000 NA
ATOM     25  C   UNL     1      44.831   2.580   9.071  0.00  0.00    +0.000 A 
ENDBRANCH  16  23
ENDBRANCH  15  16
ENDBRANCH   1  15
TORSDOF 4
ENDMDL
MODEL 2
REMARK VINA RESULT:    -7.272      2.411      3.805
REMARK INTER + INTRA:          -9.321
REMARK INTER:                  -8.632
REMARK INTRA:                  -0.689
REMARK UNBOUND:                -0.348
REMARK  Name = 
REMARK  4 active torsions:
REMARK  status: ('A' for Active; 'I' for Inactive)
REMARK    1  A    between atoms: C_5  and  C_6
REMARK    2  A    between atoms: C_6  and  O_7
REMARK    3  A    between atoms: O_7  and  C_8
REMARK    4  A    between atoms: C_13  and  C_14
REMARK                            x       y       z     vdW  Elec       q    Type
REMARK                         _______ _______ _______ _____ _____    ______ ____
ROOT
ATOM      1  C   UNL     1      46.663   4.574  13.885  0.00  0.00    +0.000 A 
ATOM      2  C   UNL     1      46.966   4.355  15.223  0.00  0.00    +0.000 A 
ATOM      3  C   UNL     1      47.900   5.168  15.853  0.00  0.00    +0.000 A 
ATOM      4  F   UNL     1      48.210   4.939  17.136  0.00  0.00    +0.000 F 
ATOM      5  C   UNL     1      48.535   6.207  15.171  0.00  0.00    +0.000 A 
ATOM      6  C   UNL     1      48.239   6.450  13.820  0.00  0.00    +0.000 A 
ATOM      7  C   UNL     1      47.314   5.594  13.195  0.00  0.00    +0.000 A 
ENDROOT
BRANCH   6   8
ATOM      8  C   UNL     1      48.967   7.554  13.056  0.00  0.00    +0.000 C 
ATOM      9  C   UNL     1      49.547   8.654  13.964  0.00  0.00    +0.000 C 
ATOM     10  C   UNL     1      48.492   9.658  14.427  0.00  0.00    +0.000 C 
ATOM     11  N   UNL     1      47.740  10.249  13.323  0.00  0.00    +0.000 NA
ATOM     12  C   UNL     1      47.130   9.244  12.458  0.00  0.00    +0.000 C 
ATOM     13  C   UNL     1      48.149   8.229  11.932  0.00  0.00    +0.000 C 
ATOM     14  H   UNL     1      48.369  10.828  12.761  0.00  0.00    +0.000 HD
ENDBRANCH   6   8
BRANCH   1  15
ATOM     15  O   UNL     1      45.750   3.722  13.313  0.00  0.00    +0.000 OA
BRANCH  15  16
ATOM     16  C   UNL     1      44.720   4.275  12.442  0.00  0.00    +0.000 C 
ATOM     17  C   UNL     1      43.330   4.089  13.043  0.00  0.00    +0.000 C 
ATOM     18  C   UNL     1      43.894   5.463  12.923  0.00  0.00    +0.000 C 
BRANCH  16  23
ATOM     19  F   UNL     1      45.561   3.181   6.972  0.00  0.00    +0.000 F 
ATOM     20  C   UNL     1      45.325   3.498   8.250  0.00  0.00    +0.000 A 
ATOM     21  C   UNL     1      45.628   4.757   8.732  0.00  0.00    +0.000 A 
ATOM     22  C   UNL     1      45.399   5.040  10.084  0.00  0.00    +0.000 A 
ATOM     23  C   UNL     1      44.871   4.052  10.930  0.00  0.00    +0.000 A 
ATOM     24  N   UNL     1      44.549   2.822  10.430  0.00  0.00    +0.000 NA
ATOM     25  C   UNL     1      44.792   2.568   9.120  0.00  0.00    +0.000 A 
ENDBRANCH  16  23
ENDBRANCH  15  16
ENDBRANCH   1  15
TORSDOF 4
ENDMDL
MODEL 3
REMARK VINA RESULT:    -6.928      5.316      7.580
REMARK INTER + INTRA:          -8.896
REMARK INTER:                  -8.246
REMARK INTRA:                  -0.650
REMARK UNBOUND:                -0.348
REMARK  Name = 
REMARK  4 active torsions:
REMARK  status: ('A' for Active; 'I' for Inactive)
REMARK    1  A    between atoms: C_5  and  C_6
REMARK    2  A    between atoms: C_6  and  O_7
REMARK    3  A    between atoms: O_7  and  C_8
REMARK    4  A    between atoms: C_13  and  C_14
REMARK                            x       y       z     vdW  Elec       q    Type
REMARK                         _______ _______ _______ _____ _____    ______ ____
ROOT
ATOM      1  C   UNL     1      45.103   9.273  12.014  0.00  0.00    +0.000 A 
ATOM      2  C   UNL     1      46.441   9.171  12.376  0.00  0.00    +0.000 A 
ATOM      3  C   UNL     1      47.086   7.944  12.268  0.00  0.00    +0.000 A 
ATOM      4  F   UNL     1      48.368   7.842  12.641  0.00  0.00    +0.000 F 
ATOM      5  C   UNL     1      46.419   6.813  11.796  0.00  0.00    +0.000 A 
ATOM      6  C   UNL     1      45.068   6.895  11.420  0.00  0.00    +0.000 A 
ATOM      7  C   UNL     1      44.428   8.139  11.567  0.00  0.00    +0.000 A 
ENDROOT
BRANCH   6   8
ATOM      8  C   UNL     1      44.320   5.648  10.950  0.00  0.00    +0.000 C 
ATOM      9  C   UNL     1      42.911   5.511  11.555  0.00  0.00    +0.000 C 
ATOM     10  C   UNL     1      42.929   4.971  12.984  0.00  0.00    +0.000 C 
ATOM     11  N   UNL     1      43.668   3.717  13.114  0.00  0.00    +0.000 NA
ATOM     12  C   UNL     1      45.028   3.812  12.596  0.00  0.00    +0.000 C 
ATOM     13  C   UNL     1      45.070   4.313  11.149  0.00  0.00    +0.000 C 
ATOM     14  H   UNL     1      43.171   2.982  12.603  0.00  0.00    +0.000 HD
ENDBRANCH   6   8
BRANCH   1  15
ATOM     15  O   UNL     1      44.517  10.505  12.166  0.00  0.00    +0.000 OA
BRANCH  15  16
ATOM     16  C   UNL     1      43.618  10.990  11.125  0.00  0.00    +0.000 C 
ATOM     17  C   UNL     1      44.215  12.189  10.394  0.00  0.00    +0.000 C 
ATOM     18  C   UNL     1      44.048  10.900   9.665  0.00  0.00    +0.000 C 
BRANCH  16  23
ATOM     19  F   UNL     1      38.188  10.973  12.655  0.00  0.00    +0.000 F 
ATOM     20  C   UNL     1      39.455  10.993  12.226  0.00  0.00    +0.000 A 
ATOM     21  C   UNL     1      39.842  10.242  11.133  0.00  0.00    +0.000 A 
ATOM     22  C   UNL     1      41.185  10.261  10.736  0.00  0.00    +0.000 A 
ATOM     23  C   UNL     1      42.117  11.034  11.445  0.00  0.00    +0.000 A 
ATOM     24  N   UNL     1      41.712  11.794  12.506  0.00  0.00    +0.000 NA
ATOM     25  C   UNL     1      40.408  11.749  12.879  0.00  0.00    +0.000 A 
ENDBRANCH  16  23
ENDBRANCH  15  16
ENDBRANCH   1  15
TORSDOF 4
ENDMDL
MODEL 4
REMARK VINA RESULT:    -6.720      2.432      7.427
REMARK INTER + INTRA:          -8.639
REMARK INTER:                  -8.142
REMARK INTRA:                  -0.496
REMARK UNBOUND:                -0.348
REMARK  Name = 
REMARK  4 active torsions:
REMARK  status: ('A' for Active; 'I' for Inactive)
REMARK    1  A    between atoms: C_5  and  C_6
REMARK    2  A    between atoms: C_6  and  O_7
REMARK    3  A    between atoms: O_7  and  C_8
REMARK    4  A    between atoms: C_13  and  C_14
REMARK                            x       y       z     vdW  Elec       q    Type
REMARK                         _______ _______ _______ _____ _____    ______ ____
ROOT
ATOM      1  C   UNL     1      47.825   6.540  13.751  0.00  0.00    +0.000 A 
ATOM      2  C   UNL     1      47.451   7.697  13.078  0.00  0.00    +0.000 A 
ATOM      3  C   UNL     1      46.206   7.756  12.463  0.00  0.00    +0.000 A 
ATOM      4  F   UNL     1      45.857   8.862  11.793  0.00  0.00    +0.000 F 
ATOM      5  C   UNL     1      45.319   6.679  12.515  0.00  0.00    +0.000 A 
ATOM      6  C   UNL     1      45.675   5.503  13.195  0.00  0.00    +0.000 A 
ATOM      7  C   UNL     1      46.953   5.455  13.783  0.00  0.00    +0.000 A 
ENDROOT
BRANCH   6   8
ATOM      8  C   UNL     1      44.729   4.303  13.212  0.00  0.00    +0.000 C 
ATOM      9  C   UNL     1      45.137   3.182  12.238  0.00  0.00    +0.000 C 
ATOM     10  C   UNL     1      44.745   3.482  10.792  0.00  0.00    +0.000 C 
ATOM     11  N   UNL     1      43.329   3.805  10.637  0.00  0.00    +0.000 NA
ATOM     12  C   UNL     1      42.905   4.897  11.507  0.00  0.00    +0.000 C 
ATOM     13  C   UNL     1      43.239   4.635  12.979  0.00  0.00    +0.000 C 
ATOM     14  H   UNL     1      42.770   2.976  10.853  0.00  0.00    +0.000 HD
ENDBRANCH   6   8
BRANCH   1  15
ATOM     15  O   UNL     1      49.077   6.536  14.318  0.00  0.00    +0.000 OA
BRANCH  15  16
ATOM     16  C   UNL     1      49.221   6.949  15.708  0.00  0.00    +0.000 C 
ATOM     17  C   UNL     1      50.391   7.913  15.879  0.00  0.00    +0.000 C 
ATOM     18  C   UNL     1      49.001   8.411  16.080  0.00  0.00    +0.000 C 
BRANCH  16  23
ATOM     19  F   UNL     1      48.315   2.790  19.410  0.00  0.00    +0.000 F 
ATOM     20  C   UNL     1      48.546   3.818  18.587  0.00  0.00    +0.000 A 
ATOM     21  C   UNL     1      47.909   5.030  18.777  0.00  0.00    +0.000 A 
ATOM     22  C   UNL     1      48.149   6.072  17.873  0.00  0.00    +0.000 A 
ATOM     23  C   UNL     1      49.024   5.879  16.793  0.00  0.00    +0.000 A 
ATOM     24  N   UNL     1      49.668   4.684  16.637  0.00  0.00    +0.000 NA
ATOM     25  C   UNL     1      49.409   3.686  17.518  0.00  0.00    +0.000 A 
ENDBRANCH  16  23
ENDBRANCH  15  16
ENDBRANCH   1  15
TORSDOF 4
ENDMDL
MODEL 5
REMARK VINA RESULT:    -6.650      2.895      6.885
REMARK INTER + INTRA:          -8.553
REMARK INTER:                  -8.423
REMARK INTRA:                  -0.130
REMARK UNBOUND:                -0.348
REMARK  Name = 
REMARK  4 active torsions:
REMARK  status: ('A' for Active; 'I' for Inactive)
REMARK    1  A    between atoms: C_5  and  C_6
REMARK    2  A    between atoms: C_6  and  O_7
REMARK    3  A    between atoms: O_7  and  C_8
REMARK    4  A    between atoms: C_13  and  C_14
REMARK                            x       y       z     vdW  Elec       q    Type
REMARK                         _______ _______ _______ _____ _____    ______ ____
ROOT
ATOM      1  C   UNL     1      47.275   7.387  12.331  0.00  0.00    +0.000 A 
ATOM      2  C   UNL     1      46.795   8.690  12.386  0.00  0.00    +0.000 A 
ATOM      3  C   UNL     1      45.489   8.953  11.989  0.00  0.00    +0.000 A 
ATOM      4  F   UNL     1      45.037  10.214  12.018  0.00  0.00    +0.000 F 
ATOM      5  C   UNL     1      44.647   7.934  11.543  0.00  0.00    +0.000 A 
ATOM      6  C   UNL     1      45.109   6.610  11.485  0.00  0.00    +0.000 A 
ATOM      7  C   UNL     1      46.444   6.371  11.863  0.00  0.00    +0.000 A 
ENDROOT
BRANCH   6   8
ATOM      8  C   UNL     1      44.207   5.499  10.951  0.00  0.00    +0.000 C 
ATOM      9  C   UNL     1      42.874   5.368  11.710  0.00  0.00    +0.000 C 
ATOM     10  C   UNL     1      43.018   4.625  13.038  0.00  0.00    +0.000 C 
ATOM     11  N   UNL     1      43.658   3.319  12.897  0.00  0.00    +0.000 NA
ATOM     12  C   UNL     1      44.950   3.398  12.224  0.00  0.00    +0.000 C 
ATOM     13  C   UNL     1      44.860   4.102  10.866  0.00  0.00    +0.000 C 
ATOM     14  H   UNL     1      43.044   2.701  12.360  0.00  0.00    +0.000 HD
ENDBRANCH   6   8
BRANCH   1  15
ATOM     15  O   UNL     1      48.579   7.195  12.715  0.00  0.00    +0.000 OA
BRANCH  15  16
ATOM     16  C   UNL     1      48.921   7.305  14.128  0.00  0.00    +0.000 C 
ATOM     17  C   UNL     1      50.342   7.830  14.313  0.00  0.00    +0.000 C 
ATOM     18  C   UNL     1      49.191   8.682  14.726  0.00  0.00    +0.000 C 
BRANCH  16  23
ATOM     19  F   UNL     1      46.835   3.270  17.472  0.00  0.00    +0.000 F 
ATOM     20  C   UNL     1      47.392   4.216  16.710  0.00  0.00    +0.000 A 
ATOM     21  C   UNL     1      48.104   5.254  17.281  0.00  0.00    +0.000 A 
ATOM     22  C   UNL     1      48.643   6.245  16.452  0.00  0.00    +0.000 A 
ATOM     23  C   UNL     1      48.457   6.179  15.063  0.00  0.00    +0.000 A 
ATOM     24  N   UNL     1      47.776   5.130  14.512  0.00  0.00    +0.000 NA
ATOM     25  C   UNL     1      47.253   4.189  15.336  0.00  0.00    +0.000 A 
ENDBRANCH  16  23
ENDBRANCH  15  16
ENDBRANCH   1  15
TORSDOF 4
ENDMDL
MODEL 6
REMARK VINA RESULT:    -6.368      3.118      7.374
REMARK INTER + INTRA:          -8.205
REMARK INTER:                  -7.327
REMARK INTRA:                  -0.878
REMARK UNBOUND:                -0.348
REMARK  Name = 
REMARK  4 active torsions:
REMARK  status: ('A' for Active; 'I' for Inactive)
REMARK    1  A    between atoms: C_5  and  C_6
REMARK    2  A    between atoms: C_6  and  O_7
REMARK    3  A    between atoms: O_7  and  C_8
REMARK    4  A    between atoms: C_13  and  C_14
REMARK                            x       y       z     vdW  Elec       q    Type
REMARK                         _______ _______ _______ _____ _____    ______ ____
ROOT
ATOM      1  C   UNL     1      47.532   7.268  12.238  0.00  0.00    +0.000 A 
ATOM      2  C   UNL     1      46.768   8.415  12.056  0.00  0.00    +0.000 A 
ATOM      3  C   UNL     1      45.392   8.355  12.241  0.00  0.00    +0.000 A 
ATOM      4  F   UNL     1      44.654   9.455  12.040  0.00  0.00    +0.000 F 
ATOM      5  C   UNL     1      44.761   7.167  12.613  0.00  0.00    +0.000 A 
ATOM      6  C   UNL     1      45.514   5.998  12.808  0.00  0.00    +0.000 A 
ATOM      7  C   UNL     1      46.901   6.075  12.585  0.00  0.00    +0.000 A 
ENDROOT
BRANCH   6   8
ATOM      8  C   UNL     1      44.822   4.684  13.167  0.00  0.00    +0.000 C 
ATOM      9  C   UNL     1      45.389   3.464  12.417  0.00  0.00    +0.000 C 
ATOM     10  C   UNL     1      44.870   3.356  10.984  0.00  0.00    +0.000 C 
ATOM     11  N   UNL     1      43.412   3.378  10.899  0.00  0.00    +0.000 NA
ATOM     12  C   UNL     1      42.829   4.543  11.557  0.00  0.00    +0.000 C 
ATOM     13  C   UNL     1      43.286   4.683  13.012  0.00  0.00    +0.000 C 
ATOM     14  H   UNL     1      43.038   2.532  11.338  0.00  0.00    +0.000 HD
ENDBRANCH   6   8
BRANCH   1  15
ATOM     15  O   UNL     1      48.882   7.387  12.019  0.00  0.00    +0.000 OA
BRANCH  15  16
ATOM     16  C   UNL     1      49.674   8.205  12.928  0.00  0.00    +0.000 C 
ATOM     17  C   UNL     1      51.105   8.367  12.423  0.00  0.00    +0.000 C 
ATOM     18  C   UNL     1      50.204   9.553  12.451  0.00  0.00    +0.000 C 
BRANCH  16  23
ATOM     19  F   UNL     1      48.679   7.122  18.374  0.00  0.00    +0.000 F 
ATOM     20  C   UNL     1      48.949   7.437  17.103  0.00  0.00    +0.000 A 
ATOM     21  C   UNL     1      48.628   8.685  16.602  0.00  0.00    +0.000 A 
ATOM     22  C   UNL     1      48.894   8.965  15.256  0.00  0.00    +0.000 A 
ATOM     23  C   UNL     1      49.478   7.988  14.436  0.00  0.00    +0.000 A 
ATOM     24  N   UNL     1      49.817   6.770  14.955  0.00  0.00    +0.000 NA
ATOM     25  C   UNL     1      49.537   6.517  16.258  0.00  0.00    +0.000 A 
ENDBRANCH  16  23
ENDBRANCH  15  16
ENDBRANCH   1  15
TORSDOF 4
ENDMDL
MODEL 7
REMARK VINA RESULT:    -6.342      3.443      7.698
REMARK INTER + INTRA:          -8.172
REMARK INTER:                  -7.709
REMARK INTRA:                  -0.464
REMARK UNBOUND:                -0.348
REMARK  Name = 
REMARK  4 active torsions:
REMARK  status: ('A' for Active; 'I' for Inactive)
REMARK    1  A    between atoms: C_5  and  C_6
REMARK    2  A    between atoms: C_6  and  O_7
REMARK    3  A    between atoms: O_7  and  C_8
REMARK    4  A    between atoms: C_13  and  C_14
REMARK                            x       y       z     vdW  Elec       q    Type
REMARK                         _______ _______ _______ _____ _____    ______ ____
ROOT
ATOM      1  C   UNL     1      47.481   6.661  12.137  0.00  0.00    +0.000 A 
ATOM      2  C   UNL     1      47.602   6.077  13.392  0.00  0.00    +0.000 A 
ATOM      3  C   UNL     1      46.640   5.168  13.818  0.00  0.00    +0.000 A 
ATOM      4  F   UNL     1      46.744   4.626  15.038  0.00  0.00    +0.000 F 
ATOM      5  C   UNL     1      45.559   4.823  13.006  0.00  0.00    +0.000 A 
ATOM      6  C   UNL     1      45.421   5.396  11.732  0.00  0.00    +0.000 A 
ATOM      7  C   UNL     1      46.389   6.337  11.335  0.00  0.00    +0.000 A 
ENDROOT
BRANCH   6   8
ATOM      8  C   UNL     1      44.212   5.059  10.859  0.00  0.00    +0.000 C 
ATOM      9  C   UNL     1      43.088   4.332  11.618  0.00  0.00    +0.000 C 
ATOM     10  C   UNL     1      43.372   2.843  11.815  0.00  0.00    +0.000 C 
ATOM     11  N   UNL     1      43.681   2.149  10.567  0.00  0.00    +0.000 NA
ATOM     12  C   UNL     1      44.775   2.776   9.833  0.00  0.00    +0.000 C 
ATOM     13  C   UNL     1      44.528   4.265   9.573  0.00  0.00    +0.000 C 
ATOM     14  H   UNL     1      42.848   2.142   9.972  0.00  0.00    +0.000 HD
ENDBRANCH   6   8
BRANCH   1  15
ATOM     15  O   UNL     1      48.450   7.568  11.784  0.00  0.00    +0.000 OA
BRANCH  15  16
ATOM     16  C   UNL     1      48.472   8.867  12.444  0.00  0.00    +0.000 C 
ATOM     17  C   UNL     1      48.685   9.995  11.438  0.00  0.00    +0.000 C 
ATOM     18  C   UNL     1      47.374   9.880  12.136  0.00  0.00    +0.000 C 
BRANCH  16  23
ATOM     19  F   UNL     1      51.183   8.843  17.391  0.00  0.00    +0.000 F 
ATOM     20  C   UNL     1      50.527   8.918  16.228  0.00  0.00    +0.000 A 
ATOM     21  C   UNL     1      49.250   9.442  16.170  0.00  0.00    +0.000 A 
ATOM     22  C   UNL     1      48.583   9.471  14.940  0.00  0.00    +0.000 A 
ATOM     23  C   UNL     1      49.209   8.971  13.787  0.00  0.00    +0.000 A 
ATOM     24  N   UNL     1      50.484   8.484  13.856  0.00  0.00    +0.000 NA
ATOM     25  C   UNL     1      51.105   8.455  15.062  0.00  0.00    +0.000 A 
ENDBRANCH  16  23
ENDBRANCH  15  16
ENDBRANCH   1  15
TORSDOF 4
ENDMDL
MODEL 8
REMARK VINA RESULT:    -6.221      3.029      4.091
REMARK INTER + INTRA:          -8.024
REMARK INTER:                  -7.095
REMARK INTRA:                  -0.929
REMARK UNBOUND:                -0.348
REMARK  Name = 
REMARK  4 active torsions:
REMARK  status: ('A' for Active; 'I' for Inactive)
REMARK    1  A    between atoms: C_5  and  C_6
REMARK    2  A    between atoms: C_6  and  O_7
REMARK    3  A    between atoms: O_7  and  C_8
REMARK    4  A    between atoms: C_13  and  C_14
REMARK                            x       y       z     vdW  Elec       q    Type
REMARK                         _______ _______ _______ _____ _____    ______ ____
ROOT
ATOM      1  C   UNL     1      48.905   7.338  15.413  0.00  0.00    +0.000 A 
ATOM      2  C   UNL     1      50.140   7.904  15.703  0.00  0.00    +0.000 A 
ATOM      3  C   UNL     1      50.960   7.305  16.652  0.00  0.00    +0.000 A 
ATOM      4  F   UNL     1      52.139   7.867  16.949  0.00  0.00    +0.000 F 
ATOM      5  C   UNL     1      50.571   6.140  17.315  0.00  0.00    +0.000 A 
ATOM      6  C   UNL     1      49.330   5.548  17.033  0.00  0.00    +0.000 A 
ATOM      7  C   UNL     1      48.503   6.189  16.092  0.00  0.00    +0.000 A 
ENDROOT
BRANCH   6   8
ATOM      8  C   UNL     1      48.878   4.301  17.792  0.00  0.00    +0.000 C 
ATOM      9  C   UNL     1      50.021   3.313  18.090  0.00  0.00    +0.000 C 
ATOM     10  C   UNL     1      50.393   2.454  16.882  0.00  0.00    +0.000 C 
ATOM     11  N   UNL     1      49.249   1.755  16.302  0.00  0.00    +0.000 NA
ATOM     12  C   UNL     1      48.156   2.657  15.958  0.00  0.00    +0.000 C 
ATOM     13  C   UNL     1      47.714   3.520  17.144  0.00  0.00    +0.000 C 
ATOM     14  H   UNL     1      48.905   1.062  16.972  0.00  0.00    +0.000 HD
ENDBRANCH   6   8
BRANCH   1  15
ATOM     15  O   UNL     1      48.132   7.990  14.484  0.00  0.00    +0.000 OA
BRANCH  15  16
ATOM     16  C   UNL     1      47.936   7.376  13.176  0.00  0.00    +0.000 C 
ATOM     17  C   UNL     1      48.158   8.385  12.053  0.00  0.00    +0.000 C 
ATOM     18  C   UNL     1      49.119   7.258  12.221  0.00  0.00    +0.000 C 
BRANCH  16  23
ATOM     19  F   UNL     1      43.498   3.901  12.953  0.00  0.00    +0.000 F 
ATOM     20  C   UNL     1      44.579   4.687  12.954  0.00  0.00    +0.000 A 
ATOM     21  C   UNL     1      45.846   4.145  13.068  0.00  0.00    +0.000 A 
ATOM     22  C   UNL     1      46.951   5.003  13.101  0.00  0.00    +0.000 A 
ATOM     23  C   UNL     1      46.767   6.392  13.019  0.00  0.00    +0.000 A 
ATOM     24  N   UNL     1      45.510   6.910  12.877  0.00  0.00    +0.000 NA
ATOM     25  C   UNL     1      44.454   6.059  12.861  0.00  0.00    +0.000 A 
ENDBRANCH  16  23
ENDBRANCH  15  16
ENDBRANCH   1  15
TORSDOF 4
ENDMDL
MODEL 9
REMARK VINA RESULT:    -5.753      3.152      7.149
REMARK INTER + INTRA:          -7.446
REMARK INTER:                  -6.732
REMARK INTRA:                  -0.714
REMARK UNBOUND:                -0.348
REMARK  Name = 
REMARK  4 active torsions:
REMARK  status: ('A' for Active; 'I' for Inactive)
REMARK    1  A    between atoms: C_5  and  C_6
REMARK    2  A    between atoms: C_6  and  O_7
REMARK    3  A    between atoms: O_7  and  C_8
REMARK    4  A    between atoms: C_13  and  C_14
REMARK                            x       y       z     vdW  Elec       q    Type
REMARK                         _______ _______ _______ _____ _____    ______ ____
ROOT
ATOM      1  C   UNL     1      46.736   4.765  14.657  0.00  0.00    +0.000 A 
ATOM      2  C   UNL     1      45.824   4.488  13.645  0.00  0.00    +0.000 A 
ATOM      3  C   UNL     1      45.931   5.154  12.430  0.00  0.00    +0.000 A 
ATOM      4  F   UNL     1      45.036   4.905  11.465  0.00  0.00    +0.000 F 
ATOM      5  C   UNL     1      46.939   6.091  12.202  0.00  0.00    +0.000 A 
ATOM      6  C   UNL     1      47.874   6.382  13.208  0.00  0.00    +0.000 A 
ATOM      7  C   UNL     1      47.728   5.719  14.441  0.00  0.00    +0.000 A 
ENDROOT
BRANCH   6   8
ATOM      8  C   UNL     1      48.950   7.443  12.981  0.00  0.00    +0.000 C 
ATOM      9  C   UNL     1      49.481   8.071  14.282  0.00  0.00    +0.000 C 
ATOM     10  C   UNL     1      48.543   9.133  14.854  0.00  0.00    +0.000 C 
ATOM     11  N   UNL     1      48.196  10.172  13.887  0.00  0.00    +0.000 NA
ATOM     12  C   UNL     1      47.644   9.626  12.652  0.00  0.00    +0.000 C 
ATOM     13  C   UNL     1      48.561   8.580  12.012  0.00  0.00    +0.000 C 
ATOM     14  H   UNL     1      49.036  10.712  13.661  0.00  0.00    +0.000 HD
ENDBRANCH   6   8
BRANCH   1  15
ATOM     15  O   UNL     1      46.564   4.092  15.842  0.00  0.00    +0.000 OA
BRANCH  15  16
ATOM     16  C   UNL     1      47.718   3.886  16.708  0.00  0.00    +0.000 C 
ATOM     17  C   UNL     1      47.586   2.592  17.506  0.00  0.00    +0.000 C 
ATOM     18  C   UNL     1      48.639   2.696  16.457  0.00  0.00    +0.000 C 
BRANCH  16  23
ATOM     19  F   UNL     1      49.549   8.614  19.180  0.00  0.00    +0.000 F 
ATOM     20  C   UNL     1      49.172   7.460  18.620  0.00  0.00    +0.000 A 
ATOM     21  C   UNL     1      50.040   6.751  17.812  0.00  0.00    +0.000 A 
ATOM     22  C   UNL     1      49.597   5.565  17.215  0.00  0.00    +0.000 A 
ATOM     23  C   UNL     1      48.288   5.111  17.438  0.00  0.00    +0.000 A 
ATOM     24  N   UNL     1      47.452   5.808  18.264  0.00  0.00    +0.000 NA
ATOM     25  C   UNL     1      47.900   6.961  18.821  0.00  0.00    +0.000 A 
ENDBRANCH  16  23
ENDBRANCH  15  16
ENDBRANCH   1  15
TORSDOF 4
ENDMDL
