MODEL 1
REMARK VINA RESULT:    -7.481      0.000      0.000
REMARK INTER + INTRA:         -12.848
REMARK INTER:                 -11.855
REMARK INTRA:                  -0.993
REMARK UNBOUND:                -0.993
REMARK  Name = 
REMARK  11 active torsions:
REMARK  status: ('A' for Active; 'I' for Inactive)
REMARK    1  A    between atoms: C_1  and  O_2
REMARK    2  A    between atoms: O_2  and  C_3
REMARK    3  A    between atoms: C_3  and  C_4
REMARK    4  A    between atoms: C_4  and  N_5
REMARK    5  A    between atoms: N_5  and  C_6
REMARK    6  A    between atoms: C_6  and  C_7
REMARK    7  A    between atoms: C_11  and  O_12
REMARK    8  A    between atoms: O_12  and  C_13
REMARK    9  A    between atoms: C_16  and  C_17
REMARK   10  A    between atoms: C_17  and  N_18
REMARK   11  A    between atoms: C_19  and  C_21
REMARK                            x       y       z     vdW  Elec       q    Type
REMARK                         _______ _______ _______ _____ _____    ______ ____
ROOT
ATOM      1  C   UNL     1      44.697   6.227  11.544  0.00  0.00    +0.000 A 
ATOM      2  C   UNL     1      44.627   7.605  11.400  0.00  0.00    +0.000 A 
ATOM      3  C   UNL     1      45.521   8.395  12.127  0.00  0.00    +0.000 A 
ATOM      4  C   UNL     1      46.464   7.788  12.962  0.00  0.00    +0.000 A 
ATOM      5  C   UNL     1      46.430   6.403  13.056  0.00  0.00    +0.000 A 
ATOM      6  N   UNL     1      45.590   5.615  12.351  0.00  0.00    +0.000 NA
ENDROOT
BRANCH   1   7
ATOM      7  O   UNL     1      43.813   5.461  10.787  0.00  0.00    +0.000 OA
BRANCH   7  12
ATOM      8  C   UNL     1      45.747   3.636   8.253  0.00  0.00    +0.000 A 
ATOM      9  C   UNL     1      45.431   2.308   8.591  0.00  0.00    +0.000 A 
ATOM     10  C   UNL     1      44.536   2.028   9.621  0.00  0.00    +0.000 A 
ATOM     11  C   UNL     1      43.969   3.071  10.347  0.00  0.00    +0.000 A 
ATOM     12  C   UNL     1      44.332   4.395  10.083  0.00  0.00    +0.000 A 
ATOM     13  C   UNL     1      45.195   4.679   9.018  0.00  0.00    +0.000 A 
BRANCH   8  14
ATOM     14  C   UNL     1      46.660   3.922   7.081  0.00  0.00    +0.000 C 
BRANCH  14  15
ATOM     15  N   UNL     1      47.414   2.722   6.719  0.00  0.00    +0.000 NA
ATOM     16  H   UNL     1      48.385   2.845   7.000  0.00  0.00    +0.000 HD
BRANCH  15  17
ATOM     17  C   UNL     1      47.361   2.455   5.281  0.00  0.00    +0.000 C 
BRANCH  17  18
ATOM     18  C   UNL     1      47.290   0.944   5.024  0.00  0.00    +0.000 C 
BRANCH  18  20
ATOM     19  C   UNL     1      46.180   0.351   3.038  0.00  0.00    +0.000 C 
ATOM     20  O   UNL     1      47.430   0.693   3.625  0.00  0.00    +0.000 OA
ENDBRANCH  18  20
ENDBRANCH  17  18
ENDBRANCH  15  17
ENDBRANCH  14  15
ENDBRANCH   8  14
ENDBRANCH   7  12
ENDBRANCH   1   7
BRANCH   4  21
ATOM     21  C   UNL     1      47.490   8.563  13.733  0.00  0.00    +0.000 C 
BRANCH  21  22
ATOM     22  N   UNL     1      47.776   7.970  15.013  0.00  0.00    +0.000 N 
ATOM     23  C   UNL     1      48.867   7.151  15.174  0.00  0.00    +0.000 C 
ATOM     24  O   UNL     1      49.661   6.938  14.262  0.00  0.00    +0.000 OA
ATOM     25  H   UNL     1      47.014   7.907  15.682  0.00  0.00    +0.000 HD
BRANCH  23  26
ATOM     26  C   UNL     1      49.074   6.597  16.516  0.00  0.00    +0.000 A 
ATOM     27  C   UNL     1      49.722   7.353  17.484  0.00  0.00    +0.000 A 
ATOM     28  S   UNL     1      49.825   6.580  19.001  0.00  0.00    +0.000 S 
ATOM     29  C   UNL     1      49.057   5.184  18.402  0.00  0.00    +0.000 A 
ATOM     30  N   UNL     1      48.851   4.101  19.199  0.00  0.00    +0.000 NA
ATOM     31  C   UNL     1      48.290   3.101  18.605  0.00  0.00    +0.000 A 
ATOM     32  N   UNL     1      47.911   3.087  17.288  0.00  0.00    +0.000 N 
ATOM     33  C   UNL     1      48.067   4.170  16.458  0.00  0.00    +0.000 A 
ATOM     34  O   UNL     1      47.666   4.148  15.294  0.00  0.00    +0.000 OA
ATOM     35  C   UNL     1      48.710   5.315  17.070  0.00  0.00    +0.000 A 
ATOM     36  H   UNL     1      47.467   2.275  16.887  0.00  0.00    +0.000 HD
ENDBRANCH  23  26
ENDBRANCH  21  22
ENDBRANCH   4  21
TORSDOF 10
ENDMDL
MODEL 2
REMARK VINA RESULT:    -7.408      3.169      6.583
REMARK INTER + INTRA:         -12.731
REMARK INTER:                 -11.706
REMARK INTRA:                  -1.025
REMARK UNBOUND:                -0.993
REMARK  Name = 
REMARK  11 active torsions:
REMARK  status: ('A' for Active; 'I' for Inactive)
REMARK    1  A    between atoms: C_1  and  O_2
REMARK    2  A    between atoms: O_2  and  C_3
REMARK    3  A    between atoms: C_3  and  C_4
REMARK    4  A    between atoms: C_4  and  N_5
REMARK    5  A    between atoms: N_5  and  C_6
REMARK    6  A    between atoms: C_6  and  C_7
REMARK    7  A    between atoms: C_11  and  O_12
REMARK    8  A    between atoms: O_12  and  C_13
REMARK    9  A    between atoms: C_16  and  C_17
REMARK   10  A    between atoms: C_17  and  N_18
REMARK   11  A    between atoms: C_19  and  C_21
REMARK                            x       y       z     vdW  Elec       q    Type
REMARK                         _______ _______ _______ _____ _____    ______ ____
ROOT
ATOM      1  C   UNL     1      46.906   1.982   7.035  0.00  0.00    +0.000 A 
ATOM      2  C   UNL     1      46.233   1.265   8.014  0.00  0.00    +0.000 A 
ATOM      3  C   UNL     1      45.367   1.955   8.866  0.00  0.00    +0.000 A 
ATOM      4  C   UNL     1      45.188   3.333   8.707  0.00  0.00    +0.000 A 
ATOM      5  C   UNL     1      45.931   3.959   7.714  0.00  0.00    +0.000 A 
ATOM      6  N   UNL     1      46.760   3.314   6.866  0.00  0.00    +0.000 NA
ENDROOT
BRANCH   1   7
ATOM      7  O   UNL     1      47.743   1.266   6.181  0.00  0.00    +0.000 OA
BRANCH   7  12
ATOM      8  C   UNL     1      46.692  -1.305   3.778  0.00  0.00    +0.000 A 
ATOM      9  C   UNL     1      46.075  -0.508   2.798  0.00  0.00    +0.000 A 
ATOM     10  C   UNL     1      46.061   0.880   2.912  0.00  0.00    +0.000 A 
ATOM     11  C   UNL     1      46.635   1.488   4.024  0.00  0.00    +0.000 A 
ATOM     12  C   UNL     1      47.180   0.712   5.051  0.00  0.00    +0.000 A 
ATOM     13  C   UNL     1      47.237  -0.680   4.914  0.00  0.00    +0.000 A 
BRANCH   8  14
ATOM     14  C   UNL     1      46.767  -2.805   3.598  0.00  0.00    +0.000 C 
BRANCH  14  15
ATOM     15  N   UNL     1      46.147  -3.487   4.735  0.00  0.00    +0.000 NA
ATOM     16  H   UNL     1      46.489  -3.067   5.597  0.00  0.00    +0.000 HD
BRANCH  15  17
ATOM     17  C   UNL     1      46.449  -4.918   4.746  0.00  0.00    +0.000 C 
BRANCH  17  18
ATOM     18  C   UNL     1      47.885  -5.154   5.232  0.00  0.00    +0.000 C 
BRANCH  18  20
ATOM     19  C   UNL     1      47.817  -5.900   7.461  0.00  0.00    +0.000 C 
ATOM     20  O   UNL     1      47.990  -4.777   6.606  0.00  0.00    +0.000 OA
ENDBRANCH  18  20
ENDBRANCH  17  18
ENDBRANCH  15  17
ENDBRANCH  14  15
ENDBRANCH   8  14
ENDBRANCH   7  12
ENDBRANCH   1   7
BRANCH   4  21
ATOM     21  C   UNL     1      44.237   4.134   9.545  0.00  0.00    +0.000 C 
BRANCH  21  22
ATOM     22  N   UNL     1      44.872   5.274  10.154  0.00  0.00    +0.000 N 
ATOM     23  C   UNL     1      44.397   5.787  11.336  0.00  0.00    +0.000 C 
ATOM     24  O   UNL     1      43.460   5.271  11.939  0.00  0.00    +0.000 OA
ATOM     25  H   UNL     1      45.447   5.864   9.560  0.00  0.00    +0.000 HD
BRANCH  23  26
ATOM     26  C   UNL     1      45.112   6.947  11.878  0.00  0.00    +0.000 A 
ATOM     27  C   UNL     1      44.779   8.225  11.449  0.00  0.00    +0.000 A 
ATOM     28  S   UNL     1      45.667   9.459  12.222  0.00  0.00    +0.000 S 
ATOM     29  C   UNL     1      46.568   8.325  13.116  0.00  0.00    +0.000 A 
ATOM     30  N   UNL     1      47.544   8.725  13.974  0.00  0.00    +0.000 NA
ATOM     31  C   UNL     1      48.170   7.758  14.559  0.00  0.00    +0.000 A 
ATOM     32  N   UNL     1      47.904   6.427  14.368  0.00  0.00    +0.000 N 
ATOM     33  C   UNL     1      46.904   5.981  13.539  0.00  0.00    +0.000 A 
ATOM     34  O   UNL     1      46.651   4.780  13.430  0.00  0.00    +0.000 OA
ATOM     35  C   UNL     1      46.182   7.026  12.843  0.00  0.00    +0.000 A 
ATOM     36  H   UNL     1      48.425   5.720  14.865  0.00  0.00    +0.000 HD
ENDBRANCH  23  26
ENDBRANCH  21  22
ENDBRANCH   4  21
TORSDOF 10
ENDMDL
MODEL 3
REMARK VINA RESULT:    -7.189      2.961      3.905
REMARK INTER + INTRA:         -12.385
REMARK INTER:                 -11.368
REMARK INTRA:                  -1.017
REMARK UNBOUND:                -0.993
REMARK  Name = 
REMARK  11 active torsions:
REMARK  status: ('A' for Active; 'I' for Inactive)
REMARK    1  A    between atoms: C_1  and  O_2
REMARK    2  A    between atoms: O_2  and  C_3
REMARK    3  A    between atoms: C_3  and  C_4
REMARK    4  A    between atoms: C_4  and  N_5
REMARK    5  A    between atoms: N_5  and  C_6
REMARK    6  A    between atoms: C_6  and  C_7
REMARK    7  A    between atoms: C_11  and  O_12
REMARK    8  A    between atoms: O_12  and  C_13
REMARK    9  A    between atoms: C_16  and  C_17
REMARK   10  A    between atoms: C_17  and  N_18
REMARK   11  A    between atoms: C_19  and  C_21
REMARK                            x       y       z     vdW  Elec       q    Type
REMARK                         _______ _______ _______ _____ _____    ______ ____
ROOT
ATOM      1  C   UNL     1      46.664   3.998  14.115  0.00  0.00    +0.000 A 
ATOM      2  C   UNL     1      47.148   5.184  13.581  0.00  0.00    +0.000 A 
ATOM      3  C   UNL     1      47.986   5.975  14.370  0.00  0.00    +0.000 A 
ATOM      4  C   UNL     1      48.328   5.554  15.658  0.00  0.00    +0.000 A 
ATOM      5  C   UNL     1      47.767   4.365  16.107  0.00  0.00    +0.000 A 
ATOM      6  N   UNL     1      46.970   3.572  15.360  0.00  0.00    +0.000 NA
ENDROOT
BRANCH   1   7
ATOM      7  O   UNL     1      45.852   3.214  13.298  0.00  0.00    +0.000 OA
BRANCH   7  12
ATOM      8  C   UNL     1      44.310   4.270  10.135  0.00  0.00    +0.000 A 
ATOM      9  C   UNL     1      43.308   5.135  10.611  0.00  0.00    +0.000 A 
ATOM     10  C   UNL     1      43.187   5.407  11.971  0.00  0.00    +0.000 A 
ATOM     11  C   UNL     1      44.045   4.792  12.878  0.00  0.00    +0.000 A 
ATOM     12  C   UNL     1      44.993   3.864  12.437  0.00  0.00    +0.000 A 
ATOM     13  C   UNL     1      45.147   3.628  11.065  0.00  0.00    +0.000 A 
BRANCH   8  14
ATOM     14  C   UNL     1      44.477   4.049   8.648  0.00  0.00    +0.000 C 
BRANCH  14  15
ATOM     15  N   UNL     1      45.482   3.014   8.397  0.00  0.00    +0.000 NA
ATOM     16  H   UNL     1      46.170   3.035   9.146  0.00  0.00    +0.000 HD
BRANCH  15  17
ATOM     17  C   UNL     1      46.158   3.209   7.115  0.00  0.00    +0.000 C 
BRANCH  17  18
ATOM     18  C   UNL     1      47.470   2.412   7.081  0.00  0.00    +0.000 C 
BRANCH  18  20
ATOM     19  C   UNL     1      47.101   1.900   4.816  0.00  0.00    +0.000 C 
ATOM     20  O   UNL     1      47.368   1.371   6.109  0.00  0.00    +0.000 OA
ENDBRANCH  18  20
ENDBRANCH  17  18
ENDBRANCH  15  17
ENDBRANCH  14  15
ENDBRANCH   8  14
ENDBRANCH   7  12
ENDBRANCH   1   7
BRANCH   4  21
ATOM     21  C   UNL     1      49.264   6.318  16.546  0.00  0.00    +0.000 C 
BRANCH  21  22
ATOM     22  N   UNL     1      50.375   5.517  16.990  0.00  0.00    +0.000 N 
ATOM     23  C   UNL     1      50.482   5.143  18.307  0.00  0.00    +0.000 C 
ATOM     24  O   UNL     1      49.622   5.428  19.136  0.00  0.00    +0.000 OA
ATOM     25  H   UNL     1      51.207   5.506  16.408  0.00  0.00    +0.000 HD
BRANCH  23  26
ATOM     26  C   UNL     1      51.647   4.327  18.660  0.00  0.00    +0.000 A 
ATOM     27  C   UNL     1      52.624   4.844  19.501  0.00  0.00    +0.000 A 
ATOM     28  S   UNL     1      53.877   3.742  19.855  0.00  0.00    +0.000 S 
ATOM     29  C   UNL     1      53.188   2.554  18.849  0.00  0.00    +0.000 A 
ATOM     30  N   UNL     1      53.789   1.346  18.679  0.00  0.00    +0.000 NA
ATOM     31  C   UNL     1      53.175   0.555  17.863  0.00  0.00    +0.000 A 
ATOM     32  N   UNL     1      52.011   0.859  17.207  0.00  0.00    +0.000 N 
ATOM     33  C   UNL     1      51.352   2.052  17.378  0.00  0.00    +0.000 A 
ATOM     34  O   UNL     1      50.278   2.277  16.818  0.00  0.00    +0.000 OA
ATOM     35  C   UNL     1      52.009   2.985  18.270  0.00  0.00    +0.000 A 
ATOM     36  H   UNL     1      51.577   0.191  16.589  0.00  0.00    +0.000 HD
ENDBRANCH  23  26
ENDBRANCH  21  22
ENDBRANCH   4  21
TORSDOF 10
ENDMDL
MODEL 4
REMARK VINA RESULT:    -7.061      3.496      7.084
REMARK INTER + INTRA:         -12.181
REMARK INTER:                 -11.059
REMARK INTRA:                  -1.121
REMARK UNBOUND:                -0.993
REMARK  Name = 
REMARK  11 active torsions:
REMARK  status: ('A' for Active; 'I' for Inactive)
REMARK    1  A    between atoms: C_1  and  O_2
REMARK    2  A    between atoms: O_2  and  C_3
REMARK    3  A    between atoms: C_3  and  C_4
REMARK    4  A    between atoms: C_4  and  N_5
REMARK    5  A    between atoms: N_5  and  C_6
REMARK    6  A    between atoms: C_6  and  C_7
REMARK    7  A    between atoms: C_11  and  O_12
REMARK    8  A    between atoms: O_12  and  C_13
REMARK    9  A    between atoms: C_16  and  C_17
REMARK   10  A    between atoms: C_17  and  N_18
REMARK   11  A    between atoms: C_19  and  C_21
REMARK                            x       y       z     vdW  Elec       q    Type
REMARK                         _______ _______ _______ _____ _____    ______ ____
ROOT
ATOM      1  C   UNL     1      46.950   1.869   6.271  0.00  0.00    +0.000 A 
ATOM      2  C   UNL     1      46.768   0.880   7.227  0.00  0.00    +0.000 A 
ATOM      3  C   UNL     1      46.054   1.198   8.385  0.00  0.00    +0.000 A 
ATOM      4  C   UNL     1      45.531   2.484   8.547  0.00  0.00    +0.000 A 
ATOM      5  C   UNL     1      45.795   3.407   7.543  0.00  0.00    +0.000 A 
ATOM      6  N   UNL     1      46.465   3.122   6.407  0.00  0.00    +0.000 NA
ENDROOT
BRANCH   1   7
ATOM      7  O   UNL     1      47.642   1.519   5.114  0.00  0.00    +0.000 OA
BRANCH   7  12
ATOM      8  C   UNL     1      46.567  -1.250   2.952  0.00  0.00    +0.000 A 
ATOM      9  C   UNL     1      45.597  -0.604   2.166  0.00  0.00    +0.000 A 
ATOM     10  C   UNL     1      45.345   0.756   2.319  0.00  0.00    +0.000 A 
ATOM     11  C   UNL     1      46.038   1.484   3.282  0.00  0.00    +0.000 A 
ATOM     12  C   UNL     1      46.946   0.846   4.131  0.00  0.00    +0.000 A 
ATOM     13  C   UNL     1      47.234  -0.512   3.946  0.00  0.00    +0.000 A 
BRANCH   8  14
ATOM     14  C   UNL     1      46.883  -2.711   2.718  0.00  0.00    +0.000 C 
BRANCH  14  15
ATOM     15  N   UNL     1      46.017  -3.558   3.540  0.00  0.00    +0.000 NA
ATOM     16  H   UNL     1      45.120  -3.094   3.660  0.00  0.00    +0.000 HD
BRANCH  15  17
ATOM     17  C   UNL     1      46.601  -3.822   4.855  0.00  0.00    +0.000 C 
BRANCH  17  18
ATOM     18  C   UNL     1      47.010  -5.297   4.967  0.00  0.00    +0.000 C 
BRANCH  18  20
ATOM     19  C   UNL     1      48.908  -5.850   6.242  0.00  0.00    +0.000 C 
ATOM     20  O   UNL     1      47.518  -5.550   6.278  0.00  0.00    +0.000 OA
ENDBRANCH  18  20
ENDBRANCH  17  18
ENDBRANCH  15  17
ENDBRANCH  14  15
ENDBRANCH   8  14
ENDBRANCH   7  12
ENDBRANCH   1   7
BRANCH   4  21
ATOM     21  C   UNL     1      44.709   2.887   9.734  0.00  0.00    +0.000 C 
BRANCH  21  22
ATOM     22  N   UNL     1      45.257   4.032  10.415  0.00  0.00    +0.000 N 
ATOM     23  C   UNL     1      45.346   4.051  11.786  0.00  0.00    +0.000 C 
ATOM     24  O   UNL     1      45.017   3.087  12.472  0.00  0.00    +0.000 OA
ATOM     25  H   UNL     1      45.274   4.914   9.911  0.00  0.00    +0.000 HD
BRANCH  23  26
ATOM     26  C   UNL     1      45.918   5.260  12.386  0.00  0.00    +0.000 A 
ATOM     27  C   UNL     1      47.039   5.163  13.200  0.00  0.00    +0.000 A 
ATOM     28  S   UNL     1      47.607   6.669  13.764  0.00  0.00    +0.000 S 
ATOM     29  C   UNL     1      46.340   7.498  12.988  0.00  0.00    +0.000 A 
ATOM     30  N   UNL     1      46.220   8.849  13.092  0.00  0.00    +0.000 NA
ATOM     31  C   UNL     1      45.194   9.342  12.482  0.00  0.00    +0.000 A 
ATOM     32  N   UNL     1      44.280   8.607  11.771  0.00  0.00    +0.000 N 
ATOM     33  C   UNL     1      44.384   7.248  11.610  0.00  0.00    +0.000 A 
ATOM     34  O   UNL     1      43.580   6.621  10.919  0.00  0.00    +0.000 OA
ATOM     35  C   UNL     1      45.509   6.641  12.292  0.00  0.00    +0.000 A 
ATOM     36  H   UNL     1      43.505   9.056  11.308  0.00  0.00    +0.000 HD
ENDBRANCH  23  26
ENDBRANCH  21  22
ENDBRANCH   4  21
TORSDOF 10
ENDMDL
MODEL 5
REMARK VINA RESULT:    -7.032      3.107      8.852
REMARK INTER + INTRA:         -12.136
REMARK INTER:                 -10.254
REMARK INTRA:                  -1.882
REMARK UNBOUND:                -0.993
REMARK  Name = 
REMARK  11 active torsions:
REMARK  status: ('A' for Active; 'I' for Inactive)
REMARK    1  A    between atoms: C_1  and  O_2
REMARK    2  A    between atoms: O_2  and  C_3
REMARK    3  A    between atoms: C_3  and  C_4
REMARK    4  A    between atoms: C_4  and  N_5
REMARK    5  A    between atoms: N_5  and  C_6
REMARK    6  A    between atoms: C_6  and  C_7
REMARK    7  A    between atoms: C_11  and  O_12
REMARK    8  A    between atoms: O_12  and  C_13
REMARK    9  A    between atoms: C_16  and  C_17
REMARK   10  A    between atoms: C_17  and  N_18
REMARK   11  A    between atoms: C_19  and  C_21
REMARK                            x       y       z     vdW  Elec       q    Type
REMARK                         _______ _______ _______ _____ _____    ______ ____
ROOT
ATOM      1  C   UNL     1      49.995   8.141  15.242  0.00  0.00    +0.000 A 
ATOM      2  C   UNL     1      48.686   8.582  15.371  0.00  0.00    +0.000 A 
ATOM      3  C   UNL     1      47.865   8.566  14.241  0.00  0.00    +0.000 A 
ATOM      4  C   UNL     1      48.368   8.098  13.023  0.00  0.00    +0.000 A 
ATOM      5  C   UNL     1      49.701   7.706  12.996  0.00  0.00    +0.000 A 
ATOM      6  N   UNL     1      50.510   7.693  14.076  0.00  0.00    +0.000 NA
ENDROOT
BRANCH   1   7
ATOM      7  O   UNL     1      50.785   8.141  16.389  0.00  0.00    +0.000 OA
BRANCH   7  12
ATOM      8  C   UNL     1      51.079   4.639  17.456  0.00  0.00    +0.000 A 
ATOM      9  C   UNL     1      52.477   4.503  17.522  0.00  0.00    +0.000 A 
ATOM     10  C   UNL     1      53.311   5.588  17.267  0.00  0.00    +0.000 A 
ATOM     11  C   UNL     1      52.760   6.816  16.911  0.00  0.00    +0.000 A 
ATOM     12  C   UNL     1      51.377   6.952  16.759  0.00  0.00    +0.000 A 
ATOM     13  C   UNL     1      50.536   5.874  17.061  0.00  0.00    +0.000 A 
BRANCH   8  14
ATOM     14  C   UNL     1      50.187   3.470  17.814  0.00  0.00    +0.000 C 
BRANCH  14  15
ATOM     15  N   UNL     1      50.115   2.524  16.699  0.00  0.00    +0.000 NA
ATOM     16  H   UNL     1      50.444   2.986  15.854  0.00  0.00    +0.000 HD
BRANCH  15  17
ATOM     17  C   UNL     1      48.753   2.036  16.482  0.00  0.00    +0.000 C 
BRANCH  17  18
ATOM     18  C   UNL     1      47.771   3.214  16.429  0.00  0.00    +0.000 C 
BRANCH  18  20
ATOM     19  C   UNL     1      47.386   4.858  14.792  0.00  0.00    +0.000 C 
ATOM     20  O   UNL     1      47.401   3.464  15.072  0.00  0.00    +0.000 OA
ENDBRANCH  18  20
ENDBRANCH  17  18
ENDBRANCH  15  17
ENDBRANCH  14  15
ENDBRANCH   8  14
ENDBRANCH   7  12
ENDBRANCH   1   7
BRANCH   4  21
ATOM     21  C   UNL     1      47.536   7.999  11.780  0.00  0.00    +0.000 C 
BRANCH  21  22
ATOM     22  N   UNL     1      46.873   6.726  11.666  0.00  0.00    +0.000 N 
ATOM     23  C   UNL     1      45.501   6.653  11.656  0.00  0.00    +0.000 C 
ATOM     24  O   UNL     1      44.796   7.657  11.692  0.00  0.00    +0.000 OA
ATOM     25  H   UNL     1      47.406   5.896  11.907  0.00  0.00    +0.000 HD
BRANCH  23  26
ATOM     26  C   UNL     1      44.920   5.312  11.534  0.00  0.00    +0.000 A 
ATOM     27  C   UNL     1      44.252   4.749  12.613  0.00  0.00    +0.000 A 
ATOM     28  S   UNL     1      43.589   3.212  12.281  0.00  0.00    +0.000 S 
ATOM     29  C   UNL     1      44.223   3.222  10.701  0.00  0.00    +0.000 A 
ATOM     30  N   UNL     1      44.039   2.164   9.866  0.00  0.00    +0.000 NA
ATOM     31  C   UNL     1      44.603   2.291   8.711  0.00  0.00    +0.000 A 
ATOM     32  N   UNL     1      45.329   3.384   8.312  0.00  0.00    +0.000 N 
ATOM     33  C   UNL     1      45.509   4.487   9.110  0.00  0.00    +0.000 A 
ATOM     34  O   UNL     1      46.119   5.478   8.705  0.00  0.00    +0.000 OA
ATOM     35  C   UNL     1      44.911   4.388  10.426  0.00  0.00    +0.000 A 
ATOM     36  H   UNL     1      45.736   3.424   7.391  0.00  0.00    +0.000 HD
ENDBRANCH  23  26
ENDBRANCH  21  22
ENDBRANCH   4  21
TORSDOF 10
ENDMDL
MODEL 6
REMARK VINA RESULT:    -6.983      1.772      2.282
REMARK INTER + INTRA:         -12.057
REMARK INTER:                 -10.901
REMARK INTRA:                  -1.156
REMARK UNBOUND:                -0.993
REMARK  Name = 
REMARK  11 active torsions:
REMARK  status: ('A' for Active; 'I' for Inactive)
REMARK    1  A    between atoms: C_1  and  O_2
REMARK    2  A    between atoms: O_2  and  C_3
REMARK    3  A    between atoms: C_3  and  C_4
REMARK    4  A    between atoms: C_4  and  N_5
REMARK    5  A    between atoms: N_5  and  C_6
REMARK    6  A    between atoms: C_6  and  C_7
REMARK    7  A    between atoms: C_11  and  O_12
REMARK    8  A    between atoms: O_12  and  C_13
REMARK    9  A    between atoms: C_16  and  C_17
REMARK   10  A    between atoms: C_17  and  N_18
REMARK   11  A    between atoms: C_19  and  C_21
REMARK                            x       y       z     vdW  Elec       q    Type
REMARK                         _______ _______ _______ _____ _____    ______ ____
ROOT
ATOM      1  C   UNL     1      45.270   5.853  11.625  0.00  0.00    +0.000 A 
ATOM      2  C   UNL     1      45.612   7.193  11.517  0.00  0.00    +0.000 A 
ATOM      3  C   UNL     1      46.597   7.699  12.369  0.00  0.00    +0.000 A 
ATOM      4  C   UNL     1      47.220   6.851  13.290  0.00  0.00    +0.000 A 
ATOM      5  C   UNL     1      46.784   5.533  13.335  0.00  0.00    +0.000 A 
ATOM      6  N   UNL     1      45.849   5.014  12.511  0.00  0.00    +0.000 NA
ENDROOT
BRANCH   1   7
ATOM      7  O   UNL     1      44.305   5.367  10.745  0.00  0.00    +0.000 OA
BRANCH   7  12
ATOM      8  C   UNL     1      45.850   3.394   8.060  0.00  0.00    +0.000 A 
ATOM      9  C   UNL     1      45.353   2.113   8.360  0.00  0.00    +0.000 A 
ATOM     10  C   UNL     1      44.465   1.921   9.415  0.00  0.00    +0.000 A 
ATOM     11  C   UNL     1      44.087   3.003  10.205  0.00  0.00    +0.000 A 
ATOM     12  C   UNL     1      44.633   4.269   9.978  0.00  0.00    +0.000 A 
ATOM     13  C   UNL     1      45.488   4.471   8.888  0.00  0.00    +0.000 A 
BRANCH   8  14
ATOM     14  C   UNL     1      46.751   3.595   6.862  0.00  0.00    +0.000 C 
BRANCH  14  15
ATOM     15  N   UNL     1      47.365   2.326   6.468  0.00  0.00    +0.000 NA
ATOM     16  H   UNL     1      48.213   2.187   7.013  0.00  0.00    +0.000 HD
BRANCH  15  17
ATOM     17  C   UNL     1      47.701   2.300   5.044  0.00  0.00    +0.000 C 
BRANCH  17  18
ATOM     18  C   UNL     1      46.791   1.310   4.304  0.00  0.00    +0.000 C 
BRANCH  18  20
ATOM     19  C   UNL     1      46.782  -0.463   2.759  0.00  0.00    +0.000 C 
ATOM     20  O   UNL     1      47.592   0.417   3.528  0.00  0.00    +0.000 OA
ENDBRANCH  18  20
ENDBRANCH  17  18
ENDBRANCH  15  17
ENDBRANCH  14  15
ENDBRANCH   8  14
ENDBRANCH   7  12
ENDBRANCH   1   7
BRANCH   4  21
ATOM     21  C   UNL     1      48.322   7.304  14.200  0.00  0.00    +0.000 C 
BRANCH  21  22
ATOM     22  N   UNL     1      48.131   6.855  15.555  0.00  0.00    +0.000 N 
ATOM     23  C   UNL     1      49.204   6.457  16.314  0.00  0.00    +0.000 C 
ATOM     24  O   UNL     1      50.356   6.516  15.894  0.00  0.00    +0.000 OA
ATOM     25  H   UNL     1      47.201   6.545  15.820  0.00  0.00    +0.000 HD
BRANCH  23  26
ATOM     26  C   UNL     1      48.908   6.018  17.682  0.00  0.00    +0.000 A 
ATOM     27  C   UNL     1      49.124   4.695  18.045  0.00  0.00    +0.000 A 
ATOM     28  S   UNL     1      48.784   4.372  19.685  0.00  0.00    +0.000 S 
ATOM     29  C   UNL     1      48.280   5.975  19.952  0.00  0.00    +0.000 A 
ATOM     30  N   UNL     1      47.827   6.373  21.172  0.00  0.00    +0.000 NA
ATOM     31  C   UNL     1      47.446   7.606  21.223  0.00  0.00    +0.000 A 
ATOM     32  N   UNL     1      47.483   8.480  20.167  0.00  0.00    +0.000 N 
ATOM     33  C   UNL     1      47.967   8.130  18.930  0.00  0.00    +0.000 A 
ATOM     34  O   UNL     1      48.040   8.952  18.016  0.00  0.00    +0.000 OA
ATOM     35  C   UNL     1      48.390   6.750  18.813  0.00  0.00    +0.000 A 
ATOM     36  H   UNL     1      47.179   9.435  20.277  0.00  0.00    +0.000 HD
ENDBRANCH  23  26
ENDBRANCH  21  22
ENDBRANCH   4  21
TORSDOF 10
ENDMDL
MODEL 7
REMARK VINA RESULT:    -6.968      3.001      9.154
REMARK INTER + INTRA:         -12.035
REMARK INTER:                 -10.423
REMARK INTRA:                  -1.612
REMARK UNBOUND:                -0.993
REMARK  Name = 
REMARK  11 active torsions:
REMARK  status: ('A' for Active; 'I' for Inactive)
REMARK    1  A    between atoms: C_1  and  O_2
REMARK    2  A    between atoms: O_2  and  C_3
REMARK    3  A    between atoms: C_3  and  C_4
REMARK    4  A    between atoms: C_4  and  N_5
REMARK    5  A    between atoms: N_5  and  C_6
REMARK    6  A    between atoms: C_6  and  C_7
REMARK    7  A    between atoms: C_11  and  O_12
REMARK    8  A    between atoms: O_12  and  C_13
REMARK    9  A    between atoms: C_16  and  C_17
REMARK   10  A    between atoms: C_17  and  N_18
REMARK   11  A    between atoms: C_19  and  C_21
REMARK                            x       y       z     vdW  Elec       q    Type
REMARK                         _______ _______ _______ _____ _____    ______ ____
ROOT
ATOM      1  C   UNL     1      49.590   8.126  15.378  0.00  0.00    +0.000 A 
ATOM      2  C   UNL     1      49.139   9.312  14.817  0.00  0.00    +0.000 A 
ATOM      3  C   UNL     1      48.543   9.265  13.554  0.00  0.00    +0.000 A 
ATOM      4  C   UNL     1      48.403   8.038  12.898  0.00  0.00    +0.000 A 
ATOM      5  C   UNL     1      48.914   6.915  13.536  0.00  0.00    +0.000 A 
ATOM      6  N   UNL     1      49.476   6.929  14.762  0.00  0.00    +0.000 NA
ENDROOT
BRANCH   1   7
ATOM      7  O   UNL     1      50.156   8.196  16.650  0.00  0.00    +0.000 OA
BRANCH   7  12
ATOM      8  C   UNL     1      49.057   5.908  19.304  0.00  0.00    +0.000 A 
ATOM      9  C   UNL     1      47.978   6.633  19.842  0.00  0.00    +0.000 A 
ATOM     10  C   UNL     1      47.588   7.848  19.286  0.00  0.00    +0.000 A 
ATOM     11  C   UNL     1      48.290   8.371  18.204  0.00  0.00    +0.000 A 
ATOM     12  C   UNL     1      49.416   7.709  17.706  0.00  0.00    +0.000 A 
ATOM     13  C   UNL     1      49.780   6.464  18.234  0.00  0.00    +0.000 A 
BRANCH   8  14
ATOM     14  C   UNL     1      49.416   4.552  19.872  0.00  0.00    +0.000 C 
BRANCH  14  15
ATOM     15  N   UNL     1      48.429   3.551  19.463  0.00  0.00    +0.000 NA
ATOM     16  H   UNL     1      48.462   2.771  20.115  0.00  0.00    +0.000 HD
BRANCH  15  17
ATOM     17  C   UNL     1      48.679   3.058  18.109  0.00  0.00    +0.000 C 
BRANCH  17  18
ATOM     18  C   UNL     1      47.403   3.161  17.263  0.00  0.00    +0.000 C 
BRANCH  18  20
ATOM     19  C   UNL     1      47.060   4.253  15.209  0.00  0.00    +0.000 C 
ATOM     20  O   UNL     1      47.753   3.208  15.879  0.00  0.00    +0.000 OA
ENDBRANCH  18  20
ENDBRANCH  17  18
ENDBRANCH  15  17
ENDBRANCH  14  15
ENDBRANCH   8  14
ENDBRANCH   7  12
ENDBRANCH   1   7
BRANCH   4  21
ATOM     21  C   UNL     1      47.727   7.898  11.566  0.00  0.00    +0.000 C 
BRANCH  21  22
ATOM     22  N   UNL     1      47.018   6.651  11.442  0.00  0.00    +0.000 N 
ATOM     23  C   UNL     1      45.663   6.595  11.660  0.00  0.00    +0.000 C 
ATOM     24  O   UNL     1      45.004   7.598  11.915  0.00  0.00    +0.000 OA
ATOM     25  H   UNL     1      47.561   5.794  11.505  0.00  0.00    +0.000 HD
BRANCH  23  26
ATOM     26  C   UNL     1      45.032   5.280  11.507  0.00  0.00    +0.000 A 
ATOM     27  C   UNL     1      44.347   4.714  12.575  0.00  0.00    +0.000 A 
ATOM     28  S   UNL     1      43.626   3.213  12.207  0.00  0.00    +0.000 S 
ATOM     29  C   UNL     1      44.253   3.239  10.625  0.00  0.00    +0.000 A 
ATOM     30  N   UNL     1      44.026   2.210   9.764  0.00  0.00    +0.000 NA
ATOM     31  C   UNL     1      44.589   2.346   8.610  0.00  0.00    +0.000 A 
ATOM     32  N   UNL     1      45.354   3.420   8.235  0.00  0.00    +0.000 N 
ATOM     33  C   UNL     1      45.579   4.496   9.059  0.00  0.00    +0.000 A 
ATOM     34  O   UNL     1      46.223   5.473   8.676  0.00  0.00    +0.000 OA
ATOM     35  C   UNL     1      44.984   4.386  10.376  0.00  0.00    +0.000 A 
ATOM     36  H   UNL     1      45.758   3.470   7.313  0.00  0.00    +0.000 HD
ENDBRANCH  23  26
ENDBRANCH  21  22
ENDBRANCH   4  21
TORSDOF 10
ENDMDL
MODEL 8
REMARK VINA RESULT:    -6.789      2.343      2.845
REMARK INTER + INTRA:         -11.751
REMARK INTER:                 -10.429
REMARK INTRA:                  -1.322
REMARK UNBOUND:                -0.993
REMARK  Name = 
REMARK  11 active torsions:
REMARK  status: ('A' for Active; 'I' for Inactive)
REMARK    1  A    between atoms: C_1  and  O_2
REMARK    2  A    between atoms: O_2  and  C_3
REMARK    3  A    between atoms: C_3  and  C_4
REMARK    4  A    between atoms: C_4  and  N_5
REMARK    5  A    between atoms: N_5  and  C_6
REMARK    6  A    between atoms: C_6  and  C_7
REMARK    7  A    between atoms: C_11  and  O_12
REMARK    8  A    between atoms: O_12  and  C_13
REMARK    9  A    between atoms: C_16  and  C_17
REMARK   10  A    between atoms: C_17  and  N_18
REMARK   11  A    between atoms: C_19  and  C_21
REMARK                            x       y       z     vdW  Elec       q    Type
REMARK                         _______ _______ _______ _____ _____    ______ ____
ROOT
ATOM      1  C   UNL     1      45.744   6.920  12.905  0.00  0.00    +0.000 A 
ATOM      2  C   UNL     1      45.969   8.263  12.639  0.00  0.00    +0.000 A 
ATOM      3  C   UNL     1      47.276   8.748  12.726  0.00  0.00    +0.000 A 
ATOM      4  C   UNL     1      48.319   7.878  13.058  0.00  0.00    +0.000 A 
ATOM      5  C   UNL     1      47.981   6.558  13.332  0.00  0.00    +0.000 A 
ATOM      6  N   UNL     1      46.731   6.060  13.238  0.00  0.00    +0.000 NA
ENDROOT
BRANCH   1   7
ATOM      7  O   UNL     1      44.436   6.455  12.785  0.00  0.00    +0.000 OA
BRANCH   7  12
ATOM      8  C   UNL     1      44.277   4.016  10.043  0.00  0.00    +0.000 A 
ATOM      9  C   UNL     1      43.869   2.866  10.742  0.00  0.00    +0.000 A 
ATOM     10  C   UNL     1      43.596   2.919  12.106  0.00  0.00    +0.000 A 
ATOM     11  C   UNL     1      43.757   4.117  12.797  0.00  0.00    +0.000 A 
ATOM     12  C   UNL     1      44.241   5.252  12.140  0.00  0.00    +0.000 A 
ATOM     13  C   UNL     1      44.470   5.210  10.760  0.00  0.00    +0.000 A 
BRANCH   8  14
ATOM     14  C   UNL     1      44.493   3.956   8.547  0.00  0.00    +0.000 C 
BRANCH  14  15
ATOM     15  N   UNL     1      45.754   4.606   8.188  0.00  0.00    +0.000 NA
ATOM     16  H   UNL     1      45.552   5.444   7.647  0.00  0.00    +0.000 HD
BRANCH  15  17
ATOM     17  C   UNL     1      46.620   3.725   7.405  0.00  0.00    +0.000 C 
BRANCH  17  18
ATOM     18  C   UNL     1      46.405   2.264   7.822  0.00  0.00    +0.000 C 
BRANCH  18  20
ATOM     19  C   UNL     1      47.860   2.011   5.992  0.00  0.00    +0.000 C 
ATOM     20  O   UNL     1      47.405   1.444   7.214  0.00  0.00    +0.000 OA
ENDBRANCH  18  20
ENDBRANCH  17  18
ENDBRANCH  15  17
ENDBRANCH  14  15
ENDBRANCH   8  14
ENDBRANCH   7  12
ENDBRANCH   1   7
BRANCH   4  21
ATOM     21  C   UNL     1      49.753   8.309  13.119  0.00  0.00    +0.000 C 
BRANCH  21  22
ATOM     22  N   UNL     1      50.541   7.470  13.985  0.00  0.00    +0.000 N 
ATOM     23  C   UNL     1      51.228   8.012  15.044  0.00  0.00    +0.000 C 
ATOM     24  O   UNL     1      51.158   9.206  15.322  0.00  0.00    +0.000 OA
ATOM     25  H   UNL     1      50.828   6.564  13.626  0.00  0.00    +0.000 HD
BRANCH  23  26
ATOM     26  C   UNL     1      52.000   7.076  15.868  0.00  0.00    +0.000 A 
ATOM     27  C   UNL     1      53.386   7.153  15.886  0.00  0.00    +0.000 A 
ATOM     28  S   UNL     1      54.120   6.031  16.940  0.00  0.00    +0.000 S 
ATOM     29  C   UNL     1      52.613   5.364  17.366  0.00  0.00    +0.000 A 
ATOM     30  N   UNL     1      52.529   4.320  18.233  0.00  0.00    +0.000 NA
ATOM     31  C   UNL     1      51.327   3.893  18.439  0.00  0.00    +0.000 A 
ATOM     32  N   UNL     1      50.201   4.419  17.861  0.00  0.00    +0.000 N 
ATOM     33  C   UNL     1      50.237   5.495  17.009  0.00  0.00    +0.000 A 
ATOM     34  O   UNL     1      49.204   5.983  16.548  0.00  0.00    +0.000 OA
ATOM     35  C   UNL     1      51.565   6.002  16.729  0.00  0.00    +0.000 A 
ATOM     36  H   UNL     1      49.289   4.044  18.072  0.00  0.00    +0.000 HD
ENDBRANCH  23  26
ENDBRANCH  21  22
ENDBRANCH   4  21
TORSDOF 10
ENDMDL
MODEL 9
REMARK VINA RESULT:    -6.744      2.292      2.819
REMARK INTER + INTRA:         -11.679
REMARK INTER:                 -10.746
REMARK INTRA:                  -0.933
REMARK UNBOUND:                -0.993
REMARK  Name = 
REMARK  11 active torsions:
REMARK  status: ('A' for Active; 'I' for Inactive)
REMARK    1  A    between atoms: C_1  and  O_2
REMARK    2  A    between atoms: O_2  and  C_3
REMARK    3  A    between atoms: C_3  and  C_4
REMARK    4  A    between atoms: C_4  and  N_5
REMARK    5  A    between atoms: N_5  and  C_6
REMARK    6  A    between atoms: C_6  and  C_7
REMARK    7  A    between atoms: C_11  and  O_12
REMARK    8  A    between atoms: O_12  and  C_13
REMARK    9  A    between atoms: C_16  and  C_17
REMARK   10  A    between atoms: C_17  and  N_18
REMARK   11  A    between atoms: C_19  and  C_21
REMARK                            x       y       z     vdW  Elec       q    Type
REMARK                         _______ _______ _______ _____ _____    ______ ____
ROOT
ATOM      1  C   UNL     1      45.480   6.840  12.024  0.00  0.00    +0.000 A 
ATOM      2  C   UNL     1      45.571   8.184  12.353  0.00  0.00    +0.000 A 
ATOM      3  C   UNL     1      46.580   8.586  13.232  0.00  0.00    +0.000 A 
ATOM      4  C   UNL     1      47.474   7.640  13.743  0.00  0.00    +0.000 A 
ATOM      5  C   UNL     1      47.277   6.316  13.371  0.00  0.00    +0.000 A 
ATOM      6  N   UNL     1      46.324   5.903  12.510  0.00  0.00    +0.000 NA
ENDROOT
BRANCH   1   7
ATOM      7  O   UNL     1      44.483   6.469  11.124  0.00  0.00    +0.000 OA
BRANCH   7  12
ATOM      8  C   UNL     1      44.972   3.258   9.408  0.00  0.00    +0.000 A 
ATOM      9  C   UNL     1      44.137   2.425  10.173  0.00  0.00    +0.000 A 
ATOM     10  C   UNL     1      43.374   2.943  11.216  0.00  0.00    +0.000 A 
ATOM     11  C   UNL     1      43.461   4.296  11.530  0.00  0.00    +0.000 A 
ATOM     12  C   UNL     1      44.347   5.127  10.838  0.00  0.00    +0.000 A 
ATOM     13  C   UNL     1      45.077   4.616   9.758  0.00  0.00    +0.000 A 
BRANCH   8  14
ATOM     14  C   UNL     1      45.732   2.692   8.228  0.00  0.00    +0.000 C 
BRANCH  14  15
ATOM     15  N   UNL     1      45.921   1.250   8.389  0.00  0.00    +0.000 NA
ATOM     16  H   UNL     1      46.151   1.054   9.361  0.00  0.00    +0.000 HD
BRANCH  15  17
ATOM     17  C   UNL     1      46.990   0.739   7.531  0.00  0.00    +0.000 C 
BRANCH  17  18
ATOM     18  C   UNL     1      47.773   1.904   6.910  0.00  0.00    +0.000 C 
BRANCH  18  20
ATOM     19  C   UNL     1      47.128   1.545   4.678  0.00  0.00    +0.000 C 
ATOM     20  O   UNL     1      48.210   1.538   5.600  0.00  0.00    +0.000 OA
ENDBRANCH  18  20
ENDBRANCH  17  18
ENDBRANCH  15  17
ENDBRANCH  14  15
ENDBRANCH   8  14
ENDBRANCH   7  12
ENDBRANCH   1   7
BRANCH   4  21
ATOM     21  C   UNL     1      48.614   8.000  14.647  0.00  0.00    +0.000 C 
BRANCH  21  22
ATOM     22  N   UNL     1      49.252   6.839  15.212  0.00  0.00    +0.000 N 
ATOM     23  C   UNL     1      49.169   6.585  16.560  0.00  0.00    +0.000 C 
ATOM     24  O   UNL     1      48.515   7.296  17.316  0.00  0.00    +0.000 OA
ATOM     25  H   UNL     1      50.000   6.408  14.677  0.00  0.00    +0.000 HD
BRANCH  23  26
ATOM     26  C   UNL     1      49.850   5.377  17.038  0.00  0.00    +0.000 A 
ATOM     27  C   UNL     1      49.108   4.248  17.358  0.00  0.00    +0.000 A 
ATOM     28  S   UNL     1      50.061   2.918  17.841  0.00  0.00    +0.000 S 
ATOM     29  C   UNL     1      51.495   3.824  17.695  0.00  0.00    +0.000 A 
ATOM     30  N   UNL     1      52.703   3.276  17.993  0.00  0.00    +0.000 NA
ATOM     31  C   UNL     1      53.701   4.087  17.871  0.00  0.00    +0.000 A 
ATOM     32  N   UNL     1      53.602   5.394  17.472  0.00  0.00    +0.000 N 
ATOM     33  C   UNL     1      52.407   5.977  17.127  0.00  0.00    +0.000 A 
ATOM     34  O   UNL     1      52.354   7.137  16.718  0.00  0.00    +0.000 OA
ATOM     35  C   UNL     1      51.250   5.115  17.264  0.00  0.00    +0.000 A 
ATOM     36  H   UNL     1      54.424   5.972  17.387  0.00  0.00    +0.000 HD
ENDBRANCH  23  26
ENDBRANCH  21  22
ENDBRANCH   4  21
TORSDOF 10
ENDMDL
