MODEL 1
REMARK VINA RESULT:    -7.791      0.000      0.000
REMARK INTER + INTRA:         -13.724
REMARK INTER:                 -12.573
REMARK INTRA:                  -1.151
REMARK UNBOUND:                -1.151
REMARK  Name = 
REMARK  16 active torsions:
REMARK  status: ('A' for Active; 'I' for Inactive)
REMARK    1  A    between atoms: C_1  and  C_2
REMARK    2  A    between atoms: C_2  and  C_3
REMARK    3  A    between atoms: C_6  and  C_7
REMARK    4  A    between atoms: C_7  and  O_8
REMARK    5  A    between atoms: O_8  and  C_9
REMARK    6  A    between atoms: C_13  and  C_14
REMARK    7  A    between atoms: C_14  and  C_15
REMARK    8  A    between atoms: C_14  and  C_16
REMARK    9  A    between atoms: C_14  and  C_17
REMARK   10  A    between atoms: C_17  and  O_18
REMARK   11  A    between atoms: O_18  and  C_19
REMARK   12  A    between atoms: C_22  and  C_23
REMARK   13  A    between atoms: C_23  and  C_24
REMARK   14  A    between atoms: C_23  and  C_25
REMARK   15  A    between atoms: C_25  and  O_26
REMARK   16  A    between atoms: C_30  and  C_31
REMARK                            x       y       z     vdW  Elec       q    Type
REMARK                         _______ _______ _______ _____ _____    ______ ____
ROOT
ATOM      1  C   UNL     1      46.962   4.379  13.726  0.00  0.00    +0.000 A 
ATOM      2  C   UNL     1      47.833   5.392  13.357  0.00  0.00    +0.000 A 
ATOM      3  N   UNL     1      47.484   6.443  12.592  0.00  0.00    +0.000 NA
ATOM      4  C   UNL     1      46.210   6.468  12.139  0.00  0.00    +0.000 A 
ATOM      5  C   UNL     1      45.249   5.483  12.386  0.00  0.00    +0.000 A 
ATOM      6  C   UNL     1      45.667   4.416  13.204  0.00  0.00    +0.000 A 
ENDROOT
BRANCH   5   7
ATOM      7  C   UNL     1      43.825   5.549  11.809  0.00  0.00    +0.000 C 
ATOM      8  C   UNL     1      42.815   5.054  12.868  0.00  0.00    +0.000 C 
ATOM      9  C   UNL     1      43.487   7.014  11.446  0.00  0.00    +0.000 C 
BRANCH   7  10
ATOM     10  C   UNL     1      43.619   4.712  10.506  0.00  0.00    +0.000 C 
BRANCH  10  11
ATOM     11  O   UNL     1      44.475   3.564  10.492  0.00  0.00    +0.000 OA
BRANCH  11  12
ATOM     12  C   UNL     1      45.102   3.298   9.315  0.00  0.00    +0.000 C 
ATOM     13  C   UNL     1      45.537   4.403   8.516  0.00  0.00    +0.000 C 
ATOM     14  N   UNL     1      46.132   3.932   7.375  0.00  0.00    +0.000 NA
ATOM     15  C   UNL     1      46.072   2.632   7.497  0.00  0.00    +0.000 C 
ATOM     16  C   UNL     1      45.409   2.145   8.717  0.00  0.00    +0.000 C 
BRANCH  15  17
ATOM     17  C   UNL     1      46.632   1.675   6.473  0.00  0.00    +0.000 C 
ATOM     18  C   UNL     1      47.155   0.421   7.170  0.00  0.00    +0.000 C 
BRANCH  17  19
ATOM     19  C   UNL     1      47.714   2.381   5.653  0.00  0.00    +0.000 C 
BRANCH  19  20
ATOM     20  O   UNL     1      48.839   2.745   6.441  0.00  0.00    +0.000 OA
ATOM     21  H   UNL     1      49.547   2.095   6.245  0.00  0.00    +0.000 HD
ENDBRANCH  19  20
ENDBRANCH  17  19
ENDBRANCH  15  17
ENDBRANCH  11  12
ENDBRANCH  10  11
ENDBRANCH   7  10
ENDBRANCH   5   7
BRANCH   1  22
ATOM     22  O   UNL     1      47.262   3.342  14.567  0.00  0.00    +0.000 OA
BRANCH  22  23
ATOM     23  C   UNL     1      47.380   3.717  15.949  0.00  0.00    +0.000 C 
BRANCH  23  27
ATOM     24  C   UNL     1      51.176   2.688  17.499  0.00  0.00    +0.000 A 
ATOM     25  C   UNL     1      50.379   1.783  16.819  0.00  0.00    +0.000 A 
ATOM     26  N   UNL     1      49.164   2.070  16.313  0.00  0.00    +0.000 NA
ATOM     27  C   UNL     1      48.731   3.328  16.499  0.00  0.00    +0.000 A 
ATOM     28  N   UNL     1      49.441   4.296  17.114  0.00  0.00    +0.000 NA
ATOM     29  C   UNL     1      50.658   3.971  17.599  0.00  0.00    +0.000 A 
ATOM     30  C   UNL     1      51.391   5.089  18.279  0.00  0.00    +0.000 C 
BRANCH  24  32
ATOM     31  C   UNL     1      52.946   0.900  17.585  0.00  0.00    +0.000 C 
ATOM     32  C   UNL     1      52.500   2.270  18.067  0.00  0.00    +0.000 C 
ENDBRANCH  24  32
ENDBRANCH  23  27
ENDBRANCH  22  23
ENDBRANCH   1  22
TORSDOF 11
ENDMDL
MODEL 2
REMARK VINA RESULT:    -7.761      3.735      8.577
REMARK INTER + INTRA:         -13.676
REMARK INTER:                 -12.093
REMARK INTRA:                  -1.583
REMARK UNBOUND:                -1.151
REMARK  Name = 
REMARK  16 active torsions:
REMARK  status: ('A' for Active; 'I' for Inactive)
REMARK    1  A    between atoms: C_1  and  C_2
REMARK    2  A    between atoms: C_2  and  C_3
REMARK    3  A    between atoms: C_6  and  C_7
REMARK    4  A    between atoms: C_7  and  O_8
REMARK    5  A    between atoms: O_8  and  C_9
REMARK    6  A    between atoms: C_13  and  C_14
REMARK    7  A    between atoms: C_14  and  C_15
REMARK    8  A    between atoms: C_14  and  C_16
REMARK    9  A    between atoms: C_14  and  C_17
REMARK   10  A    between atoms: C_17  and  O_18
REMARK   11  A    between atoms: O_18  and  C_19
REMARK   12  A    between atoms: C_22  and  C_23
REMARK   13  A    between atoms: C_23  and  C_24
REMARK   14  A    between atoms: C_23  and  C_25
REMARK   15  A    between atoms: C_25  and  O_26
REMARK   16  A    between atoms: C_30  and  C_31
REMARK                            x       y       z     vdW  Elec       q    Type
REMARK                         _______ _______ _______ _____ _____    ______ ____
ROOT
ATOM      1  C   UNL     1      45.021   4.827  11.643  0.00  0.00    +0.000 A 
ATOM      2  C   UNL     1      45.145   3.848  12.616  0.00  0.00    +0.000 A 
ATOM      3  N   UNL     1      45.902   3.977  13.722  0.00  0.00    +0.000 NA
ATOM      4  C   UNL     1      46.602   5.128  13.847  0.00  0.00    +0.000 A 
ATOM      5  C   UNL     1      46.614   6.168  12.913  0.00  0.00    +0.000 A 
ATOM      6  C   UNL     1      45.794   5.983  11.786  0.00  0.00    +0.000 A 
ENDROOT
BRANCH   5   7
ATOM      7  C   UNL     1      47.464   7.437  13.095  0.00  0.00    +0.000 C 
ATOM      8  C   UNL     1      48.479   7.220  14.240  0.00  0.00    +0.000 C 
ATOM      9  C   UNL     1      48.242   7.725  11.789  0.00  0.00    +0.000 C 
BRANCH   7  10
ATOM     10  C   UNL     1      46.638   8.725  13.410  0.00  0.00    +0.000 C 
BRANCH  10  11
ATOM     11  O   UNL     1      46.811   9.711  12.385  0.00  0.00    +0.000 OA
BRANCH  11  12
ATOM     12  C   UNL     1      45.677  10.150  11.778  0.00  0.00    +0.000 C 
ATOM     13  C   UNL     1      45.458  11.561  11.693  0.00  0.00    +0.000 C 
ATOM     14  N   UNL     1      44.265  11.799  11.061  0.00  0.00    +0.000 NA
ATOM     15  C   UNL     1      43.815  10.607  10.772  0.00  0.00    +0.000 C 
ATOM     16  C   UNL     1      44.663   9.489  11.215  0.00  0.00    +0.000 C 
BRANCH  15  17
ATOM     17  C   UNL     1      42.517  10.364  10.040  0.00  0.00    +0.000 C 
ATOM     18  C   UNL     1      42.156  11.593   9.209  0.00  0.00    +0.000 C 
BRANCH  17  19
ATOM     19  C   UNL     1      41.424   9.998  11.046  0.00  0.00    +0.000 C 
BRANCH  19  20
ATOM     20  O   UNL     1      41.386  10.890  12.152  0.00  0.00    +0.000 OA
ATOM     21  H   UNL     1      41.243  10.345  12.954  0.00  0.00    +0.000 HD
ENDBRANCH  19  20
ENDBRANCH  17  19
ENDBRANCH  15  17
ENDBRANCH  11  12
ENDBRANCH  10  11
ENDBRANCH   7  10
ENDBRANCH   5   7
BRANCH   1  22
ATOM     22  O   UNL     1      44.200   4.761  10.551  0.00  0.00    +0.000 OA
BRANCH  22  23
ATOM     23  C   UNL     1      44.027   3.435  10.022  0.00  0.00    +0.000 C 
BRANCH  23  27
ATOM     24  C   UNL     1      46.879   2.578   7.022  0.00  0.00    +0.000 A 
ATOM     25  C   UNL     1      46.435   3.864   7.282  0.00  0.00    +0.000 A 
ATOM     26  N   UNL     1      45.528   4.178   8.226  0.00  0.00    +0.000 NA
ATOM     27  C   UNL     1      45.043   3.149   8.943  0.00  0.00    +0.000 A 
ATOM     28  N   UNL     1      45.433   1.867   8.796  0.00  0.00    +0.000 NA
ATOM     29  C   UNL     1      46.353   1.594   7.845  0.00  0.00    +0.000 A 
ATOM     30  C   UNL     1      46.736   0.149   7.727  0.00  0.00    +0.000 C 
BRANCH  24  32
ATOM     31  C   UNL     1      47.201   1.858   4.631  0.00  0.00    +0.000 C 
ATOM     32  C   UNL     1      47.863   2.313   5.921  0.00  0.00    +0.000 C 
ENDBRANCH  24  32
ENDBRANCH  23  27
ENDBRANCH  22  23
ENDBRANCH   1  22
TORSDOF 11
ENDMDL
MODEL 3
REMARK VINA RESULT:    -7.575      1.785      2.314
REMARK INTER + INTRA:         -13.375
REMARK INTER:                 -12.261
REMARK INTRA:                  -1.114
REMARK UNBOUND:                -1.151
REMARK  Name = 
REMARK  16 active torsions:
REMARK  status: ('A' for Active; 'I' for Inactive)
REMARK    1  A    between atoms: C_1  and  C_2
REMARK    2  A    between atoms: C_2  and  C_3
REMARK    3  A    between atoms: C_6  and  C_7
REMARK    4  A    between atoms: C_7  and  O_8
REMARK    5  A    between atoms: O_8  and  C_9
REMARK    6  A    between atoms: C_13  and  C_14
REMARK    7  A    between atoms: C_14  and  C_15
REMARK    8  A    between atoms: C_14  and  C_16
REMARK    9  A    between atoms: C_14  and  C_17
REMARK   10  A    between atoms: C_17  and  O_18
REMARK   11  A    between atoms: O_18  and  C_19
REMARK   12  A    between atoms: C_22  and  C_23
REMARK   13  A    between atoms: C_23  and  C_24
REMARK   14  A    between atoms: C_23  and  C_25
REMARK   15  A    between atoms: C_25  and  O_26
REMARK   16  A    between atoms: C_30  and  C_31
REMARK                            x       y       z     vdW  Elec       q    Type
REMARK                         _______ _______ _______ _____ _____    ______ ____
ROOT
ATOM      1  C   UNL     1      47.090   5.725  13.304  0.00  0.00    +0.000 A 
ATOM      2  C   UNL     1      47.386   6.657  12.322  0.00  0.00    +0.000 A 
ATOM      3  N   UNL     1      46.520   7.047  11.368  0.00  0.00    +0.000 NA
ATOM      4  C   UNL     1      45.306   6.450  11.370  0.00  0.00    +0.000 A 
ATOM      5  C   UNL     1      44.901   5.455  12.264  0.00  0.00    +0.000 A 
ATOM      6  C   UNL     1      45.843   5.098  13.246  0.00  0.00    +0.000 A 
ENDROOT
BRANCH   5   7
ATOM      7  C   UNL     1      43.517   4.786  12.189  0.00  0.00    +0.000 C 
ATOM      8  C   UNL     1      43.097   4.308  13.597  0.00  0.00    +0.000 C 
ATOM      9  C   UNL     1      42.478   5.813  11.682  0.00  0.00    +0.000 C 
BRANCH   7  10
ATOM     10  C   UNL     1      43.444   3.566  11.216  0.00  0.00    +0.000 C 
BRANCH  10  11
ATOM     11  O   UNL     1      43.562   3.989   9.852  0.00  0.00    +0.000 OA
BRANCH  11  12
ATOM     12  C   UNL     1      44.546   3.397   9.124  0.00  0.00    +0.000 C 
ATOM     13  C   UNL     1      44.753   1.990   9.283  0.00  0.00    +0.000 C 
ATOM     14  N   UNL     1      45.787   1.588   8.479  0.00  0.00    +0.000 NA
ATOM     15  C   UNL     1      46.158   2.682   7.867  0.00  0.00    +0.000 C 
ATOM     16  C   UNL     1      45.414   3.896   8.241  0.00  0.00    +0.000 C 
BRANCH  15  17
ATOM     17  C   UNL     1      47.271   2.727   6.847  0.00  0.00    +0.000 C 
ATOM     18  C   UNL     1      46.782   3.424   5.580  0.00  0.00    +0.000 C 
BRANCH  17  19
ATOM     19  C   UNL     1      47.772   1.308   6.577  0.00  0.00    +0.000 C 
BRANCH  19  20
ATOM     20  O   UNL     1      48.437   1.198   5.325  0.00  0.00    +0.000 OA
ATOM     21  H   UNL     1      49.343   1.554   5.451  0.00  0.00    +0.000 HD
ENDBRANCH  19  20
ENDBRANCH  17  19
ENDBRANCH  15  17
ENDBRANCH  11  12
ENDBRANCH  10  11
ENDBRANCH   7  10
ENDBRANCH   5   7
BRANCH   1  22
ATOM     22  O   UNL     1      47.918   5.366  14.333  0.00  0.00    +0.000 OA
BRANCH  22  23
ATOM     23  C   UNL     1      47.280   4.588  15.360  0.00  0.00    +0.000 C 
BRANCH  23  27
ATOM     24  C   UNL     1      49.481   4.842  18.961  0.00  0.00    +0.000 A 
ATOM     25  C   UNL     1      48.120   4.585  18.936  0.00  0.00    +0.000 A 
ATOM     26  N   UNL     1      47.384   4.499  17.812  0.00  0.00    +0.000 NA
ATOM     27  C   UNL     1      48.048   4.679  16.657  0.00  0.00    +0.000 A 
ATOM     28  N   UNL     1      49.375   4.897  16.567  0.00  0.00    +0.000 NA
ATOM     29  C   UNL     1      50.081   4.967  17.716  0.00  0.00    +0.000 A 
ATOM     30  C   UNL     1      51.549   5.222  17.547  0.00  0.00    +0.000 C 
BRANCH  24  32
ATOM     31  C   UNL     1      49.288   5.020  21.465  0.00  0.00    +0.000 C 
ATOM     32  C   UNL     1      50.216   4.963  20.263  0.00  0.00    +0.000 C 
ENDBRANCH  24  32
ENDBRANCH  23  27
ENDBRANCH  22  23
ENDBRANCH   1  22
TORSDOF 11
ENDMDL
MODEL 4
REMARK VINA RESULT:    -7.564      1.815      2.678
REMARK INTER + INTRA:         -13.359
REMARK INTER:                 -12.414
REMARK INTRA:                  -0.945
REMARK UNBOUND:                -1.151
REMARK  Name = 
REMARK  16 active torsions:
REMARK  status: ('A' for Active; 'I' for Inactive)
REMARK    1  A    between atoms: C_1  and  C_2
REMARK    2  A    between atoms: C_2  and  C_3
REMARK    3  A    between atoms: C_6  and  C_7
REMARK    4  A    between atoms: C_7  and  O_8
REMARK    5  A    between atoms: O_8  and  C_9
REMARK    6  A    between atoms: C_13  and  C_14
REMARK    7  A    between atoms: C_14  and  C_15
REMARK    8  A    between atoms: C_14  and  C_16
REMARK    9  A    between atoms: C_14  and  C_17
REMARK   10  A    between atoms: C_17  and  O_18
REMARK   11  A    between atoms: O_18  and  C_19
REMARK   12  A    between atoms: C_22  and  C_23
REMARK   13  A    between atoms: C_23  and  C_24
REMARK   14  A    between atoms: C_23  and  C_25
REMARK   15  A    between atoms: C_25  and  O_26
REMARK   16  A    between atoms: C_30  and  C_31
REMARK                            x       y       z     vdW  Elec       q    Type
REMARK                         _______ _______ _______ _____ _____    ______ ____
ROOT
ATOM      1  C   UNL     1      47.561   6.568  13.433  0.00  0.00    +0.000 A 
ATOM      2  C   UNL     1      47.172   7.884  13.233  0.00  0.00    +0.000 A 
ATOM      3  N   UNL     1      45.947   8.251  12.815  0.00  0.00    +0.000 NA
ATOM      4  C   UNL     1      45.072   7.254  12.547  0.00  0.00    +0.000 A 
ATOM      5  C   UNL     1      45.354   5.888  12.649  0.00  0.00    +0.000 A 
ATOM      6  C   UNL     1      46.646   5.566  13.104  0.00  0.00    +0.000 A 
ENDROOT
BRANCH   5   7
ATOM      7  C   UNL     1      44.327   4.800  12.292  0.00  0.00    +0.000 C 
ATOM      8  C   UNL     1      44.970   3.406  12.463  0.00  0.00    +0.000 C 
ATOM      9  C   UNL     1      43.113   4.909  13.245  0.00  0.00    +0.000 C 
BRANCH   7  10
ATOM     10  C   UNL     1      43.759   4.904  10.840  0.00  0.00    +0.000 C 
BRANCH  10  11
ATOM     11  O   UNL     1      43.660   3.609  10.233  0.00  0.00    +0.000 OA
BRANCH  11  12
ATOM     12  C   UNL     1      44.569   3.332   9.262  0.00  0.00    +0.000 C 
ATOM     13  C   UNL     1      45.252   4.425   8.641  0.00  0.00    +0.000 C 
ATOM     14  N   UNL     1      46.112   3.944   7.690  0.00  0.00    +0.000 NA
ATOM     15  C   UNL     1      45.965   2.646   7.755  0.00  0.00    +0.000 C 
ATOM     16  C   UNL     1      44.976   2.174   8.737  0.00  0.00    +0.000 C 
BRANCH  15  17
ATOM     17  C   UNL     1      46.739   1.678   6.893  0.00  0.00    +0.000 C 
ATOM     18  C   UNL     1      46.867   0.337   7.610  0.00  0.00    +0.000 C 
BRANCH  17  19
ATOM     19  C   UNL     1      48.099   2.284   6.541  0.00  0.00    +0.000 C 
BRANCH  19  20
ATOM     20  O   UNL     1      48.617   1.776   5.319  0.00  0.00    +0.000 OA
ATOM     21  H   UNL     1      49.094   2.513   4.881  0.00  0.00    +0.000 HD
ENDBRANCH  19  20
ENDBRANCH  17  19
ENDBRANCH  15  17
ENDBRANCH  11  12
ENDBRANCH  10  11
ENDBRANCH   7  10
ENDBRANCH   5   7
BRANCH   1  22
ATOM     22  O   UNL     1      48.770   6.165  13.932  0.00  0.00    +0.000 OA
BRANCH  22  23
ATOM     23  C   UNL     1      49.298   7.018  14.961  0.00  0.00    +0.000 C 
BRANCH  23  27
ATOM     24  C   UNL     1      48.825   5.196  18.746  0.00  0.00    +0.000 A 
ATOM     25  C   UNL     1      48.603   6.547  18.537  0.00  0.00    +0.000 A 
ATOM     26  N   UNL     1      48.745   7.165  17.349  0.00  0.00    +0.000 NA
ATOM     27  C   UNL     1      49.128   6.387  16.322  0.00  0.00    +0.000 A 
ATOM     28  N   UNL     1      49.334   5.058  16.409  0.00  0.00    +0.000 NA
ATOM     29  C   UNL     1      49.172   4.473  17.615  0.00  0.00    +0.000 A 
ATOM     30  C   UNL     1      49.426   2.995  17.645  0.00  0.00    +0.000 C 
BRANCH  24  32
ATOM     31  C   UNL     1      49.879   4.877  21.010  0.00  0.00    +0.000 C 
ATOM     32  C   UNL     1      48.683   4.597  20.115  0.00  0.00    +0.000 C 
ENDBRANCH  24  32
ENDBRANCH  23  27
ENDBRANCH  22  23
ENDBRANCH   1  22
TORSDOF 11
ENDMDL
MODEL 5
REMARK VINA RESULT:    -6.764      1.594      2.139
REMARK INTER + INTRA:         -12.067
REMARK INTER:                 -10.945
REMARK INTRA:                  -1.122
REMARK UNBOUND:                -1.151
REMARK  Name = 
REMARK  16 active torsions:
REMARK  status: ('A' for Active; 'I' for Inactive)
REMARK    1  A    between atoms: C_1  and  C_2
REMARK    2  A    between atoms: C_2  and  C_3
REMARK    3  A    between atoms: C_6  and  C_7
REMARK    4  A    between atoms: C_7  and  O_8
REMARK    5  A    between atoms: O_8  and  C_9
REMARK    6  A    between atoms: C_13  and  C_14
REMARK    7  A    between atoms: C_14  and  C_15
REMARK    8  A    between atoms: C_14  and  C_16
REMARK    9  A    between atoms: C_14  and  C_17
REMARK   10  A    between atoms: C_17  and  O_18
REMARK   11  A    between atoms: O_18  and  C_19
REMARK   12  A    between atoms: C_22  and  C_23
REMARK   13  A    between atoms: C_23  and  C_24
REMARK   14  A    between atoms: C_23  and  C_25
REMARK   15  A    between atoms: C_25  and  O_26
REMARK   16  A    between atoms: C_30  and  C_31
REMARK                            x       y       z     vdW  Elec       q    Type
REMARK                         _______ _______ _______ _____ _____    ______ ____
ROOT
ATOM      1  C   UNL     1      47.317   5.367  13.363  0.00  0.00    +0.000 A 
ATOM      2  C   UNL     1      47.205   4.036  13.735  0.00  0.00    +0.000 A 
ATOM      3  N   UNL     1      46.141   3.262  13.450  0.00  0.00    +0.000 NA
ATOM      4  C   UNL     1      45.119   3.854  12.790  0.00  0.00    +0.000 A 
ATOM      5  C   UNL     1      45.079   5.199  12.410  0.00  0.00    +0.000 A 
ATOM      6  C   UNL     1      46.224   5.954  12.722  0.00  0.00    +0.000 A 
ENDROOT
BRANCH   5   7
ATOM      7  C   UNL     1      43.868   5.823  11.695  0.00  0.00    +0.000 C 
ATOM      8  C   UNL     1      42.573   5.445  12.446  0.00  0.00    +0.000 C 
ATOM      9  C   UNL     1      44.012   7.364  11.695  0.00  0.00    +0.000 C 
BRANCH   7  10
ATOM     10  C   UNL     1      43.712   5.394  10.201  0.00  0.00    +0.000 C 
BRANCH  10  11
ATOM     11  O   UNL     1      43.938   3.988  10.043  0.00  0.00    +0.000 OA
BRANCH  11  12
ATOM     12  C   UNL     1      44.791   3.627   9.048  0.00  0.00    +0.000 C 
ATOM     13  C   UNL     1      45.657   4.626   8.503  0.00  0.00    +0.000 C 
ATOM     14  N   UNL     1      46.425   4.072   7.513  0.00  0.00    +0.000 NA
ATOM     15  C   UNL     1      46.054   2.819   7.486  0.00  0.00    +0.000 C 
ATOM     16  C   UNL     1      44.992   2.456   8.439  0.00  0.00    +0.000 C 
BRANCH  15  17
ATOM     17  C   UNL     1      46.652   1.795   6.552  0.00  0.00    +0.000 C 
ATOM     18  C   UNL     1      47.172   0.605   7.355  0.00  0.00    +0.000 C 
BRANCH  17  19
ATOM     19  C   UNL     1      47.746   2.452   5.708  0.00  0.00    +0.000 C 
BRANCH  19  20
ATOM     20  O   UNL     1      48.945   2.659   6.442  0.00  0.00    +0.000 OA
ATOM     21  H   UNL     1      49.605   2.019   6.100  0.00  0.00    +0.000 HD
ENDBRANCH  19  20
ENDBRANCH  17  19
ENDBRANCH  15  17
ENDBRANCH  11  12
ENDBRANCH  10  11
ENDBRANCH   7  10
ENDBRANCH   5   7
BRANCH   1  22
ATOM     22  O   UNL     1      48.416   6.157  13.567  0.00  0.00    +0.000 OA
BRANCH  22  23
ATOM     23  C   UNL     1      48.363   6.943  14.769  0.00  0.00    +0.000 C 
BRANCH  23  27
ATOM     24  C   UNL     1      50.929   5.368  17.737  0.00  0.00    +0.000 A 
ATOM     25  C   UNL     1      51.391   6.144  16.687  0.00  0.00    +0.000 A 
ATOM     26  N   UNL     1      50.608   6.662  15.722  0.00  0.00    +0.000 NA
ATOM     27  C   UNL     1      49.297   6.386  15.817  0.00  0.00    +0.000 A 
ATOM     28  N   UNL     1      48.738   5.672  16.815  0.00  0.00    +0.000 NA
ATOM     29  C   UNL     1      49.555   5.178  17.770  0.00  0.00    +0.000 A 
ATOM     30  C   UNL     1      48.873   4.387  18.845  0.00  0.00    +0.000 C 
BRANCH  24  32
ATOM     31  C   UNL     1      52.499   3.482  18.299  0.00  0.00    +0.000 C 
ATOM     32  C   UNL     1      51.879   4.796  18.747  0.00  0.00    +0.000 C 
ENDBRANCH  24  32
ENDBRANCH  23  27
ENDBRANCH  22  23
ENDBRANCH   1  22
TORSDOF 11
ENDMDL
MODEL 6
REMARK VINA RESULT:    -6.759      3.029      8.413
REMARK INTER + INTRA:         -12.059
REMARK INTER:                  -9.755
REMARK INTRA:                  -2.304
REMARK UNBOUND:                -1.151
REMARK  Name = 
REMARK  16 active torsions:
REMARK  status: ('A' for Active; 'I' for Inactive)
REMARK    1  A    between atoms: C_1  and  C_2
REMARK    2  A    between atoms: C_2  and  C_3
REMARK    3  A    between atoms: C_6  and  C_7
REMARK    4  A    between atoms: C_7  and  O_8
REMARK    5  A    between atoms: O_8  and  C_9
REMARK    6  A    between atoms: C_13  and  C_14
REMARK    7  A    between atoms: C_14  and  C_15
REMARK    8  A    between atoms: C_14  and  C_16
REMARK    9  A    between atoms: C_14  and  C_17
REMARK   10  A    between atoms: C_17  and  O_18
REMARK   11  A    between atoms: O_18  and  C_19
REMARK   12  A    between atoms: C_22  and  C_23
REMARK   13  A    between atoms: C_23  and  C_24
REMARK   14  A    between atoms: C_23  and  C_25
REMARK   15  A    between atoms: C_25  and  O_26
REMARK   16  A    between atoms: C_30  and  C_31
REMARK                            x       y       z     vdW  Elec       q    Type
REMARK                         _______ _______ _______ _____ _____    ______ ____
ROOT
ATOM      1  C   UNL     1      48.132   3.471  16.366  0.00  0.00    +0.000 A 
ATOM      2  C   UNL     1      48.691   2.207  16.255  0.00  0.00    +0.000 A 
ATOM      3  N   UNL     1      49.874   1.857  16.792  0.00  0.00    +0.000 NA
ATOM      4  C   UNL     1      50.555   2.827  17.445  0.00  0.00    +0.000 A 
ATOM      5  C   UNL     1      50.135   4.154  17.578  0.00  0.00    +0.000 A 
ATOM      6  C   UNL     1      48.885   4.457  17.008  0.00  0.00    +0.000 A 
ENDROOT
BRANCH   5   7
ATOM      7  C   UNL     1      50.975   5.222  18.299  0.00  0.00    +0.000 C 
ATOM      8  C   UNL     1      50.972   4.943  19.819  0.00  0.00    +0.000 C 
ATOM      9  C   UNL     1      52.433   5.160  17.785  0.00  0.00    +0.000 C 
BRANCH   7  10
ATOM     10  C   UNL     1      50.488   6.688  18.069  0.00  0.00    +0.000 C 
BRANCH  10  11
ATOM     11  O   UNL     1      51.006   7.216  16.841  0.00  0.00    +0.000 OA
BRANCH  11  12
ATOM     12  C   UNL     1      50.084   7.608  15.922  0.00  0.00    +0.000 C 
ATOM     13  C   UNL     1      49.079   8.542  16.327  0.00  0.00    +0.000 C 
ATOM     14  N   UNL     1      48.247   8.801  15.270  0.00  0.00    +0.000 NA
ATOM     15  C   UNL     1      48.738   8.082  14.294  0.00  0.00    +0.000 C 
ATOM     16  C   UNL     1      49.917   7.273  14.640  0.00  0.00    +0.000 C 
BRANCH  15  17
ATOM     17  C   UNL     1      48.154   8.063  12.902  0.00  0.00    +0.000 C 
ATOM     18  C   UNL     1      49.263   8.273  11.874  0.00  0.00    +0.000 C 
BRANCH  17  19
ATOM     19  C   UNL     1      47.052   9.119  12.795  0.00  0.00    +0.000 C 
BRANCH  19  20
ATOM     20  O   UNL     1      45.901   8.778  13.555  0.00  0.00    +0.000 OA
ATOM     21  H   UNL     1      46.210   8.557  14.460  0.00  0.00    +0.000 HD
ENDBRANCH  19  20
ENDBRANCH  17  19
ENDBRANCH  15  17
ENDBRANCH  11  12
ENDBRANCH  10  11
ENDBRANCH   7  10
ENDBRANCH   5   7
BRANCH   1  22
ATOM     22  O   UNL     1      46.898   3.837  15.901  0.00  0.00    +0.000 OA
BRANCH  22  23
ATOM     23  C   UNL     1      46.913   4.962  15.007  0.00  0.00    +0.000 C 
BRANCH  23  27
ATOM     24  C   UNL     1      44.709   4.172  11.488  0.00  0.00    +0.000 A 
ATOM     25  C   UNL     1      45.392   3.184  12.177  0.00  0.00    +0.000 A 
ATOM     26  N   UNL     1      46.107   3.395  13.298  0.00  0.00    +0.000 NA
ATOM     27  C   UNL     1      46.135   4.660  13.749  0.00  0.00    +0.000 A 
ATOM     28  N   UNL     1      45.477   5.689  13.177  0.00  0.00    +0.000 NA
ATOM     29  C   UNL     1      44.763   5.435  12.059  0.00  0.00    +0.000 A 
ATOM     30  C   UNL     1      44.064   6.622  11.467  0.00  0.00    +0.000 C 
BRANCH  24  32
ATOM     31  C   UNL     1      44.489   2.604   9.530  0.00  0.00    +0.000 C 
ATOM     32  C   UNL     1      43.971   3.855  10.220  0.00  0.00    +0.000 C 
ENDBRANCH  24  32
ENDBRANCH  23  27
ENDBRANCH  22  23
ENDBRANCH   1  22
TORSDOF 11
ENDMDL
MODEL 7
REMARK VINA RESULT:    -6.491      2.235      3.353
REMARK INTER + INTRA:         -11.627
REMARK INTER:                 -10.404
REMARK INTRA:                  -1.222
REMARK UNBOUND:                -1.151
REMARK  Name = 
REMARK  16 active torsions:
REMARK  status: ('A' for Active; 'I' for Inactive)
REMARK    1  A    between atoms: C_1  and  C_2
REMARK    2  A    between atoms: C_2  and  C_3
REMARK    3  A    between atoms: C_6  and  C_7
REMARK    4  A    between atoms: C_7  and  O_8
REMARK    5  A    between atoms: O_8  and  C_9
REMARK    6  A    between atoms: C_13  and  C_14
REMARK    7  A    between atoms: C_14  and  C_15
REMARK    8  A    between atoms: C_14  and  C_16
REMARK    9  A    between atoms: C_14  and  C_17
REMARK   10  A    between atoms: C_17  and  O_18
REMARK   11  A    between atoms: O_18  and  C_19
REMARK   12  A    between atoms: C_22  and  C_23
REMARK   13  A    between atoms: C_23  and  C_24
REMARK   14  A    between atoms: C_23  and  C_25
REMARK   15  A    between atoms: C_25  and  O_26
REMARK   16  A    between atoms: C_30  and  C_31
REMARK                            x       y       z     vdW  Elec       q    Type
REMARK                         _______ _______ _______ _____ _____    ______ ____
ROOT
ATOM      1  C   UNL     1      46.448   8.696  12.768  0.00  0.00    +0.000 A 
ATOM      2  C   UNL     1      45.728   9.579  11.979  0.00  0.00    +0.000 A 
ATOM      3  N   UNL     1      44.617   9.244  11.297  0.00  0.00    +0.000 NA
ATOM      4  C   UNL     1      44.223   7.953  11.375  0.00  0.00    +0.000 A 
ATOM      5  C   UNL     1      44.890   6.949  12.084  0.00  0.00    +0.000 A 
ATOM      6  C   UNL     1      46.036   7.362  12.789  0.00  0.00    +0.000 A 
ENDROOT
BRANCH   5   7
ATOM      7  C   UNL     1      44.412   5.487  12.102  0.00  0.00    +0.000 C 
ATOM      8  C   UNL     1      45.540   4.582  12.645  0.00  0.00    +0.000 C 
ATOM      9  C   UNL     1      43.182   5.362  13.031  0.00  0.00    +0.000 C 
BRANCH   7  10
ATOM     10  C   UNL     1      43.971   4.938  10.708  0.00  0.00    +0.000 C 
BRANCH  10  11
ATOM     11  O   UNL     1      44.430   3.594  10.515  0.00  0.00    +0.000 OA
BRANCH  11  12
ATOM     12  C   UNL     1      45.075   3.344   9.345  0.00  0.00    +0.000 C 
ATOM     13  C   UNL     1      45.531   4.458   8.571  0.00  0.00    +0.000 C 
ATOM     14  N   UNL     1      46.142   4.001   7.433  0.00  0.00    +0.000 NA
ATOM     15  C   UNL     1      46.071   2.700   7.534  0.00  0.00    +0.000 C 
ATOM     16  C   UNL     1      45.384   2.198   8.734  0.00  0.00    +0.000 C 
BRANCH  15  17
ATOM     17  C   UNL     1      46.642   1.755   6.503  0.00  0.00    +0.000 C 
ATOM     18  C   UNL     1      47.190   0.509   7.194  0.00  0.00    +0.000 C 
BRANCH  17  19
ATOM     19  C   UNL     1      47.706   2.481   5.679  0.00  0.00    +0.000 C 
BRANCH  19  20
ATOM     20  O   UNL     1      48.847   2.828   6.453  0.00  0.00    +0.000 OA
ATOM     21  H   UNL     1      49.014   2.081   7.067  0.00  0.00    +0.000 HD
ENDBRANCH  19  20
ENDBRANCH  17  19
ENDBRANCH  15  17
ENDBRANCH  11  12
ENDBRANCH  10  11
ENDBRANCH   7  10
ENDBRANCH   5   7
BRANCH   1  22
ATOM     22  O   UNL     1      47.533   9.022  13.536  0.00  0.00    +0.000 OA
BRANCH  22  23
ATOM     23  C   UNL     1      48.735   8.311  13.195  0.00  0.00    +0.000 C 
BRANCH  23  27
ATOM     24  C   UNL     1      50.277   6.317  16.588  0.00  0.00    +0.000 A 
ATOM     25  C   UNL     1      50.981   7.305  15.920  0.00  0.00    +0.000 A 
ATOM     26  N   UNL     1      50.527   7.962  14.836  0.00  0.00    +0.000 NA
ATOM     27  C   UNL     1      49.305   7.608  14.402  0.00  0.00    +0.000 A 
ATOM     28  N   UNL     1      48.522   6.686  14.999  0.00  0.00    +0.000 NA
ATOM     29  C   UNL     1      49.009   6.057  16.089  0.00  0.00    +0.000 A 
ATOM     30  C   UNL     1      48.094   5.038  16.699  0.00  0.00    +0.000 C 
BRANCH  24  32
ATOM     31  C   UNL     1      51.524   6.555  18.763  0.00  0.00    +0.000 C 
ATOM     32  C   UNL     1      50.879   5.607  17.765  0.00  0.00    +0.000 C 
ENDBRANCH  24  32
ENDBRANCH  23  27
ENDBRANCH  22  23
ENDBRANCH   1  22
TORSDOF 11
ENDMDL
MODEL 8
REMARK VINA RESULT:    -6.472      2.558      8.945
REMARK INTER + INTRA:         -11.596
REMARK INTER:                 -10.139
REMARK INTRA:                  -1.457
REMARK UNBOUND:                -1.151
REMARK  Name = 
REMARK  16 active torsions:
REMARK  status: ('A' for Active; 'I' for Inactive)
REMARK    1  A    between atoms: C_1  and  C_2
REMARK    2  A    between atoms: C_2  and  C_3
REMARK    3  A    between atoms: C_6  and  C_7
REMARK    4  A    between atoms: C_7  and  O_8
REMARK    5  A    between atoms: O_8  and  C_9
REMARK    6  A    between atoms: C_13  and  C_14
REMARK    7  A    between atoms: C_14  and  C_15
REMARK    8  A    between atoms: C_14  and  C_16
REMARK    9  A    between atoms: C_14  and  C_17
REMARK   10  A    between atoms: C_17  and  O_18
REMARK   11  A    between atoms: O_18  and  C_19
REMARK   12  A    between atoms: C_22  and  C_23
REMARK   13  A    between atoms: C_23  and  C_24
REMARK   14  A    between atoms: C_23  and  C_25
REMARK   15  A    between atoms: C_25  and  O_26
REMARK   16  A    between atoms: C_30  and  C_31
REMARK                            x       y       z     vdW  Elec       q    Type
REMARK                         _______ _______ _______ _____ _____    ______ ____
ROOT
ATOM      1  C   UNL     1      44.891   4.709  12.236  0.00  0.00    +0.000 A 
ATOM      2  C   UNL     1      45.672   3.788  12.916  0.00  0.00    +0.000 A 
ATOM      3  N   UNL     1      46.817   4.095  13.553  0.00  0.00    +0.000 NA
ATOM      4  C   UNL     1      47.225   5.383  13.479  0.00  0.00    +0.000 A 
ATOM      5  C   UNL     1      46.565   6.397  12.779  0.00  0.00    +0.000 A 
ATOM      6  C   UNL     1      45.368   6.019  12.145  0.00  0.00    +0.000 A 
ENDROOT
BRANCH   5   7
ATOM      7  C   UNL     1      47.103   7.837  12.700  0.00  0.00    +0.000 C 
ATOM      8  C   UNL     1      48.417   7.854  11.889  0.00  0.00    +0.000 C 
ATOM      9  C   UNL     1      46.064   8.732  11.984  0.00  0.00    +0.000 C 
BRANCH   7  10
ATOM     10  C   UNL     1      47.374   8.499  14.089  0.00  0.00    +0.000 C 
BRANCH  10  11
ATOM     11  O   UNL     1      48.750   8.359  14.465  0.00  0.00    +0.000 OA
BRANCH  11  12
ATOM     12  C   UNL     1      48.984   7.811  15.687  0.00  0.00    +0.000 C 
ATOM     13  C   UNL     1      48.627   8.567  16.848  0.00  0.00    +0.000 C 
ATOM     14  N   UNL     1      48.949   7.853  17.972  0.00  0.00    +0.000 NA
ATOM     15  C   UNL     1      49.447   6.737  17.509  0.00  0.00    +0.000 C 
ATOM     16  C   UNL     1      49.516   6.639  16.042  0.00  0.00    +0.000 C 
BRANCH  15  17
ATOM     17  C   UNL     1      49.928   5.612  18.393  0.00  0.00    +0.000 C 
ATOM     18  C   UNL     1      50.542   4.508  17.536  0.00  0.00    +0.000 C 
BRANCH  17  19
ATOM     19  C   UNL     1      48.767   5.106  19.252  0.00  0.00    +0.000 C 
BRANCH  19  20
ATOM     20  O   UNL     1      48.554   5.913  20.402  0.00  0.00    +0.000 OA
ATOM     21  H   UNL     1      49.414   6.330  20.623  0.00  0.00    +0.000 HD
ENDBRANCH  19  20
ENDBRANCH  17  19
ENDBRANCH  15  17
ENDBRANCH  11  12
ENDBRANCH  10  11
ENDBRANCH   7  10
ENDBRANCH   5   7
BRANCH   1  22
ATOM     22  O   UNL     1      43.684   4.445  11.648  0.00  0.00    +0.000 OA
BRANCH  22  23
ATOM     23  C   UNL     1      43.635   4.743  10.242  0.00  0.00    +0.000 C 
BRANCH  23  27
ATOM     24  C   UNL     1      46.093   2.121   8.016  0.00  0.00    +0.000 A 
ATOM     25  C   UNL     1      45.176   1.669   8.949  0.00  0.00    +0.000 A 
ATOM     26  N   UNL     1      44.377   2.471   9.680  0.00  0.00    +0.000 NA
ATOM     27  C   UNL     1      44.507   3.790   9.460  0.00  0.00    +0.000 A 
ATOM     28  N   UNL     1      45.342   4.333   8.551  0.00  0.00    +0.000 NA
ATOM     29  C   UNL     1      46.119   3.496   7.831  0.00  0.00    +0.000 A 
ATOM     30  C   UNL     1      47.031   4.163   6.845  0.00  0.00    +0.000 C 
BRANCH  24  32
ATOM     31  C   UNL     1      46.707  -0.292   7.644  0.00  0.00    +0.000 C 
ATOM     32  C   UNL     1      46.975   1.158   7.276  0.00  0.00    +0.000 C 
ENDBRANCH  24  32
ENDBRANCH  23  27
ENDBRANCH  22  23
ENDBRANCH   1  22
TORSDOF 11
ENDMDL
MODEL 9
REMARK VINA RESULT:    -6.352      3.165      8.337
REMARK INTER + INTRA:         -11.402
REMARK INTER:                  -9.216
REMARK INTRA:                  -2.186
REMARK UNBOUND:                -1.151
REMARK  Name = 
REMARK  16 active torsions:
REMARK  status: ('A' for Active; 'I' for Inactive)
REMARK    1  A    between atoms: C_1  and  C_2
REMARK    2  A    between atoms: C_2  and  C_3
REMARK    3  A    between atoms: C_6  and  C_7
REMARK    4  A    between atoms: C_7  and  O_8
REMARK    5  A    between atoms: O_8  and  C_9
REMARK    6  A    between atoms: C_13  and  C_14
REMARK    7  A    between atoms: C_14  and  C_15
REMARK    8  A    between atoms: C_14  and  C_16
REMARK    9  A    between atoms: C_14  and  C_17
REMARK   10  A    between atoms: C_17  and  O_18
REMARK   11  A    between atoms: O_18  and  C_19
REMARK   12  A    between atoms: C_22  and  C_23
REMARK   13  A    between atoms: C_23  and  C_24
REMARK   14  A    between atoms: C_23  and  C_25
REMARK   15  A    between atoms: C_25  and  O_26
REMARK   16  A    between atoms: C_30  and  C_31
REMARK                            x       y       z     vdW  Elec       q    Type
REMARK                         _______ _______ _______ _____ _____    ______ ____
ROOT
ATOM      1  C   UNL     1      47.589   4.144  16.796  0.00  0.00    +0.000 A 
ATOM      2  C   UNL     1      47.880   3.094  17.653  0.00  0.00    +0.000 A 
ATOM      3  N   UNL     1      48.465   3.244  18.856  0.00  0.00    +0.000 NA
ATOM      4  C   UNL     1      48.812   4.504  19.209  0.00  0.00    +0.000 A 
ATOM      5  C   UNL     1      48.630   5.640  18.416  0.00  0.00    +0.000 A 
ATOM      6  C   UNL     1      48.002   5.423  17.176  0.00  0.00    +0.000 A 
ENDROOT
BRANCH   5   7
ATOM      7  C   UNL     1      49.083   7.043  18.859  0.00  0.00    +0.000 C 
ATOM      8  C   UNL     1      47.845   7.938  19.084  0.00  0.00    +0.000 C 
ATOM      9  C   UNL     1      49.865   6.931  20.189  0.00  0.00    +0.000 C 
BRANCH   7  10
ATOM     10  C   UNL     1      50.031   7.762  17.847  0.00  0.00    +0.000 C 
BRANCH  10  11
ATOM     11  O   UNL     1      49.385   8.894  17.252  0.00  0.00    +0.000 OA
BRANCH  11  12
ATOM     12  C   UNL     1      49.275   8.878  15.898  0.00  0.00    +0.000 C 
ATOM     13  C   UNL     1      47.969   8.751  15.327  0.00  0.00    +0.000 C 
ATOM     14  N   UNL     1      48.069   8.745  13.960  0.00  0.00    +0.000 NA
ATOM     15  C   UNL     1      49.349   8.880  13.734  0.00  0.00    +0.000 C 
ATOM     16  C   UNL     1      50.196   8.959  14.935  0.00  0.00    +0.000 C 
BRANCH  15  17
ATOM     17  C   UNL     1      49.945   8.949  12.348  0.00  0.00    +0.000 C 
ATOM     18  C   UNL     1      49.363  10.142  11.595  0.00  0.00    +0.000 C 
BRANCH  17  19
ATOM     19  C   UNL     1      49.702   7.624  11.622  0.00  0.00    +0.000 C 
BRANCH  19  20
ATOM     20  O   UNL     1      49.585   6.529  12.519  0.00  0.00    +0.000 OA
ATOM     21  H   UNL     1      49.100   6.854  13.307  0.00  0.00    +0.000 HD
ENDBRANCH  19  20
ENDBRANCH  17  19
ENDBRANCH  15  17
ENDBRANCH  11  12
ENDBRANCH  10  11
ENDBRANCH   7  10
ENDBRANCH   5   7
BRANCH   1  22
ATOM     22  O   UNL     1      46.924   4.035  15.605  0.00  0.00    +0.000 OA
BRANCH  22  23
ATOM     23  C   UNL     1      47.284   5.032  14.634  0.00  0.00    +0.000 C 
BRANCH  23  27
ATOM     24  C   UNL     1      44.802   4.700  11.228  0.00  0.00    +0.000 A 
ATOM     25  C   UNL     1      45.805   5.650  11.329  0.00  0.00    +0.000 A 
ATOM     26  N   UNL     1      46.614   5.790  12.397  0.00  0.00    +0.000 NA
ATOM     27  C   UNL     1      46.405   4.933  13.410  0.00  0.00    +0.000 A 
ATOM     28  N   UNL     1      45.482   3.950  13.400  0.00  0.00    +0.000 NA
ATOM     29  C   UNL     1      44.697   3.836  12.307  0.00  0.00    +0.000 A 
ATOM     30  C   UNL     1      43.686   2.730  12.363  0.00  0.00    +0.000 C 
BRANCH  24  32
ATOM     31  C   UNL     1      44.627   4.090   8.791  0.00  0.00    +0.000 C 
ATOM     32  C   UNL     1      43.918   4.643  10.017  0.00  0.00    +0.000 C 
ENDBRANCH  24  32
ENDBRANCH  23  27
ENDBRANCH  22  23
ENDBRANCH   1  22
TORSDOF 11
ENDMDL
