MODEL 1
REMARK VINA RESULT:    -7.865      0.000      0.000
REMARK INTER + INTRA:         -13.083
REMARK INTER:                 -11.543
REMARK INTRA:                  -1.540
REMARK UNBOUND:                -1.540
REMARK  Name = 
REMARK  9 active torsions:
REMARK  status: ('A' for Active; 'I' for Inactive)
REMARK    1  A    between atoms: C_1  and  C_2
REMARK    2  A    between atoms: C_2  and  C_3
REMARK    3  A    between atoms: C_3  and  N_4
REMARK    4  A    between atoms: C_3  and  C_26
REMARK    5  A    between atoms: N_4  and  C_5
REMARK    6  A    between atoms: C_5  and  C_6
REMARK    7  A    between atoms: C_10  and  C_11
REMARK    8  A    between atoms: C_11  and  N_12
REMARK    9  A    between atoms: C_13  and  C_15
REMARK                            x       y       z     vdW  Elec       q    Type
REMARK                         _______ _______ _______ _____ _____    ______ ____
ROOT
ATOM      1  C   UNL     1      45.416   7.467  11.750  0.00  0.00    +0.000 A 
ATOM      2  C   UNL     1      45.051   8.820  11.807  0.00  0.00    +0.000 A 
ATOM      3  C   UNL     1      46.004   9.802  12.075  0.00  0.00    +0.000 A 
ATOM      4  C   UNL     1      47.326   9.440  12.324  0.00  0.00    +0.000 A 
ATOM      5  C   UNL     1      47.702   8.090  12.323  0.00  0.00    +0.000 A 
ATOM      6  C   UNL     1      46.750   7.113  12.000  0.00  0.00    +0.000 A 
ENDROOT
BRANCH   1   7
ATOM      7  C   UNL     1      44.384   6.417  11.403  0.00  0.00    +0.000 C 
BRANCH   7   8
ATOM      8  N   UNL     1      44.717   5.714  10.170  0.00  0.00    +0.000 NA
ATOM      9  H   UNL     1      44.141   6.113   9.426  0.00  0.00    +0.000 HD
BRANCH   8  10
ATOM     10  C   UNL     1      44.418   4.265  10.188  0.00  0.00    +0.000 C 
BRANCH  10  11
ATOM     11  C   UNL     1      45.256   3.576   9.092  0.00  0.00    +0.000 A 
ATOM     12  C   UNL     1      45.428   2.187   9.110  0.00  0.00    +0.000 A 
ATOM     13  C   UNL     1      46.178   1.578   8.110  0.00  0.00    +0.000 A 
ATOM     14  C   UNL     1      46.759   2.364   7.128  0.00  0.00    +0.000 A 
ATOM     15  C   UNL     1      46.562   3.735   7.188  0.00  0.00    +0.000 A 
ATOM     16  N   UNL     1      45.829   4.357   8.140  0.00  0.00    +0.000 NA
ENDBRANCH  10  11
BRANCH  10  18
ATOM     17  C   UNL     1      43.497   2.831  12.185  0.00  0.00    +0.000 C 
ATOM     18  C   UNL     1      44.682   3.514  11.520  0.00  0.00    +0.000 C 
ENDBRANCH  10  18
ENDBRANCH   8  10
ENDBRANCH   7   8
ENDBRANCH   1   7
BRANCH   5  19
ATOM     19  C   UNL     1      49.119   7.693  12.633  0.00  0.00    +0.000 C 
BRANCH  19  20
ATOM     20  N   UNL     1      49.174   6.860  13.804  0.00  0.00    +0.000 N 
ATOM     21  C   UNL     1      49.280   7.407  15.056  0.00  0.00    +0.000 C 
ATOM     22  O   UNL     1      49.279   8.623  15.236  0.00  0.00    +0.000 OA
ATOM     23  H   UNL     1      49.402   5.882  13.660  0.00  0.00    +0.000 HD
BRANCH  21  24
ATOM     24  C   UNL     1      49.330   6.463  16.178  0.00  0.00    +0.000 A 
ATOM     25  C   UNL     1      50.274   6.646  17.180  0.00  0.00    +0.000 A 
ATOM     26  S   UNL     1      50.165   5.498  18.436  0.00  0.00    +0.000 S 
ATOM     27  C   UNL     1      48.887   4.688  17.660  0.00  0.00    +0.000 A 
ATOM     28  N   UNL     1      48.331   3.574  18.207  0.00  0.00    +0.000 NA
ATOM     29  C   UNL     1      47.385   3.048  17.498  0.00  0.00    +0.000 A 
ATOM     30  N   UNL     1      46.950   3.534  16.295  0.00  0.00    +0.000 N 
ATOM     31  C   UNL     1      47.468   4.661  15.714  0.00  0.00    +0.000 A 
ATOM     32  O   UNL     1      47.034   5.088  14.647  0.00  0.00    +0.000 OA
ATOM     33  C   UNL     1      48.533   5.296  16.466  0.00  0.00    +0.000 A 
ATOM     34  H   UNL     1      46.198   3.078  15.792  0.00  0.00    +0.000 HD
ENDBRANCH  21  24
ENDBRANCH  19  20
ENDBRANCH   5  19
TORSDOF 8
ENDMDL
MODEL 2
REMARK VINA RESULT:    -7.836      2.126      3.171
REMARK INTER + INTRA:         -13.041
REMARK INTER:                 -12.055
REMARK INTRA:                  -0.987
REMARK UNBOUND:                -1.540
REMARK  Name = 
REMARK  9 active torsions:
REMARK  status: ('A' for Active; 'I' for Inactive)
REMARK    1  A    between atoms: C_1  and  C_2
REMARK    2  A    between atoms: C_2  and  C_3
REMARK    3  A    between atoms: C_3  and  N_4
REMARK    4  A    between atoms: C_3  and  C_26
REMARK    5  A    between atoms: N_4  and  C_5
REMARK    6  A    between atoms: C_5  and  C_6
REMARK    7  A    between atoms: C_10  and  C_11
REMARK    8  A    between atoms: C_11  and  N_12
REMARK    9  A    between atoms: C_13  and  C_15
REMARK                            x       y       z     vdW  Elec       q    Type
REMARK                         _______ _______ _______ _____ _____    ______ ____
ROOT
ATOM      1  C   UNL     1      46.221   6.236  11.659  0.00  0.00    +0.000 A 
ATOM      2  C   UNL     1      47.270   7.167  11.681  0.00  0.00    +0.000 A 
ATOM      3  C   UNL     1      48.229   7.132  12.692  0.00  0.00    +0.000 A 
ATOM      4  C   UNL     1      48.131   6.188  13.712  0.00  0.00    +0.000 A 
ATOM      5  C   UNL     1      47.063   5.282  13.738  0.00  0.00    +0.000 A 
ATOM      6  C   UNL     1      46.132   5.289  12.689  0.00  0.00    +0.000 A 
ENDROOT
BRANCH   1   7
ATOM      7  C   UNL     1      45.219   6.250  10.526  0.00  0.00    +0.000 C 
BRANCH   7   8
ATOM      8  N   UNL     1      45.673   5.459   9.388  0.00  0.00    +0.000 NA
ATOM      9  H   UNL     1      45.551   6.032   8.550  0.00  0.00    +0.000 HD
BRANCH   8  10
ATOM     10  C   UNL     1      44.902   4.219   9.153  0.00  0.00    +0.000 C 
BRANCH  10  11
ATOM     11  C   UNL     1      45.692   3.326   8.175  0.00  0.00    +0.000 A 
ATOM     12  C   UNL     1      45.913   1.978   8.479  0.00  0.00    +0.000 A 
ATOM     13  C   UNL     1      46.618   1.182   7.583  0.00  0.00    +0.000 A 
ATOM     14  C   UNL     1      47.106   1.748   6.416  0.00  0.00    +0.000 A 
ATOM     15  C   UNL     1      46.865   3.096   6.193  0.00  0.00    +0.000 A 
ATOM     16  N   UNL     1      46.173   3.894   7.039  0.00  0.00    +0.000 NA
ENDBRANCH  10  11
BRANCH  10  18
ATOM     17  C   UNL     1      43.244   3.637  11.105  0.00  0.00    +0.000 C 
ATOM     18  C   UNL     1      44.564   3.360  10.402  0.00  0.00    +0.000 C 
ENDBRANCH  10  18
ENDBRANCH   8  10
ENDBRANCH   7   8
ENDBRANCH   1   7
BRANCH   5  19
ATOM     19  C   UNL     1      46.931   4.290  14.861  0.00  0.00    +0.000 C 
BRANCH  19  20
ATOM     20  N   UNL     1      47.624   4.748  16.034  0.00  0.00    +0.000 N 
ATOM     21  C   UNL     1      47.341   4.227  17.270  0.00  0.00    +0.000 C 
ATOM     22  O   UNL     1      46.527   3.318  17.421  0.00  0.00    +0.000 OA
ATOM     23  H   UNL     1      48.117   5.631  15.961  0.00  0.00    +0.000 HD
BRANCH  21  24
ATOM     24  C   UNL     1      48.107   4.768  18.398  0.00  0.00    +0.000 A 
ATOM     25  C   UNL     1      47.482   5.616  19.302  0.00  0.00    +0.000 A 
ATOM     26  S   UNL     1      48.493   6.113  20.581  0.00  0.00    +0.000 S 
ATOM     27  C   UNL     1      49.815   5.252  19.945  0.00  0.00    +0.000 A 
ATOM     28  N   UNL     1      51.027   5.276  20.561  0.00  0.00    +0.000 NA
ATOM     29  C   UNL     1      51.946   4.597  19.954  0.00  0.00    +0.000 A 
ATOM     30  N   UNL     1      51.761   3.901  18.791  0.00  0.00    +0.000 N 
ATOM     31  C   UNL     1      50.556   3.834  18.144  0.00  0.00    +0.000 A 
ATOM     32  O   UNL     1      50.417   3.176  17.117  0.00  0.00    +0.000 OA
ATOM     33  C   UNL     1      49.485   4.578  18.781  0.00  0.00    +0.000 A 
ATOM     34  H   UNL     1      52.523   3.382  18.369  0.00  0.00    +0.000 HD
ENDBRANCH  21  24
ENDBRANCH  19  20
ENDBRANCH   5  19
TORSDOF 8
ENDMDL
MODEL 3
REMARK VINA RESULT:    -7.278      2.259      2.711
REMARK INTER + INTRA:         -12.222
REMARK INTER:                 -10.841
REMARK INTRA:                  -1.381
REMARK UNBOUND:                -1.540
REMARK  Name = 
REMARK  9 active torsions:
REMARK  status: ('A' for Active; 'I' for Inactive)
REMARK    1  A    between atoms: C_1  and  C_2
REMARK    2  A    between atoms: C_2  and  C_3
REMARK    3  A    between atoms: C_3  and  N_4
REMARK    4  A    between atoms: C_3  and  C_26
REMARK    5  A    between atoms: N_4  and  C_5
REMARK    6  A    between atoms: C_5  and  C_6
REMARK    7  A    between atoms: C_10  and  C_11
REMARK    8  A    between atoms: C_11  and  N_12
REMARK    9  A    between atoms: C_13  and  C_15
REMARK                            x       y       z     vdW  Elec       q    Type
REMARK                         _______ _______ _______ _____ _____    ______ ____
ROOT
ATOM      1  C   UNL     1      45.134   7.192  11.983  0.00  0.00    +0.000 A 
ATOM      2  C   UNL     1      45.073   8.585  11.832  0.00  0.00    +0.000 A 
ATOM      3  C   UNL     1      46.090   9.399  12.329  0.00  0.00    +0.000 A 
ATOM      4  C   UNL     1      47.162   8.832  13.013  0.00  0.00    +0.000 A 
ATOM      5  C   UNL     1      47.219   7.448  13.221  0.00  0.00    +0.000 A 
ATOM      6  C   UNL     1      46.219   6.632  12.671  0.00  0.00    +0.000 A 
ENDROOT
BRANCH   1   7
ATOM      7  C   UNL     1      44.052   6.316  11.390  0.00  0.00    +0.000 C 
BRANCH   7   8
ATOM      8  N   UNL     1      44.498   5.649  10.173  0.00  0.00    +0.000 NA
ATOM      9  H   UNL     1      43.931   6.008   9.402  0.00  0.00    +0.000 HD
BRANCH   8  10
ATOM     10  C   UNL     1      44.312   4.182  10.171  0.00  0.00    +0.000 C 
BRANCH  10  11
ATOM     11  C   UNL     1      45.219   3.571   9.082  0.00  0.00    +0.000 A 
ATOM     12  C   UNL     1      45.441   2.190   9.049  0.00  0.00    +0.000 A 
ATOM     13  C   UNL     1      46.253   1.652   8.056  0.00  0.00    +0.000 A 
ATOM     14  C   UNL     1      46.843   2.501   7.133  0.00  0.00    +0.000 A 
ATOM     15  C   UNL     1      46.593   3.861   7.243  0.00  0.00    +0.000 A 
ATOM     16  N   UNL     1      45.800   4.414   8.189  0.00  0.00    +0.000 NA
ENDBRANCH  10  11
BRANCH  10  18
ATOM     17  C   UNL     1      43.447   2.753  12.197  0.00  0.00    +0.000 C 
ATOM     18  C   UNL     1      44.613   3.439  11.500  0.00  0.00    +0.000 C 
ENDBRANCH  10  18
ENDBRANCH   8  10
ENDBRANCH   7   8
ENDBRANCH   1   7
BRANCH   5  19
ATOM     19  C   UNL     1      48.354   6.838  13.996  0.00  0.00    +0.000 C 
BRANCH  19  20
ATOM     20  N   UNL     1      48.066   6.826  15.404  0.00  0.00    +0.000 N 
ATOM     21  C   UNL     1      49.003   6.409  16.313  0.00  0.00    +0.000 C 
ATOM     22  O   UNL     1      50.137   6.079  15.973  0.00  0.00    +0.000 OA
ATOM     23  H   UNL     1      47.089   6.874  15.674  0.00  0.00    +0.000 HD
BRANCH  21  24
ATOM     24  C   UNL     1      48.602   6.437  17.724  0.00  0.00    +0.000 A 
ATOM     25  C   UNL     1      48.665   5.269  18.474  0.00  0.00    +0.000 A 
ATOM     26  S   UNL     1      48.217   5.482  20.104  0.00  0.00    +0.000 S 
ATOM     27  C   UNL     1      47.875   7.130  19.854  0.00  0.00    +0.000 A 
ATOM     28  N   UNL     1      47.414   7.909  20.867  0.00  0.00    +0.000 NA
ATOM     29  C   UNL     1      47.173   9.135  20.529  0.00  0.00    +0.000 A 
ATOM     30  N   UNL     1      47.351   9.646  19.272  0.00  0.00    +0.000 N 
ATOM     31  C   UNL     1      47.829   8.903  18.225  0.00  0.00    +0.000 A 
ATOM     32  O   UNL     1      48.004   9.401  17.117  0.00  0.00    +0.000 OA
ATOM     33  C   UNL     1      48.117   7.519  18.547  0.00  0.00    +0.000 A 
ATOM     34  H   UNL     1      47.150  10.619  19.074  0.00  0.00    +0.000 HD
ENDBRANCH  21  24
ENDBRANCH  19  20
ENDBRANCH   5  19
TORSDOF 8
ENDMDL
MODEL 4
REMARK VINA RESULT:    -7.265      1.633      2.015
REMARK INTER + INTRA:         -12.204
REMARK INTER:                 -11.302
REMARK INTRA:                  -0.902
REMARK UNBOUND:                -1.540
REMARK  Name = 
REMARK  9 active torsions:
REMARK  status: ('A' for Active; 'I' for Inactive)
REMARK    1  A    between atoms: C_1  and  C_2
REMARK    2  A    between atoms: C_2  and  C_3
REMARK    3  A    between atoms: C_3  and  N_4
REMARK    4  A    between atoms: C_3  and  C_26
REMARK    5  A    between atoms: N_4  and  C_5
REMARK    6  A    between atoms: C_5  and  C_6
REMARK    7  A    between atoms: C_10  and  C_11
REMARK    8  A    between atoms: C_11  and  N_12
REMARK    9  A    between atoms: C_13  and  C_15
REMARK                            x       y       z     vdW  Elec       q    Type
REMARK                         _______ _______ _______ _____ _____    ______ ____
ROOT
ATOM      1  C   UNL     1      44.702   6.919  11.869  0.00  0.00    +0.000 A 
ATOM      2  C   UNL     1      44.681   8.289  11.568  0.00  0.00    +0.000 A 
ATOM      3  C   UNL     1      45.796   9.087  11.815  0.00  0.00    +0.000 A 
ATOM      4  C   UNL     1      46.933   8.534  12.397  0.00  0.00    +0.000 A 
ATOM      5  C   UNL     1      46.958   7.179  12.755  0.00  0.00    +0.000 A 
ATOM      6  C   UNL     1      45.852   6.371  12.454  0.00  0.00    +0.000 A 
ENDROOT
BRANCH   1   7
ATOM      7  C   UNL     1      43.505   6.052  11.544  0.00  0.00    +0.000 C 
BRANCH   7   8
ATOM      8  N   UNL     1      43.644   5.396  10.250  0.00  0.00    +0.000 NA
ATOM      9  H   UNL     1      42.852   5.687   9.673  0.00  0.00    +0.000 HD
BRANCH   8  10
ATOM     10  C   UNL     1      43.593   3.919  10.299  0.00  0.00    +0.000 C 
BRANCH  10  11
ATOM     11  C   UNL     1      44.647   3.356   9.323  0.00  0.00    +0.000 A 
ATOM     12  C   UNL     1      45.385   4.225   8.513  0.00  0.00    +0.000 A 
ATOM     13  C   UNL     1      46.339   3.705   7.644  0.00  0.00    +0.000 A 
ATOM     14  C   UNL     1      46.522   2.332   7.587  0.00  0.00    +0.000 A 
ATOM     15  C   UNL     1      45.739   1.533   8.406  0.00  0.00    +0.000 A 
ATOM     16  N   UNL     1      44.811   2.009   9.269  0.00  0.00    +0.000 NA
ENDBRANCH  10  11
BRANCH  10  18
ATOM     17  C   UNL     1      45.277   3.148  12.160  0.00  0.00    +0.000 C 
ATOM     18  C   UNL     1      43.837   3.258  11.683  0.00  0.00    +0.000 C 
ENDBRANCH  10  18
ENDBRANCH   8  10
ENDBRANCH   7   8
ENDBRANCH   1   7
BRANCH   5  19
ATOM     19  C   UNL     1      48.168   6.589  13.423  0.00  0.00    +0.000 C 
BRANCH  19  20
ATOM     20  N   UNL     1      48.046   6.650  14.854  0.00  0.00    +0.000 N 
ATOM     21  C   UNL     1      49.154   6.743  15.655  0.00  0.00    +0.000 C 
ATOM     22  O   UNL     1      50.288   6.829  15.188  0.00  0.00    +0.000 OA
ATOM     23  H   UNL     1      47.161   6.356  15.252  0.00  0.00    +0.000 HD
BRANCH  21  24
ATOM     24  C   UNL     1      48.913   6.797  17.101  0.00  0.00    +0.000 A 
ATOM     25  C   UNL     1      48.660   8.023  17.704  0.00  0.00    +0.000 A 
ATOM     26  S   UNL     1      48.347   7.907  19.375  0.00  0.00    +0.000 S 
ATOM     27  C   UNL     1      48.589   6.223  19.361  0.00  0.00    +0.000 A 
ATOM     28  N   UNL     1      48.491   5.494  20.504  0.00  0.00    +0.000 NA
ATOM     29  C   UNL     1      48.722   4.230  20.350  0.00  0.00    +0.000 A 
ATOM     30  N   UNL     1      49.043   3.635  19.161  0.00  0.00    +0.000 N 
ATOM     31  C   UNL     1      49.136   4.326  17.982  0.00  0.00    +0.000 A 
ATOM     32  O   UNL     1      49.397   3.757  16.926  0.00  0.00    +0.000 OA
ATOM     33  C   UNL     1      48.885   5.750  18.093  0.00  0.00    +0.000 A 
ATOM     34  H   UNL     1      49.206   2.636  19.106  0.00  0.00    +0.000 HD
ENDBRANCH  21  24
ENDBRANCH  19  20
ENDBRANCH   5  19
TORSDOF 8
ENDMDL
MODEL 5
REMARK VINA RESULT:    -7.126      2.171      2.693
REMARK INTER + INTRA:         -12.000
REMARK INTER:                 -10.885
REMARK INTRA:                  -1.114
REMARK UNBOUND:                -1.540
REMARK  Name = 
REMARK  9 active torsions:
REMARK  status: ('A' for Active; 'I' for Inactive)
REMARK    1  A    between atoms: C_1  and  C_2
REMARK    2  A    between atoms: C_2  and  C_3
REMARK    3  A    between atoms: C_3  and  N_4
REMARK    4  A    between atoms: C_3  and  C_26
REMARK    5  A    between atoms: N_4  and  C_5
REMARK    6  A    between atoms: C_5  and  C_6
REMARK    7  A    between atoms: C_10  and  C_11
REMARK    8  A    between atoms: C_11  and  N_12
REMARK    9  A    between atoms: C_13  and  C_15
REMARK                            x       y       z     vdW  Elec       q    Type
REMARK                         _______ _______ _______ _____ _____    ______ ____
ROOT
ATOM      1  C   UNL     1      46.880   6.811  12.287  0.00  0.00    +0.000 A 
ATOM      2  C   UNL     1      47.915   7.114  11.391  0.00  0.00    +0.000 A 
ATOM      3  C   UNL     1      49.183   7.455  11.859  0.00  0.00    +0.000 A 
ATOM      4  C   UNL     1      49.421   7.532  13.229  0.00  0.00    +0.000 A 
ATOM      5  C   UNL     1      48.389   7.285  14.143  0.00  0.00    +0.000 A 
ATOM      6  C   UNL     1      47.131   6.890  13.664  0.00  0.00    +0.000 A 
ENDROOT
BRANCH   1   7
ATOM      7  C   UNL     1      45.524   6.388  11.766  0.00  0.00    +0.000 C 
BRANCH   7   8
ATOM      8  N   UNL     1      45.607   5.841  10.417  0.00  0.00    +0.000 NA
ATOM      9  H   UNL     1      45.206   6.535   9.781  0.00  0.00    +0.000 HD
BRANCH   8  10
ATOM     10  C   UNL     1      44.833   4.599  10.208  0.00  0.00    +0.000 C 
BRANCH  10  11
ATOM     11  C   UNL     1      45.494   3.792   9.071  0.00  0.00    +0.000 A 
ATOM     12  C   UNL     1      45.557   2.396   9.146  0.00  0.00    +0.000 A 
ATOM     13  C   UNL     1      46.147   1.681   8.110  0.00  0.00    +0.000 A 
ATOM     14  C   UNL     1      46.680   2.370   7.032  0.00  0.00    +0.000 A 
ATOM     15  C   UNL     1      46.599   3.755   7.037  0.00  0.00    +0.000 A 
ATOM     16  N   UNL     1      46.021   4.479   8.025  0.00  0.00    +0.000 NA
ENDBRANCH  10  11
BRANCH  10  18
ATOM     17  C   UNL     1      43.288   3.182  11.790  0.00  0.00    +0.000 C 
ATOM     18  C   UNL     1      44.689   3.652  11.430  0.00  0.00    +0.000 C 
ENDBRANCH  10  18
ENDBRANCH   8  10
ENDBRANCH   7   8
ENDBRANCH   1   7
BRANCH   5  19
ATOM     19  C   UNL     1      48.632   7.409  15.621  0.00  0.00    +0.000 C 
BRANCH  19  20
ATOM     20  N   UNL     1      49.721   6.567  16.035  0.00  0.00    +0.000 N 
ATOM     21  C   UNL     1      49.648   5.832  17.190  0.00  0.00    +0.000 C 
ATOM     22  O   UNL     1      48.637   5.822  17.889  0.00  0.00    +0.000 OA
ATOM     23  H   UNL     1      50.623   6.738  15.603  0.00  0.00    +0.000 HD
BRANCH  21  24
ATOM     24  C   UNL     1      50.817   5.009  17.516  0.00  0.00    +0.000 A 
ATOM     25  C   UNL     1      51.984   5.625  17.949  0.00  0.00    +0.000 A 
ATOM     26  S   UNL     1      53.229   4.527  18.337  0.00  0.00    +0.000 S 
ATOM     27  C   UNL     1      52.269   3.194  17.894  0.00  0.00    +0.000 A 
ATOM     28  N   UNL     1      52.756   1.927  17.966  0.00  0.00    +0.000 NA
ATOM     29  C   UNL     1      51.926   1.015  17.575  0.00  0.00    +0.000 A 
ATOM     30  N   UNL     1      50.659   1.257  17.119  0.00  0.00    +0.000 N 
ATOM     31  C   UNL     1      50.120   2.514  17.045  0.00  0.00    +0.000 A 
ATOM     32  O   UNL     1      48.968   2.694  16.659  0.00  0.00    +0.000 OA
ATOM     33  C   UNL     1      51.007   3.579  17.472  0.00  0.00    +0.000 A 
ATOM     34  H   UNL     1      50.054   0.495  16.834  0.00  0.00    +0.000 HD
ENDBRANCH  21  24
ENDBRANCH  19  20
ENDBRANCH   5  19
TORSDOF 8
ENDMDL
MODEL 6
REMARK VINA RESULT:    -7.091      3.357      7.504
REMARK INTER + INTRA:         -11.948
REMARK INTER:                 -10.076
REMARK INTRA:                  -1.872
REMARK UNBOUND:                -1.540
REMARK  Name = 
REMARK  9 active torsions:
REMARK  status: ('A' for Active; 'I' for Inactive)
REMARK    1  A    between atoms: C_1  and  C_2
REMARK    2  A    between atoms: C_2  and  C_3
REMARK    3  A    between atoms: C_3  and  N_4
REMARK    4  A    between atoms: C_3  and  C_26
REMARK    5  A    between atoms: N_4  and  C_5
REMARK    6  A    between atoms: C_5  and  C_6
REMARK    7  A    between atoms: C_10  and  C_11
REMARK    8  A    between atoms: C_11  and  N_12
REMARK    9  A    between atoms: C_13  and  C_15
REMARK                            x       y       z     vdW  Elec       q    Type
REMARK                         _______ _______ _______ _____ _____    ______ ____
ROOT
ATOM      1  C   UNL     1      50.367   5.528  17.285  0.00  0.00    +0.000 A 
ATOM      2  C   UNL     1      51.277   4.525  17.653  0.00  0.00    +0.000 A 
ATOM      3  C   UNL     1      50.896   3.185  17.650  0.00  0.00    +0.000 A 
ATOM      4  C   UNL     1      49.591   2.833  17.313  0.00  0.00    +0.000 A 
ATOM      5  C   UNL     1      48.651   3.820  16.993  0.00  0.00    +0.000 A 
ATOM      6  C   UNL     1      49.056   5.162  16.946  0.00  0.00    +0.000 A 
ENDROOT
BRANCH   1   7
ATOM      7  C   UNL     1      50.809   6.974  17.239  0.00  0.00    +0.000 C 
BRANCH   7   8
ATOM      8  N   UNL     1      50.769   7.511  15.884  0.00  0.00    +0.000 NA
ATOM      9  H   UNL     1      51.719   7.799  15.641  0.00  0.00    +0.000 HD
BRANCH   8  10
ATOM     10  C   UNL     1      49.924   8.714  15.724  0.00  0.00    +0.000 C 
BRANCH  10  11
ATOM     11  C   UNL     1      49.618   8.905  14.223  0.00  0.00    +0.000 A 
ATOM     12  C   UNL     1      50.151   8.019  13.281  0.00  0.00    +0.000 A 
ATOM     13  C   UNL     1      49.859   8.197  11.933  0.00  0.00    +0.000 A 
ATOM     14  C   UNL     1      49.061   9.264  11.550  0.00  0.00    +0.000 A 
ATOM     15  C   UNL     1      48.586  10.111  12.540  0.00  0.00    +0.000 A 
ATOM     16  N   UNL     1      48.842   9.959  13.860  0.00  0.00    +0.000 NA
ENDBRANCH  10  11
BRANCH  10  18
ATOM     17  C   UNL     1      48.347   9.823  17.507  0.00  0.00    +0.000 C 
ATOM     18  C   UNL     1      48.569   8.721  16.482  0.00  0.00    +0.000 C 
ENDBRANCH  10  18
ENDBRANCH   8  10
ENDBRANCH   7   8
ENDBRANCH   1   7
BRANCH   5  19
ATOM     19  C   UNL     1      47.231   3.447  16.670  0.00  0.00    +0.000 C 
BRANCH  19  20
ATOM     20  N   UNL     1      46.649   4.386  15.751  0.00  0.00    +0.000 N 
ATOM     21  C   UNL     1      46.710   4.181  14.397  0.00  0.00    +0.000 C 
ATOM     22  O   UNL     1      47.215   3.169  13.916  0.00  0.00    +0.000 OA
ATOM     23  H   UNL     1      46.439   5.311  16.111  0.00  0.00    +0.000 HD
BRANCH  21  24
ATOM     24  C   UNL     1      46.085   5.204  13.552  0.00  0.00    +0.000 A 
ATOM     25  C   UNL     1      46.773   6.380  13.283  0.00  0.00    +0.000 A 
ATOM     26  S   UNL     1      45.932   7.438  12.245  0.00  0.00    +0.000 S 
ATOM     27  C   UNL     1      44.599   6.386  12.159  0.00  0.00    +0.000 A 
ATOM     28  N   UNL     1      43.497   6.712  11.434  0.00  0.00    +0.000 NA
ATOM     29  C   UNL     1      42.551   5.830  11.477  0.00  0.00    +0.000 A 
ATOM     30  N   UNL     1      42.610   4.658  12.180  0.00  0.00    +0.000 N 
ATOM     31  C   UNL     1      43.704   4.279  12.910  0.00  0.00    +0.000 A 
ATOM     32  O   UNL     1      43.736   3.206  13.506  0.00  0.00    +0.000 OA
ATOM     33  C   UNL     1      44.799   5.231  12.898  0.00  0.00    +0.000 A 
ATOM     34  H   UNL     1      41.835   4.004  12.166  0.00  0.00    +0.000 HD
ENDBRANCH  21  24
ENDBRANCH  19  20
ENDBRANCH   5  19
TORSDOF 8
ENDMDL
MODEL 7
REMARK VINA RESULT:    -6.829      3.476      9.284
REMARK INTER + INTRA:         -11.563
REMARK INTER:                  -9.773
REMARK INTRA:                  -1.790
REMARK UNBOUND:                -1.540
REMARK  Name = 
REMARK  9 active torsions:
REMARK  status: ('A' for Active; 'I' for Inactive)
REMARK    1  A    between atoms: C_1  and  C_2
REMARK    2  A    between atoms: C_2  and  C_3
REMARK    3  A    between atoms: C_3  and  N_4
REMARK    4  A    between atoms: C_3  and  C_26
REMARK    5  A    between atoms: N_4  and  C_5
REMARK    6  A    between atoms: C_5  and  C_6
REMARK    7  A    between atoms: C_10  and  C_11
REMARK    8  A    between atoms: C_11  and  N_12
REMARK    9  A    between atoms: C_13  and  C_15
REMARK                            x       y       z     vdW  Elec       q    Type
REMARK                         _______ _______ _______ _____ _____    ______ ____
ROOT
ATOM      1  C   UNL     1      50.665   5.333  17.370  0.00  0.00    +0.000 A 
ATOM      2  C   UNL     1      51.499   4.250  17.686  0.00  0.00    +0.000 A 
ATOM      3  C   UNL     1      51.016   2.944  17.640  0.00  0.00    +0.000 A 
ATOM      4  C   UNL     1      49.683   2.706  17.312  0.00  0.00    +0.000 A 
ATOM      5  C   UNL     1      48.818   3.774  17.043  0.00  0.00    +0.000 A 
ATOM      6  C   UNL     1      49.325   5.082  17.039  0.00  0.00    +0.000 A 
ENDROOT
BRANCH   1   7
ATOM      7  C   UNL     1      51.216   6.741  17.369  0.00  0.00    +0.000 C 
BRANCH   7   8
ATOM      8  N   UNL     1      50.339   7.669  18.073  0.00  0.00    +0.000 NA
ATOM      9  H   UNL     1      50.502   8.600  17.682  0.00  0.00    +0.000 HD
BRANCH   8  10
ATOM     10  C   UNL     1      50.600   7.783  19.524  0.00  0.00    +0.000 C 
BRANCH  10  11
ATOM     11  C   UNL     1      49.619   6.860  20.275  0.00  0.00    +0.000 A 
ATOM     12  C   UNL     1      50.099   5.753  20.982  0.00  0.00    +0.000 A 
ATOM     13  C   UNL     1      49.204   4.934  21.663  0.00  0.00    +0.000 A 
ATOM     14  C   UNL     1      47.850   5.223  21.608  0.00  0.00    +0.000 A 
ATOM     15  C   UNL     1      47.447   6.326  20.870  0.00  0.00    +0.000 A 
ATOM     16  N   UNL     1      48.293   7.148  20.206  0.00  0.00    +0.000 NA
ENDBRANCH  10  11
BRANCH  10  18
ATOM     17  C   UNL     1      52.861   8.551  20.617  0.00  0.00    +0.000 C 
ATOM     18  C   UNL     1      52.034   7.431  20.005  0.00  0.00    +0.000 C 
ENDBRANCH  10  18
ENDBRANCH   8  10
ENDBRANCH   7   8
ENDBRANCH   1   7
BRANCH   5  19
ATOM     19  C   UNL     1      47.369   3.523  16.731  0.00  0.00    +0.000 C 
BRANCH  19  20
ATOM     20  N   UNL     1      46.874   4.484  15.782  0.00  0.00    +0.000 N 
ATOM     21  C   UNL     1      46.839   4.200  14.442  0.00  0.00    +0.000 C 
ATOM     22  O   UNL     1      47.176   3.103  14.001  0.00  0.00    +0.000 OA
ATOM     23  H   UNL     1      46.811   5.447  16.095  0.00  0.00    +0.000 HD
BRANCH  21  24
ATOM     24  C   UNL     1      46.316   5.253  13.565  0.00  0.00    +0.000 A 
ATOM     25  C   UNL     1      47.097   6.372  13.303  0.00  0.00    +0.000 A 
ATOM     26  S   UNL     1      46.369   7.473  12.226  0.00  0.00    +0.000 S 
ATOM     27  C   UNL     1      44.965   6.520  12.111  0.00  0.00    +0.000 A 
ATOM     28  N   UNL     1      43.912   6.915  11.347  0.00  0.00    +0.000 NA
ATOM     29  C   UNL     1      42.903   6.105  11.371  0.00  0.00    +0.000 A 
ATOM     30  N   UNL     1      42.854   4.942  12.090  0.00  0.00    +0.000 N 
ATOM     31  C   UNL     1      43.895   4.496  12.860  0.00  0.00    +0.000 A 
ATOM     32  O   UNL     1      43.829   3.432  13.469  0.00  0.00    +0.000 OA
ATOM     33  C   UNL     1      45.057   5.364  12.870  0.00  0.00    +0.000 A 
ATOM     34  H   UNL     1      42.034   4.347  12.060  0.00  0.00    +0.000 HD
ENDBRANCH  21  24
ENDBRANCH  19  20
ENDBRANCH   5  19
TORSDOF 8
ENDMDL
MODEL 8
REMARK VINA RESULT:    -6.669      3.443      8.150
REMARK INTER + INTRA:         -11.329
REMARK INTER:                  -9.600
REMARK INTRA:                  -1.729
REMARK UNBOUND:                -1.540
REMARK  Name = 
REMARK  9 active torsions:
REMARK  status: ('A' for Active; 'I' for Inactive)
REMARK    1  A    between atoms: C_1  and  C_2
REMARK    2  A    between atoms: C_2  and  C_3
REMARK    3  A    between atoms: C_3  and  N_4
REMARK    4  A    between atoms: C_3  and  C_26
REMARK    5  A    between atoms: N_4  and  C_5
REMARK    6  A    between atoms: C_5  and  C_6
REMARK    7  A    between atoms: C_10  and  C_11
REMARK    8  A    between atoms: C_11  and  N_12
REMARK    9  A    between atoms: C_13  and  C_15
REMARK                            x       y       z     vdW  Elec       q    Type
REMARK                         _______ _______ _______ _____ _____    ______ ____
ROOT
ATOM      1  C   UNL     1      48.264   6.040  19.153  0.00  0.00    +0.000 A 
ATOM      2  C   UNL     1      49.477   5.536  19.646  0.00  0.00    +0.000 A 
ATOM      3  C   UNL     1      50.070   4.417  19.063  0.00  0.00    +0.000 A 
ATOM      4  C   UNL     1      49.441   3.769  18.003  0.00  0.00    +0.000 A 
ATOM      5  C   UNL     1      48.204   4.223  17.528  0.00  0.00    +0.000 A 
ATOM      6  C   UNL     1      47.640   5.381  18.085  0.00  0.00    +0.000 A 
ENDROOT
BRANCH   1   7
ATOM      7  C   UNL     1      47.659   7.287  19.759  0.00  0.00    +0.000 C 
BRANCH   7   8
ATOM      8  N   UNL     1      47.201   8.221  18.737  0.00  0.00    +0.000 NA
ATOM      9  H   UNL     1      46.985   7.675  17.899  0.00  0.00    +0.000 HD
BRANCH   8  10
ATOM     10  C   UNL     1      48.205   9.225  18.324  0.00  0.00    +0.000 C 
BRANCH  10  11
ATOM     11  C   UNL     1      48.854   8.760  17.004  0.00  0.00    +0.000 A 
ATOM     12  C   UNL     1      50.079   8.085  17.024  0.00  0.00    +0.000 A 
ATOM     13  C   UNL     1      50.647   7.663  15.827  0.00  0.00    +0.000 A 
ATOM     14  C   UNL     1      49.995   7.940  14.635  0.00  0.00    +0.000 A 
ATOM     15  C   UNL     1      48.794   8.631  14.694  0.00  0.00    +0.000 A 
ATOM     16  N   UNL     1      48.210   9.045  15.842  0.00  0.00    +0.000 NA
ENDBRANCH  10  11
BRANCH  10  18
ATOM     17  C   UNL     1      48.516  11.802  18.715  0.00  0.00    +0.000 C 
ATOM     18  C   UNL     1      47.695  10.675  18.109  0.00  0.00    +0.000 C 
ENDBRANCH  10  18
ENDBRANCH   8  10
ENDBRANCH   7   8
ENDBRANCH   1   7
BRANCH   5  19
ATOM     19  C   UNL     1      47.502   3.500  16.413  0.00  0.00    +0.000 C 
BRANCH  19  20
ATOM     20  N   UNL     1      46.853   4.429  15.527  0.00  0.00    +0.000 N 
ATOM     21  C   UNL     1      46.756   4.174  14.184  0.00  0.00    +0.000 C 
ATOM     22  O   UNL     1      47.170   3.128  13.689  0.00  0.00    +0.000 OA
ATOM     23  H   UNL     1      46.716   5.372  15.872  0.00  0.00    +0.000 HD
BRANCH  21  24
ATOM     24  C   UNL     1      46.076   5.190  13.374  0.00  0.00    +0.000 A 
ATOM     25  C   UNL     1      46.717   6.394  13.111  0.00  0.00    +0.000 A 
ATOM     26  S   UNL     1      45.815   7.442  12.114  0.00  0.00    +0.000 S 
ATOM     27  C   UNL     1      44.516   6.345  12.040  0.00  0.00    +0.000 A 
ATOM     28  N   UNL     1      43.386   6.646  11.347  0.00  0.00    +0.000 NA
ATOM     29  C   UNL     1      42.472   5.731  11.397  0.00  0.00    +0.000 A 
ATOM     30  N   UNL     1      42.588   4.549  12.075  0.00  0.00    +0.000 N 
ATOM     31  C   UNL     1      43.713   4.195  12.772  0.00  0.00    +0.000 A 
ATOM     32  O   UNL     1      43.796   3.113  13.346  0.00  0.00    +0.000 OA
ATOM     33  C   UNL     1      44.774   5.184  12.751  0.00  0.00    +0.000 A 
ATOM     34  H   UNL     1      41.836   3.870  12.069  0.00  0.00    +0.000 HD
ENDBRANCH  21  24
ENDBRANCH  19  20
ENDBRANCH   5  19
TORSDOF 8
ENDMDL
MODEL 9
REMARK VINA RESULT:    -6.606      3.893      6.956
REMARK INTER + INTRA:         -11.236
REMARK INTER:                  -9.202
REMARK INTRA:                  -2.033
REMARK UNBOUND:                -1.540
REMARK  Name = 
REMARK  9 active torsions:
REMARK  status: ('A' for Active; 'I' for Inactive)
REMARK    1  A    between atoms: C_1  and  C_2
REMARK    2  A    between atoms: C_2  and  C_3
REMARK    3  A    between atoms: C_3  and  N_4
REMARK    4  A    between atoms: C_3  and  C_26
REMARK    5  A    between atoms: N_4  and  C_5
REMARK    6  A    between atoms: C_5  and  C_6
REMARK    7  A    between atoms: C_10  and  C_11
REMARK    8  A    between atoms: C_11  and  N_12
REMARK    9  A    between atoms: C_13  and  C_15
REMARK                            x       y       z     vdW  Elec       q    Type
REMARK                         _______ _______ _______ _____ _____    ______ ____
ROOT
ATOM      1  C   UNL     1      46.107  12.165  11.001  0.00  0.00    +0.000 A 
ATOM      2  C   UNL     1      46.783  12.815   9.958  0.00  0.00    +0.000 A 
ATOM      3  C   UNL     1      48.057  12.402   9.572  0.00  0.00    +0.000 A 
ATOM      4  C   UNL     1      48.684  11.358  10.247  0.00  0.00    +0.000 A 
ATOM      5  C   UNL     1      48.050  10.728  11.325  0.00  0.00    +0.000 A 
ATOM      6  C   UNL     1      46.747  11.114  11.673  0.00  0.00    +0.000 A 
ENDROOT
BRANCH   1   7
ATOM      7  C   UNL     1      44.702  12.586  11.374  0.00  0.00    +0.000 C 
BRANCH   7   8
ATOM      8  N   UNL     1      43.902  11.460  11.838  0.00  0.00    +0.000 NA
ATOM      9  H   UNL     1      44.539  10.676  11.997  0.00  0.00    +0.000 HD
BRANCH   8  10
ATOM     10  C   UNL     1      42.895  10.977  10.868  0.00  0.00    +0.000 C 
BRANCH  10  11
ATOM     11  C   UNL     1      41.497  11.095  11.509  0.00  0.00    +0.000 A 
ATOM     12  C   UNL     1      40.436  10.323  11.023  0.00  0.00    +0.000 A 
ATOM     13  C   UNL     1      39.183  10.432  11.616  0.00  0.00    +0.000 A 
ATOM     14  C   UNL     1      39.008  11.321  12.665  0.00  0.00    +0.000 A 
ATOM     15  C   UNL     1      40.101  12.067  13.078  0.00  0.00    +0.000 A 
ATOM     16  N   UNL     1      41.335  11.977  12.529  0.00  0.00    +0.000 NA
ENDBRANCH  10  11
BRANCH  10  18
ATOM     17  C   UNL     1      43.370  10.951   8.286  0.00  0.00    +0.000 C 
ATOM     18  C   UNL     1      42.843  11.704   9.497  0.00  0.00    +0.000 C 
ENDBRANCH  10  18
ENDBRANCH   8  10
ENDBRANCH   7   8
ENDBRANCH   1   7
BRANCH   5  19
ATOM     19  C   UNL     1      48.742   9.630  12.082  0.00  0.00    +0.000 C 
BRANCH  19  20
ATOM     20  N   UNL     1      47.977   8.413  12.035  0.00  0.00    +0.000 N 
ATOM     21  C   UNL     1      47.537   7.810  13.184  0.00  0.00    +0.000 C 
ATOM     22  O   UNL     1      47.729   8.306  14.293  0.00  0.00    +0.000 OA
ATOM     23  H   UNL     1      48.008   7.885  11.169  0.00  0.00    +0.000 HD
BRANCH  21  24
ATOM     24  C   UNL     1      46.767   6.572  13.019  0.00  0.00    +0.000 A 
ATOM     25  C   UNL     1      47.253   5.390  13.563  0.00  0.00    +0.000 A 
ATOM     26  S   UNL     1      46.217   4.057  13.329  0.00  0.00    +0.000 S 
ATOM     27  C   UNL     1      45.108   5.001  12.450  0.00  0.00    +0.000 A 
ATOM     28  N   UNL     1      43.980   4.450  11.929  0.00  0.00    +0.000 NA
ATOM     29  C   UNL     1      43.241   5.279  11.265  0.00  0.00    +0.000 A 
ATOM     30  N   UNL     1      43.530   6.602  11.075  0.00  0.00    +0.000 N 
ATOM     31  C   UNL     1      44.645   7.205  11.594  0.00  0.00    +0.000 A 
ATOM     32  O   UNL     1      44.861   8.402  11.430  0.00  0.00    +0.000 OA
ATOM     33  C   UNL     1      45.513   6.322  12.352  0.00  0.00    +0.000 A 
ATOM     34  H   UNL     1      42.904   7.201  10.549  0.00  0.00    +0.000 HD
ENDBRANCH  21  24
ENDBRANCH  19  20
ENDBRANCH   5  19
TORSDOF 8
ENDMDL
