MODEL 1
REMARK VINA RESULT:    -7.613      0.000      0.000
REMARK INTER + INTRA:         -11.095
REMARK INTER:                 -10.284
REMARK INTRA:                  -0.811
REMARK UNBOUND:                -0.811
REMARK  Name = 
REMARK  6 active torsions:
REMARK  status: ('A' for Active; 'I' for Inactive)
REMARK    1  A    between atoms: C_2  and  C_19
REMARK    2  A    between atoms: N_3  and  C_4
REMARK    3  A    between atoms: C_4  and  C_5
REMARK    4  A    between atoms: C_8  and  C_9
REMARK    5  A    between atoms: C_9  and  N_10
REMARK    6  A    between atoms: N_10  and  C_11
REMARK                            x       y       z     vdW  Elec       q    Type
REMARK                         _______ _______ _______ _____ _____    ______ ____
ROOT
ATOM      1  C   UNL     1      48.609   6.993  14.243  0.00  0.00    +0.000 C 
ENDROOT
BRANCH   1   2
ATOM      2  C   UNL     1      47.476   6.219  13.641  0.00  0.00    +0.000 A 
ATOM      3  C   UNL     1      46.819   6.678  12.502  0.00  0.00    +0.000 A 
ATOM      4  C   UNL     1      45.806   5.910  11.938  0.00  0.00    +0.000 A 
ATOM      5  C   UNL     1      45.445   4.701  12.538  0.00  0.00    +0.000 A 
ATOM      6  N   UNL     1      46.050   4.254  13.666  0.00  0.00    +0.000 NA
ATOM      7  C   UNL     1      47.034   5.021  14.193  0.00  0.00    +0.000 A 
BRANCH   5   8
ATOM      8  C   UNL     1      44.439   3.814  11.816  0.00  0.00    +0.000 C 
BRANCH   8   9
ATOM      9  N   UNL     1      44.998   2.754  10.974  0.00  0.00    +0.000 NA
ATOM     10  H   UNL     1      44.970   1.851  11.444  0.00  0.00    +0.000 HD
BRANCH   9  11
ATOM     11  C   UNL     1      44.367   2.681   9.647  0.00  0.00    +0.000 C 
ATOM     12  C   UNL     1      44.992   1.646   8.687  0.00  0.00    +0.000 C 
ATOM     13  C   UNL     1      46.281   2.127   8.026  0.00  0.00    +0.000 C 
ATOM     14  C   UNL     1      46.103   3.508   7.405  0.00  0.00    +0.000 C 
ATOM     15  N   UNL     1      45.679   4.467   8.422  0.00  0.00    +0.000 NA
ATOM     16  C   UNL     1      44.373   4.084   8.981  0.00  0.00    +0.000 C 
ATOM     17  H   UNL     1      45.598   5.393   8.002  0.00  0.00    +0.000 HD
ENDBRANCH   9  11
ENDBRANCH   8   9
ENDBRANCH   5   8
ENDBRANCH   1   2
BRANCH   1  20
ATOM     18  O   UNL     1      50.477   6.157  16.184  0.00  0.00    +0.000 OA
ATOM     19  C   UNL     1      49.442   6.707  16.550  0.00  0.00    +0.000 C 
ATOM     20  N   UNL     1      48.473   7.110  15.671  0.00  0.00    +0.000 N 
ATOM     21  H   UNL     1      47.723   7.709  16.000  0.00  0.00    +0.000 HD
BRANCH  19  22
ATOM     22  C   UNL     1      49.151   6.926  17.974  0.00  0.00    +0.000 A 
ATOM     23  C   UNL     1      49.002   8.219  18.457  0.00  0.00    +0.000 A 
ATOM     24  S   UNL     1      48.679   8.292  20.131  0.00  0.00    +0.000 S 
ATOM     25  C   UNL     1      48.679   6.595  20.261  0.00  0.00    +0.000 A 
ATOM     26  N   UNL     1      48.426   5.984  21.449  0.00  0.00    +0.000 NA
ATOM     27  C   UNL     1      48.424   4.692  21.395  0.00  0.00    +0.000 A 
ATOM     28  N   UNL     1      48.666   3.957  20.265  0.00  0.00    +0.000 N 
ATOM     29  C   UNL     1      49.006   4.530  19.064  0.00  0.00    +0.000 A 
ATOM     30  O   UNL     1      49.357   3.843  18.109  0.00  0.00    +0.000 OA
ATOM     31  C   UNL     1      48.963   5.981  19.053  0.00  0.00    +0.000 A 
ATOM     32  H   UNL     1      48.678   2.947  20.295  0.00  0.00    +0.000 HD
ENDBRANCH  19  22
ENDBRANCH   1  20
TORSDOF 6
ENDMDL
MODEL 2
REMARK VINA RESULT:    -7.511      2.167      3.154
REMARK INTER + INTRA:         -10.956
REMARK INTER:                 -10.439
REMARK INTRA:                  -0.517
REMARK UNBOUND:                -0.811
REMARK  Name = 
REMARK  6 active torsions:
REMARK  status: ('A' for Active; 'I' for Inactive)
REMARK    1  A    between atoms: C_2  and  C_19
REMARK    2  A    between atoms: N_3  and  C_4
REMARK    3  A    between atoms: C_4  and  C_5
REMARK    4  A    between atoms: C_8  and  C_9
REMARK    5  A    between atoms: C_9  and  N_10
REMARK    6  A    between atoms: N_10  and  C_11
REMARK                            x       y       z     vdW  Elec       q    Type
REMARK                         _______ _______ _______ _____ _____    ______ ____
ROOT
ATOM      1  C   UNL     1      46.372   6.968  12.378  0.00  0.00    +0.000 C 
ENDROOT
BRANCH   1   2
ATOM      2  C   UNL     1      45.855   5.773  11.637  0.00  0.00    +0.000 A 
ATOM      3  C   UNL     1      45.674   5.807  10.257  0.00  0.00    +0.000 A 
ATOM      4  C   UNL     1      45.243   4.664   9.593  0.00  0.00    +0.000 A 
ATOM      5  C   UNL     1      44.973   3.505  10.324  0.00  0.00    +0.000 A 
ATOM      6  N   UNL     1      45.112   3.462  11.672  0.00  0.00    +0.000 NA
ATOM      7  C   UNL     1      45.534   4.589  12.293  0.00  0.00    +0.000 A 
BRANCH   5   8
ATOM      8  C   UNL     1      44.647   2.231   9.555  0.00  0.00    +0.000 C 
BRANCH   8   9
ATOM      9  N   UNL     1      45.059   2.200   8.151  0.00  0.00    +0.000 NA
ATOM     10  H   UNL     1      44.584   2.917   7.607  0.00  0.00    +0.000 HD
BRANCH   9  11
ATOM     11  C   UNL     1      46.518   2.282   7.978  0.00  0.00    +0.000 C 
ATOM     12  C   UNL     1      46.989   3.289   6.906  0.00  0.00    +0.000 C 
ATOM     13  C   UNL     1      46.870   2.761   5.479  0.00  0.00    +0.000 C 
ATOM     14  C   UNL     1      47.505   1.382   5.344  0.00  0.00    +0.000 C 
ATOM     15  N   UNL     1      46.879   0.445   6.273  0.00  0.00    +0.000 NA
ATOM     16  C   UNL     1      47.094   0.875   7.663  0.00  0.00    +0.000 C 
ATOM     17  H   UNL     1      47.287  -0.481   6.148  0.00  0.00    +0.000 HD
ENDBRANCH   9  11
ENDBRANCH   8   9
ENDBRANCH   5   8
ENDBRANCH   1   2
BRANCH   1  20
ATOM     18  O   UNL     1      49.043   6.752  13.260  0.00  0.00    +0.000 OA
ATOM     19  C   UNL     1      48.132   6.569  14.063  0.00  0.00    +0.000 C 
ATOM     20  N   UNL     1      46.812   6.622  13.704  0.00  0.00    +0.000 N 
ATOM     21  H   UNL     1      46.102   6.636  14.427  0.00  0.00    +0.000 HD
BRANCH  19  22
ATOM     22  C   UNL     1      48.404   6.225  15.466  0.00  0.00    +0.000 A 
ATOM     23  C   UNL     1      48.999   7.161  16.302  0.00  0.00    +0.000 A 
ATOM     24  S   UNL     1      49.252   6.596  17.892  0.00  0.00    +0.000 S 
ATOM     25  C   UNL     1      48.533   5.096  17.532  0.00  0.00    +0.000 A 
ATOM     26  N   UNL     1      48.398   4.138  18.488  0.00  0.00    +0.000 NA
ATOM     27  C   UNL     1      47.804   3.063  18.085  0.00  0.00    +0.000 A 
ATOM     28  N   UNL     1      47.346   2.853  16.811  0.00  0.00    +0.000 N 
ATOM     29  C   UNL     1      47.534   3.759  15.795  0.00  0.00    +0.000 A 
ATOM     30  O   UNL     1      47.242   3.482  14.635  0.00  0.00    +0.000 OA
ATOM     31  C   UNL     1      48.143   5.011  16.207  0.00  0.00    +0.000 A 
ATOM     32  H   UNL     1      46.914   1.978  16.551  0.00  0.00    +0.000 HD
ENDBRANCH  19  22
ENDBRANCH   1  20
TORSDOF 6
ENDMDL
MODEL 3
REMARK VINA RESULT:    -7.393      4.888      9.223
REMARK INTER + INTRA:         -10.798
REMARK INTER:                 -10.148
REMARK INTRA:                  -0.649
REMARK UNBOUND:                -0.811
REMARK  Name = 
REMARK  6 active torsions:
REMARK  status: ('A' for Active; 'I' for Inactive)
REMARK    1  A    between atoms: C_2  and  C_19
REMARK    2  A    between atoms: N_3  and  C_4
REMARK    3  A    between atoms: C_4  and  C_5
REMARK    4  A    between atoms: C_8  and  C_9
REMARK    5  A    between atoms: C_9  and  N_10
REMARK    6  A    between atoms: N_10  and  C_11
REMARK                            x       y       z     vdW  Elec       q    Type
REMARK                         _______ _______ _______ _____ _____    ______ ____
ROOT
ATOM      1  C   UNL     1      47.202   3.443  16.924  0.00  0.00    +0.000 C 
ENDROOT
BRANCH   1   2
ATOM      2  C   UNL     1      48.672   3.209  17.097  0.00  0.00    +0.000 A 
ATOM      3  C   UNL     1      49.488   4.174  17.682  0.00  0.00    +0.000 A 
ATOM      4  C   UNL     1      50.839   3.905  17.876  0.00  0.00    +0.000 A 
ATOM      5  C   UNL     1      51.362   2.679  17.457  0.00  0.00    +0.000 A 
ATOM      6  N   UNL     1      50.590   1.740  16.856  0.00  0.00    +0.000 NA
ATOM      7  C   UNL     1      49.278   2.029  16.681  0.00  0.00    +0.000 A 
BRANCH   5   8
ATOM      8  C   UNL     1      52.806   2.355  17.816  0.00  0.00    +0.000 C 
BRANCH   8   9
ATOM      9  N   UNL     1      53.031   1.082  18.505  0.00  0.00    +0.000 NA
ATOM     10  H   UNL     1      52.430   0.348  18.136  0.00  0.00    +0.000 HD
BRANCH   9  11
ATOM     11  C   UNL     1      54.443   0.667  18.497  0.00  0.00    +0.000 C 
ATOM     12  C   UNL     1      55.190   0.930  17.171  0.00  0.00    +0.000 C 
ATOM     13  C   UNL     1      54.899  -0.108  16.091  0.00  0.00    +0.000 C 
ATOM     14  C   UNL     1      55.077  -1.526  16.623  0.00  0.00    +0.000 C 
ATOM     15  N   UNL     1      54.203  -1.747  17.771  0.00  0.00    +0.000 NA
ATOM     16  C   UNL     1      54.554  -0.836  18.871  0.00  0.00    +0.000 C 
ATOM     17  H   UNL     1      54.305  -2.708  18.095  0.00  0.00    +0.000 HD
ENDBRANCH   9  11
ENDBRANCH   8   9
ENDBRANCH   5   8
ENDBRANCH   1   2
BRANCH   1  20
ATOM     18  O   UNL     1      47.260   3.061  14.130  0.00  0.00    +0.000 OA
ATOM     19  C   UNL     1      46.954   4.164  14.576  0.00  0.00    +0.000 C 
ATOM     20  N   UNL     1      46.937   4.437  15.917  0.00  0.00    +0.000 N 
ATOM     21  H   UNL     1      46.515   5.300  16.243  0.00  0.00    +0.000 HD
BRANCH  19  22
ATOM     22  C   UNL     1      46.633   5.289  13.686  0.00  0.00    +0.000 A 
ATOM     23  C   UNL     1      47.572   6.290  13.474  0.00  0.00    +0.000 A 
ATOM     24  S   UNL     1      47.033   7.523  12.425  0.00  0.00    +0.000 S 
ATOM     25  C   UNL     1      45.543   6.739  12.179  0.00  0.00    +0.000 A 
ATOM     26  N   UNL     1      44.608   7.262  11.342  0.00  0.00    +0.000 NA
ATOM     27  C   UNL     1      43.538   6.545  11.224  0.00  0.00    +0.000 A 
ATOM     28  N   UNL     1      43.313   5.363  11.878  0.00  0.00    +0.000 N 
ATOM     29  C   UNL     1      44.194   4.841  12.794  0.00  0.00    +0.000 A 
ATOM     30  O   UNL     1      43.900   3.858  13.469  0.00  0.00    +0.000 OA
ATOM     31  C   UNL     1      45.440   5.575  12.920  0.00  0.00    +0.000 A 
ATOM     32  H   UNL     1      42.442   4.864  11.765  0.00  0.00    +0.000 HD
ENDBRANCH  19  22
ENDBRANCH   1  20
TORSDOF 6
ENDMDL
MODEL 4
REMARK VINA RESULT:    -7.220      1.526      2.249
REMARK INTER + INTRA:         -10.564
REMARK INTER:                  -9.712
REMARK INTRA:                  -0.852
REMARK UNBOUND:                -0.811
REMARK  Name = 
REMARK  6 active torsions:
REMARK  status: ('A' for Active; 'I' for Inactive)
REMARK    1  A    between atoms: C_2  and  C_19
REMARK    2  A    between atoms: N_3  and  C_4
REMARK    3  A    between atoms: C_4  and  C_5
REMARK    4  A    between atoms: C_8  and  C_9
REMARK    5  A    between atoms: C_9  and  N_10
REMARK    6  A    between atoms: N_10  and  C_11
REMARK                            x       y       z     vdW  Elec       q    Type
REMARK                         _______ _______ _______ _____ _____    ______ ____
ROOT
ATOM      1  C   UNL     1      48.516   7.009  14.642  0.00  0.00    +0.000 C 
ENDROOT
BRANCH   1   2
ATOM      2  C   UNL     1      47.564   6.203  13.812  0.00  0.00    +0.000 A 
ATOM      3  C   UNL     1      47.032   5.007  14.288  0.00  0.00    +0.000 A 
ATOM      4  C   UNL     1      46.110   4.310  13.514  0.00  0.00    +0.000 A 
ATOM      5  C   UNL     1      45.751   4.808  12.259  0.00  0.00    +0.000 A 
ATOM      6  N   UNL     1      46.283   5.953  11.765  0.00  0.00    +0.000 NA
ATOM      7  C   UNL     1      47.177   6.612  12.540  0.00  0.00    +0.000 A 
BRANCH   5   8
ATOM      8  C   UNL     1      44.632   4.104  11.502  0.00  0.00    +0.000 C 
BRANCH   8   9
ATOM      9  N   UNL     1      44.986   2.842  10.849  0.00  0.00    +0.000 NA
ATOM     10  H   UNL     1      44.749   2.042  11.432  0.00  0.00    +0.000 HD
BRANCH   9  11
ATOM     11  C   UNL     1      44.407   2.709   9.503  0.00  0.00    +0.000 C 
ATOM     12  C   UNL     1      45.031   1.596   8.634  0.00  0.00    +0.000 C 
ATOM     13  C   UNL     1      46.362   1.992   8.000  0.00  0.00    +0.000 C 
ATOM     14  C   UNL     1      46.259   3.337   7.290  0.00  0.00    +0.000 C 
ATOM     15  N   UNL     1      45.830   4.371   8.228  0.00  0.00    +0.000 NA
ATOM     16  C   UNL     1      44.490   4.067   8.755  0.00  0.00    +0.000 C 
ATOM     17  H   UNL     1      45.799   5.271   7.751  0.00  0.00    +0.000 HD
ENDBRANCH   9  11
ENDBRANCH   8   9
ENDBRANCH   5   8
ENDBRANCH   1   2
BRANCH   1  20
ATOM     18  O   UNL     1      50.260   5.705  16.436  0.00  0.00    +0.000 OA
ATOM     19  C   UNL     1      49.213   6.185  16.863  0.00  0.00    +0.000 C 
ATOM     20  N   UNL     1      48.301   6.802  16.050  0.00  0.00    +0.000 N 
ATOM     21  H   UNL     1      47.542   7.330  16.467  0.00  0.00    +0.000 HD
BRANCH  19  22
ATOM     22  C   UNL     1      48.844   6.081  18.282  0.00  0.00    +0.000 A 
ATOM     23  C   UNL     1      49.082   4.900  18.972  0.00  0.00    +0.000 A 
ATOM     24  S   UNL     1      48.584   4.948  20.603  0.00  0.00    +0.000 S 
ATOM     25  C   UNL     1      48.075   6.565  20.459  0.00  0.00    +0.000 A 
ATOM     26  N   UNL     1      47.567   7.236  21.526  0.00  0.00    +0.000 NA
ATOM     27  C   UNL     1      47.253   8.467  21.282  0.00  0.00    +0.000 A 
ATOM     28  N   UNL     1      47.388   9.081  20.065  0.00  0.00    +0.000 N 
ATOM     29  C   UNL     1      47.820   8.419  18.942  0.00  0.00    +0.000 A 
ATOM     30  O   UNL     1      47.793   8.956  17.838  0.00  0.00    +0.000 OA
ATOM     31  C   UNL     1      48.243   7.050  19.173  0.00  0.00    +0.000 A 
ATOM     32  H   UNL     1      47.097  10.040  19.932  0.00  0.00    +0.000 HD
ENDBRANCH  19  22
ENDBRANCH   1  20
TORSDOF 6
ENDMDL
MODEL 5
REMARK VINA RESULT:    -7.211      4.173      5.592
REMARK INTER + INTRA:         -10.552
REMARK INTER:                  -9.842
REMARK INTRA:                  -0.710
REMARK UNBOUND:                -0.811
REMARK  Name = 
REMARK  6 active torsions:
REMARK  status: ('A' for Active; 'I' for Inactive)
REMARK    1  A    between atoms: C_2  and  C_19
REMARK    2  A    between atoms: N_3  and  C_4
REMARK    3  A    between atoms: C_4  and  C_5
REMARK    4  A    between atoms: C_8  and  C_9
REMARK    5  A    between atoms: C_9  and  N_10
REMARK    6  A    between atoms: N_10  and  C_11
REMARK                            x       y       z     vdW  Elec       q    Type
REMARK                         _______ _______ _______ _____ _____    ______ ____
ROOT
ATOM      1  C   UNL     1      46.256   4.724  14.037  0.00  0.00    +0.000 C 
ENDROOT
BRANCH   1   2
ATOM      2  C   UNL     1      45.929   5.985  13.296  0.00  0.00    +0.000 A 
ATOM      3  C   UNL     1      44.851   6.042  12.416  0.00  0.00    +0.000 A 
ATOM      4  C   UNL     1      44.544   7.242  11.784  0.00  0.00    +0.000 A 
ATOM      5  C   UNL     1      45.337   8.366  12.022  0.00  0.00    +0.000 A 
ATOM      6  N   UNL     1      46.410   8.323  12.850  0.00  0.00    +0.000 NA
ATOM      7  C   UNL     1      46.686   7.142  13.453  0.00  0.00    +0.000 A 
BRANCH   5   8
ATOM      8  C   UNL     1      44.888   9.698  11.435  0.00  0.00    +0.000 C 
BRANCH   8   9
ATOM      9  N   UNL     1      43.739  10.337  12.081  0.00  0.00    +0.000 NA
ATOM     10  H   UNL     1      44.035  10.999  12.795  0.00  0.00    +0.000 HD
BRANCH   9  11
ATOM     11  C   UNL     1      42.817  10.965  11.123  0.00  0.00    +0.000 C 
ATOM     12  C   UNL     1      41.964  12.115  11.701  0.00  0.00    +0.000 C 
ATOM     13  C   UNL     1      40.763  11.636  12.512  0.00  0.00    +0.000 C 
ATOM     14  C   UNL     1      39.952  10.600  11.741  0.00  0.00    +0.000 C 
ATOM     15  N   UNL     1      40.795   9.463  11.384  0.00  0.00    +0.000 NA
ATOM     16  C   UNL     1      41.889   9.889  10.498  0.00  0.00    +0.000 C 
ATOM     17  H   UNL     1      40.234   8.762  10.902  0.00  0.00    +0.000 HD
ENDBRANCH   9  11
ENDBRANCH   8   9
ENDBRANCH   5   8
ENDBRANCH   1   2
BRANCH   1  20
ATOM     18  O   UNL     1      46.540   3.537  16.580  0.00  0.00    +0.000 OA
ATOM     19  C   UNL     1      47.429   4.276  16.163  0.00  0.00    +0.000 C 
ATOM     20  N   UNL     1      47.347   4.915  14.955  0.00  0.00    +0.000 N 
ATOM     21  H   UNL     1      48.171   5.372  14.579  0.00  0.00    +0.000 HD
BRANCH  19  22
ATOM     22  C   UNL     1      48.626   4.566  16.965  0.00  0.00    +0.000 A 
ATOM     23  C   UNL     1      48.772   5.811  17.562  0.00  0.00    +0.000 A 
ATOM     24  S   UNL     1      50.221   5.981  18.446  0.00  0.00    +0.000 S 
ATOM     25  C   UNL     1      50.684   4.380  18.102  0.00  0.00    +0.000 A 
ATOM     26  N   UNL     1      51.839   3.864  18.600  0.00  0.00    +0.000 NA
ATOM     27  C   UNL     1      52.048   2.626  18.288  0.00  0.00    +0.000 A 
ATOM     28  N   UNL     1      51.214   1.864  17.513  0.00  0.00    +0.000 N 
ATOM     29  C   UNL     1      50.080   2.368  16.923  0.00  0.00    +0.000 A 
ATOM     30  O   UNL     1      49.434   1.703  16.119  0.00  0.00    +0.000 OA
ATOM     31  C   UNL     1      49.766   3.737  17.290  0.00  0.00    +0.000 A 
ATOM     32  H   UNL     1      51.449   0.909  17.281  0.00  0.00    +0.000 HD
ENDBRANCH  19  22
ENDBRANCH   1  20
TORSDOF 6
ENDMDL
MODEL 6
REMARK VINA RESULT:    -7.123      4.276      5.888
REMARK INTER + INTRA:         -10.433
REMARK INTER:                  -9.455
REMARK INTRA:                  -0.978
REMARK UNBOUND:                -0.811
REMARK  Name = 
REMARK  6 active torsions:
REMARK  status: ('A' for Active; 'I' for Inactive)
REMARK    1  A    between atoms: C_2  and  C_19
REMARK    2  A    between atoms: N_3  and  C_4
REMARK    3  A    between atoms: C_4  and  C_5
REMARK    4  A    between atoms: C_8  and  C_9
REMARK    5  A    between atoms: C_9  and  N_10
REMARK    6  A    between atoms: N_10  and  C_11
REMARK                            x       y       z     vdW  Elec       q    Type
REMARK                         _______ _______ _______ _____ _____    ______ ____
ROOT
ATOM      1  C   UNL     1      45.919   4.984  13.257  0.00  0.00    +0.000 C 
ENDROOT
BRANCH   1   2
ATOM      2  C   UNL     1      45.610   6.352  12.729  0.00  0.00    +0.000 A 
ATOM      3  C   UNL     1      44.637   6.541  11.751  0.00  0.00    +0.000 A 
ATOM      4  C   UNL     1      44.338   7.829  11.320  0.00  0.00    +0.000 A 
ATOM      5  C   UNL     1      45.037   8.913  11.858  0.00  0.00    +0.000 A 
ATOM      6  N   UNL     1      46.010   8.746  12.788  0.00  0.00    +0.000 NA
ATOM      7  C   UNL     1      46.280   7.481  13.189  0.00  0.00    +0.000 A 
BRANCH   5   8
ATOM      8  C   UNL     1      44.585  10.317  11.479  0.00  0.00    +0.000 C 
BRANCH   8   9
ATOM      9  N   UNL     1      43.362  10.800  12.123  0.00  0.00    +0.000 NA
ATOM     10  H   UNL     1      43.568  11.486  12.847  0.00  0.00    +0.000 HD
BRANCH   9  11
ATOM     11  C   UNL     1      42.375  11.321  11.165  0.00  0.00    +0.000 C 
ATOM     12  C   UNL     1      41.379  12.346  11.750  0.00  0.00    +0.000 C 
ATOM     13  C   UNL     1      40.243  11.707  12.544  0.00  0.00    +0.000 C 
ATOM     14  C   UNL     1      39.575  10.588  11.752  0.00  0.00    +0.000 C 
ATOM     15  N   UNL     1      40.558   9.571  11.388  0.00  0.00    +0.000 NA
ATOM     16  C   UNL     1      41.595  10.145  10.517  0.00  0.00    +0.000 C 
ATOM     17  H   UNL     1      40.093   8.813  10.891  0.00  0.00    +0.000 HD
ENDBRANCH   9  11
ENDBRANCH   8   9
ENDBRANCH   5   8
ENDBRANCH   1   2
BRANCH   1  20
ATOM     18  O   UNL     1      47.472   2.966  14.471  0.00  0.00    +0.000 OA
ATOM     19  C   UNL     1      47.306   4.029  15.063  0.00  0.00    +0.000 C 
ATOM     20  N   UNL     1      46.538   5.042  14.554  0.00  0.00    +0.000 N 
ATOM     21  H   UNL     1      46.571   5.957  14.992  0.00  0.00    +0.000 HD
BRANCH  19  22
ATOM     22  C   UNL     1      47.886   4.265  16.392  0.00  0.00    +0.000 A 
ATOM     23  C   UNL     1      47.552   3.428  17.449  0.00  0.00    +0.000 A 
ATOM     24  S   UNL     1      48.304   3.850  18.921  0.00  0.00    +0.000 S 
ATOM     25  C   UNL     1      49.140   5.139  18.189  0.00  0.00    +0.000 A 
ATOM     26  N   UNL     1      50.003   5.908  18.903  0.00  0.00    +0.000 NA
ATOM     27  C   UNL     1      50.594   6.828  18.213  0.00  0.00    +0.000 A 
ATOM     28  N   UNL     1      50.389   7.057  16.878  0.00  0.00    +0.000 N 
ATOM     29  C   UNL     1      49.467   6.359  16.137  0.00  0.00    +0.000 A 
ATOM     30  O   UNL     1      49.203   6.682  14.983  0.00  0.00    +0.000 OA
ATOM     31  C   UNL     1      48.818   5.273  16.849  0.00  0.00    +0.000 A 
ATOM     32  H   UNL     1      50.862   7.812  16.402  0.00  0.00    +0.000 HD
ENDBRANCH  19  22
ENDBRANCH   1  20
TORSDOF 6
ENDMDL
MODEL 7
REMARK VINA RESULT:    -6.966      3.520      8.209
REMARK INTER + INTRA:         -10.221
REMARK INTER:                  -9.563
REMARK INTRA:                  -0.657
REMARK UNBOUND:                -0.811
REMARK  Name = 
REMARK  6 active torsions:
REMARK  status: ('A' for Active; 'I' for Inactive)
REMARK    1  A    between atoms: C_2  and  C_19
REMARK    2  A    between atoms: N_3  and  C_4
REMARK    3  A    between atoms: C_4  and  C_5
REMARK    4  A    between atoms: C_8  and  C_9
REMARK    5  A    between atoms: C_9  and  N_10
REMARK    6  A    between atoms: N_10  and  C_11
REMARK                            x       y       z     vdW  Elec       q    Type
REMARK                         _______ _______ _______ _____ _____    ______ ____
ROOT
ATOM      1  C   UNL     1      46.753   8.499  13.196  0.00  0.00    +0.000 C 
ENDROOT
BRANCH   1   2
ATOM      2  C   UNL     1      47.718   7.961  14.207  0.00  0.00    +0.000 A 
ATOM      3  C   UNL     1      48.357   8.806  15.112  0.00  0.00    +0.000 A 
ATOM      4  C   UNL     1      49.207   8.267  16.071  0.00  0.00    +0.000 A 
ATOM      5  C   UNL     1      49.427   6.888  16.098  0.00  0.00    +0.000 A 
ATOM      6  N   UNL     1      48.840   6.053  15.206  0.00  0.00    +0.000 NA
ATOM      7  C   UNL     1      48.017   6.604  14.282  0.00  0.00    +0.000 A 
BRANCH   5   8
ATOM      8  C   UNL     1      50.242   6.314  17.250  0.00  0.00    +0.000 C 
BRANCH   8   9
ATOM      9  N   UNL     1      50.776   4.964  17.055  0.00  0.00    +0.000 NA
ATOM     10  H   UNL     1      51.794   4.965  17.043  0.00  0.00    +0.000 HD
BRANCH   9  11
ATOM     11  C   UNL     1      50.257   3.994  18.031  0.00  0.00    +0.000 C 
ATOM     12  C   UNL     1      50.058   2.564  17.483  0.00  0.00    +0.000 C 
ATOM     13  C   UNL     1      48.780   2.396  16.665  0.00  0.00    +0.000 C 
ATOM     14  C   UNL     1      47.568   2.938  17.414  0.00  0.00    +0.000 C 
ATOM     15  N   UNL     1      47.766   4.347  17.741  0.00  0.00    +0.000 NA
ATOM     16  C   UNL     1      48.923   4.513  18.634  0.00  0.00    +0.000 C 
ATOM     17  H   UNL     1      46.935   4.707  18.210  0.00  0.00    +0.000 HD
ENDBRANCH   9  11
ENDBRANCH   8   9
ENDBRANCH   5   8
ENDBRANCH   1   2
BRANCH   1  20
ATOM     18  O   UNL     1      47.762   7.056  10.992  0.00  0.00    +0.000 OA
ATOM     19  C   UNL     1      46.655   6.767  11.440  0.00  0.00    +0.000 C 
ATOM     20  N   UNL     1      46.084   7.443  12.484  0.00  0.00    +0.000 N 
ATOM     21  H   UNL     1      45.255   7.062  12.927  0.00  0.00    +0.000 HD
BRANCH  19  22
ATOM     22  C   UNL     1      45.843   5.697  10.843  0.00  0.00    +0.000 A 
ATOM     23  C   UNL     1      45.845   5.515   9.467  0.00  0.00    +0.000 A 
ATOM     24  S   UNL     1      44.840   4.239   8.943  0.00  0.00    +0.000 S 
ATOM     25  C   UNL     1      44.403   3.853  10.542  0.00  0.00    +0.000 A 
ATOM     26  N   UNL     1      43.571   2.811  10.807  0.00  0.00    +0.000 NA
ATOM     27  C   UNL     1      43.352   2.611  12.066  0.00  0.00    +0.000 A 
ATOM     28  N   UNL     1      43.876   3.367  13.080  0.00  0.00    +0.000 N 
ATOM     29  C   UNL     1      44.653   4.477  12.855  0.00  0.00    +0.000 A 
ATOM     30  O   UNL     1      44.988   5.216  13.776  0.00  0.00    +0.000 OA
ATOM     31  C   UNL     1      44.981   4.712  11.461  0.00  0.00    +0.000 A 
ATOM     32  H   UNL     1      43.643   3.177  14.045  0.00  0.00    +0.000 HD
ENDBRANCH  19  22
ENDBRANCH   1  20
TORSDOF 6
ENDMDL
MODEL 8
REMARK VINA RESULT:    -6.900      4.398      9.065
REMARK INTER + INTRA:         -10.132
REMARK INTER:                  -8.931
REMARK INTRA:                  -1.201
REMARK UNBOUND:                -0.811
REMARK  Name = 
REMARK  6 active torsions:
REMARK  status: ('A' for Active; 'I' for Inactive)
REMARK    1  A    between atoms: C_2  and  C_19
REMARK    2  A    between atoms: N_3  and  C_4
REMARK    3  A    between atoms: C_4  and  C_5
REMARK    4  A    between atoms: C_8  and  C_9
REMARK    5  A    between atoms: C_9  and  N_10
REMARK    6  A    between atoms: N_10  and  C_11
REMARK                            x       y       z     vdW  Elec       q    Type
REMARK                         _______ _______ _______ _____ _____    ______ ____
ROOT
ATOM      1  C   UNL     1      47.263   3.580  16.933  0.00  0.00    +0.000 C 
ENDROOT
BRANCH   1   2
ATOM      2  C   UNL     1      48.703   3.485  17.336  0.00  0.00    +0.000 A 
ATOM      3  C   UNL     1      49.468   2.367  17.009  0.00  0.00    +0.000 A 
ATOM      4  C   UNL     1      50.815   2.333  17.353  0.00  0.00    +0.000 A 
ATOM      5  C   UNL     1      51.376   3.410  18.043  0.00  0.00    +0.000 A 
ATOM      6  N   UNL     1      50.640   4.493  18.398  0.00  0.00    +0.000 NA
ATOM      7  C   UNL     1      49.331   4.500  18.050  0.00  0.00    +0.000 A 
BRANCH   5   8
ATOM      8  C   UNL     1      52.881   3.410  18.272  0.00  0.00    +0.000 C 
BRANCH   8   9
ATOM      9  N   UNL     1      53.402   2.359  19.150  0.00  0.00    +0.000 NA
ATOM     10  H   UNL     1      52.719   1.617  19.288  0.00  0.00    +0.000 HD
BRANCH   9  11
ATOM     11  C   UNL     1      54.691   1.817  18.694  0.00  0.00    +0.000 C 
ATOM     12  C   UNL     1      54.740   1.424  17.201  0.00  0.00    +0.000 C 
ATOM     13  C   UNL     1      54.089   0.075  16.904  0.00  0.00    +0.000 C 
ATOM     14  C   UNL     1      54.612  -1.009  17.839  0.00  0.00    +0.000 C 
ATOM     15  N   UNL     1      54.368  -0.637  19.230  0.00  0.00    +0.000 NA
ATOM     16  C   UNL     1      55.091   0.598  19.569  0.00  0.00    +0.000 C 
ATOM     17  H   UNL     1      54.689  -1.385  19.843  0.00  0.00    +0.000 HD
ENDBRANCH   9  11
ENDBRANCH   8   9
ENDBRANCH   5   8
ENDBRANCH   1   2
BRANCH   1  20
ATOM     18  O   UNL     1      47.284   3.145  14.146  0.00  0.00    +0.000 OA
ATOM     19  C   UNL     1      47.056   4.274  14.573  0.00  0.00    +0.000 C 
ATOM     20  N   UNL     1      47.063   4.571  15.909  0.00  0.00    +0.000 N 
ATOM     21  H   UNL     1      46.703   5.467  16.220  0.00  0.00    +0.000 HD
BRANCH  19  22
ATOM     22  C   UNL     1      46.809   5.403  13.664  0.00  0.00    +0.000 A 
ATOM     23  C   UNL     1      45.711   5.377  12.814  0.00  0.00    +0.000 A 
ATOM     24  S   UNL     1      45.580   6.758  11.821  0.00  0.00    +0.000 S 
ATOM     25  C   UNL     1      46.960   7.463  12.525  0.00  0.00    +0.000 A 
ATOM     26  N   UNL     1      47.388   8.695  12.142  0.00  0.00    +0.000 NA
ATOM     27  C   UNL     1      48.427   9.121  12.784  0.00  0.00    +0.000 A 
ATOM     28  N   UNL     1      49.083   8.422  13.761  0.00  0.00    +0.000 N 
ATOM     29  C   UNL     1      48.735   7.143  14.121  0.00  0.00    +0.000 A 
ATOM     30  O   UNL     1      49.429   6.490  14.895  0.00  0.00    +0.000 OA
ATOM     31  C   UNL     1      47.538   6.638  13.475  0.00  0.00    +0.000 A 
ATOM     32  H   UNL     1      49.908   8.800  14.206  0.00  0.00    +0.000 HD
ENDBRANCH  19  22
ENDBRANCH   1  20
TORSDOF 6
ENDMDL
MODEL 9
REMARK VINA RESULT:    -6.820      2.612      4.203
REMARK INTER + INTRA:         -10.024
REMARK INTER:                  -9.211
REMARK INTRA:                  -0.813
REMARK UNBOUND:                -0.811
REMARK  Name = 
REMARK  6 active torsions:
REMARK  status: ('A' for Active; 'I' for Inactive)
REMARK    1  A    between atoms: C_2  and  C_19
REMARK    2  A    between atoms: N_3  and  C_4
REMARK    3  A    between atoms: C_4  and  C_5
REMARK    4  A    between atoms: C_8  and  C_9
REMARK    5  A    between atoms: C_9  and  N_10
REMARK    6  A    between atoms: N_10  and  C_11
REMARK                            x       y       z     vdW  Elec       q    Type
REMARK                         _______ _______ _______ _____ _____    ______ ____
ROOT
ATOM      1  C   UNL     1      44.966   5.247  13.439  0.00  0.00    +0.000 C 
ENDROOT
BRANCH   1   2
ATOM      2  C   UNL     1      44.855   4.731  12.036  0.00  0.00    +0.000 A 
ATOM      3  C   UNL     1      45.427   5.421  10.970  0.00  0.00    +0.000 A 
ATOM      4  C   UNL     1      45.351   4.889   9.688  0.00  0.00    +0.000 A 
ATOM      5  C   UNL     1      44.680   3.681   9.484  0.00  0.00    +0.000 A 
ATOM      6  N   UNL     1      44.089   3.010  10.504  0.00  0.00    +0.000 NA
ATOM      7  C   UNL     1      44.179   3.551  11.743  0.00  0.00    +0.000 A 
BRANCH   5   8
ATOM      8  C   UNL     1      44.742   3.050   8.099  0.00  0.00    +0.000 C 
BRANCH   8   9
ATOM      9  N   UNL     1      45.443   1.768   8.003  0.00  0.00    +0.000 NA
ATOM     10  H   UNL     1      45.002   1.152   7.323  0.00  0.00    +0.000 HD
BRANCH   9  11
ATOM     11  C   UNL     1      46.880   1.919   7.728  0.00  0.00    +0.000 C 
ATOM     12  C   UNL     1      47.255   3.164   6.895  0.00  0.00    +0.000 C 
ATOM     13  C   UNL     1      47.006   2.993   5.398  0.00  0.00    +0.000 C 
ATOM     14  C   UNL     1      47.624   1.701   4.878  0.00  0.00    +0.000 C 
ATOM     15  N   UNL     1      47.083   0.555   5.604  0.00  0.00    +0.000 NA
ATOM     16  C   UNL     1      47.423   0.641   7.032  0.00  0.00    +0.000 C 
ATOM     17  H   UNL     1      47.476  -0.305   5.223  0.00  0.00    +0.000 HD
ENDBRANCH   9  11
ENDBRANCH   8   9
ENDBRANCH   5   8
ENDBRANCH   1   2
BRANCH   1  20
ATOM     18  O   UNL     1      47.458   4.345  14.405  0.00  0.00    +0.000 OA
ATOM     19  C   UNL     1      47.338   5.519  14.067  0.00  0.00    +0.000 C 
ATOM     20  N   UNL     1      46.153   6.039  13.621  0.00  0.00    +0.000 N 
ATOM     21  H   UNL     1      46.145   6.959  13.193  0.00  0.00    +0.000 HD
BRANCH  19  22
ATOM     22  C   UNL     1      48.459   6.465  14.169  0.00  0.00    +0.000 A 
ATOM     23  C   UNL     1      48.940   7.091  13.026  0.00  0.00    +0.000 A 
ATOM     24  S   UNL     1      50.247   8.147  13.322  0.00  0.00    +0.000 S 
ATOM     25  C   UNL     1      50.186   7.842  14.995  0.00  0.00    +0.000 A 
ATOM     26  N   UNL     1      51.035   8.471  15.852  0.00  0.00    +0.000 NA
ATOM     27  C   UNL     1      50.855   8.171  17.097  0.00  0.00    +0.000 A 
ATOM     28  N   UNL     1      49.914   7.291  17.560  0.00  0.00    +0.000 N 
ATOM     29  C   UNL     1      49.091   6.573  16.726  0.00  0.00    +0.000 A 
ATOM     30  O   UNL     1      48.360   5.688  17.161  0.00  0.00    +0.000 OA
ATOM     31  C   UNL     1      49.210   6.916  15.320  0.00  0.00    +0.000 A 
ATOM     32  H   UNL     1      49.842   7.077  18.545  0.00  0.00    +0.000 HD
ENDBRANCH  19  22
ENDBRANCH   1  20
TORSDOF 6
ENDMDL
