MODEL 1
REMARK VINA RESULT:    -8.079      0.000      0.000
REMARK INTER + INTRA:         -12.693
REMARK INTER:                 -11.385
REMARK INTRA:                  -1.308
REMARK UNBOUND:                -1.308
REMARK  Name = 
REMARK  9 active torsions:
REMARK  status: ('A' for Active; 'I' for Inactive)
REMARK    1  A    between atoms: C_1  and  C_2
REMARK    2  A    between atoms: C_2  and  C_3
REMARK    3  A    between atoms: C_2  and  O_4
REMARK    4  A    between atoms: O_4  and  C_5
REMARK    5  A    between atoms: C_9  and  C_10
REMARK    6  A    between atoms: C_10  and  C_11
REMARK    7  A    between atoms: C_14  and  C_15
REMARK    8  A    between atoms: C_15  and  N_16
REMARK    9  A    between atoms: C_17  and  C_19
REMARK                            x       y       z     vdW  Elec       q    Type
REMARK                         _______ _______ _______ _____ _____    ______ ____
ROOT
ATOM      1  C   UNL     1      46.937   1.884   6.820  0.00  0.00    +0.000 A 
ATOM      2  C   UNL     1      46.331   1.188   7.876  0.00  0.00    +0.000 A 
ATOM      3  C   UNL     1      45.495   1.852   8.781  0.00  0.00    +0.000 A 
ATOM      4  C   UNL     1      45.242   3.222   8.638  0.00  0.00    +0.000 A 
ATOM      5  C   UNL     1      45.902   3.929   7.626  0.00  0.00    +0.000 A 
ATOM      6  C   UNL     1      46.733   3.266   6.720  0.00  0.00    +0.000 A 
ENDROOT
BRANCH   1   7
ATOM      7  C   UNL     1      47.800   1.167   5.811  0.00  0.00    +0.000 C 
BRANCH   7  12
ATOM      8  C   UNL     1      46.217  -1.186   3.213  0.00  0.00    +0.000 A 
ATOM      9  C   UNL     1      45.502  -0.269   2.450  0.00  0.00    +0.000 A 
ATOM     10  C   UNL     1      45.616   1.102   2.696  0.00  0.00    +0.000 A 
ATOM     11  C   UNL     1      46.409   1.564   3.744  0.00  0.00    +0.000 A 
ATOM     12  C   UNL     1      47.085   0.663   4.574  0.00  0.00    +0.000 A 
ATOM     13  C   UNL     1      47.017  -0.711   4.269  0.00  0.00    +0.000 A 
BRANCH   8  14
ATOM     14  O   UNL     1      46.217  -2.543   3.042  0.00  0.00    +0.000 OA
BRANCH  14  16
ATOM     15  C   UNL     1      46.508  -4.370   4.564  0.00  0.00    +0.000 C 
ATOM     16  C   UNL     1      47.218  -3.332   3.698  0.00  0.00    +0.000 C 
ATOM     17  C   UNL     1      48.094  -4.027   2.658  0.00  0.00    +0.000 C 
ENDBRANCH  14  16
ENDBRANCH   8  14
ENDBRANCH   7  12
ENDBRANCH   1   7
BRANCH   4  18
ATOM     18  C   UNL     1      44.276   3.930   9.550  0.00  0.00    +0.000 C 
BRANCH  18  19
ATOM     19  N   UNL     1      44.883   5.057  10.205  0.00  0.00    +0.000 N 
ATOM     20  C   UNL     1      44.141   5.871  11.025  0.00  0.00    +0.000 C 
ATOM     21  O   UNL     1      42.956   5.645  11.265  0.00  0.00    +0.000 OA
ATOM     22  H   UNL     1      45.768   5.388   9.837  0.00  0.00    +0.000 HD
BRANCH  20  23
ATOM     23  C   UNL     1      44.840   7.000  11.650  0.00  0.00    +0.000 A 
ATOM     24  C   UNL     1      44.464   8.296  11.329  0.00  0.00    +0.000 A 
ATOM     25  S   UNL     1      45.330   9.492  12.187  0.00  0.00    +0.000 S 
ATOM     26  C   UNL     1      46.273   8.318  12.977  0.00  0.00    +0.000 A 
ATOM     27  N   UNL     1      47.245   8.678  13.857  0.00  0.00    +0.000 NA
ATOM     28  C   UNL     1      47.905   7.689  14.358  0.00  0.00    +0.000 A 
ATOM     29  N   UNL     1      47.681   6.370  14.060  0.00  0.00    +0.000 N 
ATOM     30  C   UNL     1      46.700   5.955  13.193  0.00  0.00    +0.000 A 
ATOM     31  O   UNL     1      46.501   4.764  12.974  0.00  0.00    +0.000 OA
ATOM     32  C   UNL     1      45.925   7.032  12.602  0.00  0.00    +0.000 A 
ATOM     33  H   UNL     1      48.235   5.641  14.487  0.00  0.00    +0.000 HD
ENDBRANCH  20  23
ENDBRANCH  18  19
ENDBRANCH   4  18
TORSDOF 7
ENDMDL
MODEL 2
REMARK VINA RESULT:    -8.056      1.346      2.045
REMARK INTER + INTRA:         -12.660
REMARK INTER:                 -11.240
REMARK INTRA:                  -1.420
REMARK UNBOUND:                -1.308
REMARK  Name = 
REMARK  9 active torsions:
REMARK  status: ('A' for Active; 'I' for Inactive)
REMARK    1  A    between atoms: C_1  and  C_2
REMARK    2  A    between atoms: C_2  and  C_3
REMARK    3  A    between atoms: C_2  and  O_4
REMARK    4  A    between atoms: O_4  and  C_5
REMARK    5  A    between atoms: C_9  and  C_10
REMARK    6  A    between atoms: C_10  and  C_11
REMARK    7  A    between atoms: C_14  and  C_15
REMARK    8  A    between atoms: C_15  and  N_16
REMARK    9  A    between atoms: C_17  and  C_19
REMARK                            x       y       z     vdW  Elec       q    Type
REMARK                         _______ _______ _______ _____ _____    ______ ____
ROOT
ATOM      1  C   UNL     1      46.988   1.745   6.256  0.00  0.00    +0.000 A 
ATOM      2  C   UNL     1      46.759   0.860   7.320  0.00  0.00    +0.000 A 
ATOM      3  C   UNL     1      46.016   1.263   8.435  0.00  0.00    +0.000 A 
ATOM      4  C   UNL     1      45.481   2.555   8.502  0.00  0.00    +0.000 A 
ATOM      5  C   UNL     1      45.769   3.460   7.472  0.00  0.00    +0.000 A 
ATOM      6  C   UNL     1      46.507   3.056   6.357  0.00  0.00    +0.000 A 
ENDROOT
BRANCH   1   7
ATOM      7  C   UNL     1      47.746   1.303   5.028  0.00  0.00    +0.000 C 
BRANCH   7  12
ATOM      8  C   UNL     1      46.078  -1.422   2.888  0.00  0.00    +0.000 A 
ATOM      9  C   UNL     1      45.162  -0.654   2.177  0.00  0.00    +0.000 A 
ATOM     10  C   UNL     1      45.156   0.738   2.299  0.00  0.00    +0.000 A 
ATOM     11  C   UNL     1      46.035   1.371   3.175  0.00  0.00    +0.000 A 
ATOM     12  C   UNL     1      46.920   0.621   3.957  0.00  0.00    +0.000 A 
ATOM     13  C   UNL     1      46.963  -0.775   3.771  0.00  0.00    +0.000 A 
BRANCH   8  14
ATOM     14  O   UNL     1      46.205  -2.783   2.821  0.00  0.00    +0.000 OA
BRANCH  14  16
ATOM     15  C   UNL     1      46.553  -4.382   4.570  0.00  0.00    +0.000 C 
ATOM     16  C   UNL     1      47.229  -3.428   3.588  0.00  0.00    +0.000 C 
ATOM     17  C   UNL     1      48.161  -4.205   2.659  0.00  0.00    +0.000 C 
ENDBRANCH  14  16
ENDBRANCH   8  14
ENDBRANCH   7  12
ENDBRANCH   1   7
BRANCH   4  18
ATOM     18  C   UNL     1      44.606   2.973   9.654  0.00  0.00    +0.000 C 
BRANCH  18  19
ATOM     19  N   UNL     1      45.158   4.092  10.368  0.00  0.00    +0.000 N 
ATOM     20  C   UNL     1      45.346   4.030  11.727  0.00  0.00    +0.000 C 
ATOM     21  O   UNL     1      45.095   3.012  12.371  0.00  0.00    +0.000 OA
ATOM     22  H   UNL     1      45.141   4.994   9.905  0.00  0.00    +0.000 HD
BRANCH  20  23
ATOM     23  C   UNL     1      45.911   5.219  12.376  0.00  0.00    +0.000 A 
ATOM     24  C   UNL     1      47.027   5.086  13.188  0.00  0.00    +0.000 A 
ATOM     25  S   UNL     1      47.598   6.568  13.814  0.00  0.00    +0.000 S 
ATOM     26  C   UNL     1      46.338   7.431  13.064  0.00  0.00    +0.000 A 
ATOM     27  N   UNL     1      46.226   8.777  13.216  0.00  0.00    +0.000 NA
ATOM     28  C   UNL     1      45.207   9.299  12.620  0.00  0.00    +0.000 A 
ATOM     29  N   UNL     1      44.288   8.596  11.885  0.00  0.00    +0.000 N 
ATOM     30  C   UNL     1      44.370   7.239  11.687  0.00  0.00    +0.000 A 
ATOM     31  O   UNL     1      43.550   6.643  10.994  0.00  0.00    +0.000 OA
ATOM     32  C   UNL     1      45.502   6.602  12.336  0.00  0.00    +0.000 A 
ATOM     33  H   UNL     1      43.511   9.065  11.443  0.00  0.00    +0.000 HD
ENDBRANCH  20  23
ENDBRANCH  18  19
ENDBRANCH   4  18
TORSDOF 7
ENDMDL
MODEL 3
REMARK VINA RESULT:    -7.582      3.626      6.648
REMARK INTER + INTRA:         -11.992
REMARK INTER:                 -10.664
REMARK INTRA:                  -1.328
REMARK UNBOUND:                -1.308
REMARK  Name = 
REMARK  9 active torsions:
REMARK  status: ('A' for Active; 'I' for Inactive)
REMARK    1  A    between atoms: C_1  and  C_2
REMARK    2  A    between atoms: C_2  and  C_3
REMARK    3  A    between atoms: C_2  and  O_4
REMARK    4  A    between atoms: O_4  and  C_5
REMARK    5  A    between atoms: C_9  and  C_10
REMARK    6  A    between atoms: C_10  and  C_11
REMARK    7  A    between atoms: C_14  and  C_15
REMARK    8  A    between atoms: C_15  and  N_16
REMARK    9  A    between atoms: C_17  and  C_19
REMARK                            x       y       z     vdW  Elec       q    Type
REMARK                         _______ _______ _______ _____ _____    ______ ____
ROOT
ATOM      1  C   UNL     1      44.784   6.294  11.240  0.00  0.00    +0.000 A 
ATOM      2  C   UNL     1      45.949   5.635  11.658  0.00  0.00    +0.000 A 
ATOM      3  C   UNL     1      46.897   6.294  12.447  0.00  0.00    +0.000 A 
ATOM      4  C   UNL     1      46.692   7.622  12.842  0.00  0.00    +0.000 A 
ATOM      5  C   UNL     1      45.563   8.301  12.366  0.00  0.00    +0.000 A 
ATOM      6  C   UNL     1      44.615   7.641  11.582  0.00  0.00    +0.000 A 
ENDROOT
BRANCH   1   7
ATOM      7  C   UNL     1      43.732   5.575  10.431  0.00  0.00    +0.000 C 
BRANCH   7  12
ATOM      8  C   UNL     1      45.469   3.139   8.015  0.00  0.00    +0.000 A 
ATOM      9  C   UNL     1      45.266   1.937   8.685  0.00  0.00    +0.000 A 
ATOM     10  C   UNL     1      44.481   1.892   9.840  0.00  0.00    +0.000 A 
ATOM     11  C   UNL     1      43.936   3.062  10.366  0.00  0.00    +0.000 A 
ATOM     12  C   UNL     1      44.182   4.296   9.755  0.00  0.00    +0.000 A 
ATOM     13  C   UNL     1      44.915   4.316   8.552  0.00  0.00    +0.000 A 
BRANCH   8  14
ATOM     14  O   UNL     1      46.182   3.300   6.858  0.00  0.00    +0.000 OA
BRANCH  14  16
ATOM     15  C   UNL     1      46.938   2.441   4.754  0.00  0.00    +0.000 C 
ATOM     16  C   UNL     1      46.794   2.157   6.248  0.00  0.00    +0.000 C 
ATOM     17  C   UNL     1      48.166   1.909   6.870  0.00  0.00    +0.000 C 
ENDBRANCH  14  16
ENDBRANCH   8  14
ENDBRANCH   7  12
ENDBRANCH   1   7
BRANCH   4  18
ATOM     18  C   UNL     1      47.660   8.315  13.763  0.00  0.00    +0.000 C 
BRANCH  18  19
ATOM     19  N   UNL     1      47.919   7.542  14.948  0.00  0.00    +0.000 N 
ATOM     20  C   UNL     1      49.157   6.985  15.162  0.00  0.00    +0.000 C 
ATOM     21  O   UNL     1      50.091   7.161  14.381  0.00  0.00    +0.000 OA
ATOM     22  H   UNL     1      47.118   7.195  15.462  0.00  0.00    +0.000 HD
BRANCH  20  23
ATOM     23  C   UNL     1      49.333   6.210  16.395  0.00  0.00    +0.000 A 
ATOM     24  C   UNL     1      50.347   6.553  17.277  0.00  0.00    +0.000 A 
ATOM     25  S   UNL     1      50.378   5.596  18.690  0.00  0.00    +0.000 S 
ATOM     26  C   UNL     1      49.069   4.656  18.146  0.00  0.00    +0.000 A 
ATOM     27  N   UNL     1      48.593   3.623  18.892  0.00  0.00    +0.000 NA
ATOM     28  C   UNL     1      47.620   2.975  18.345  0.00  0.00    +0.000 A 
ATOM     29  N   UNL     1      47.079   3.265  17.119  0.00  0.00    +0.000 N 
ATOM     30  C   UNL     1      47.513   4.308  16.339  0.00  0.00    +0.000 A 
ATOM     31  O   UNL     1      46.984   4.564  15.261  0.00  0.00    +0.000 OA
ATOM     32  C   UNL     1      48.607   5.073  16.910  0.00  0.00    +0.000 A 
ATOM     33  H   UNL     1      46.317   2.716  16.747  0.00  0.00    +0.000 HD
ENDBRANCH  20  23
ENDBRANCH  18  19
ENDBRANCH   4  18
TORSDOF 7
ENDMDL
MODEL 4
REMARK VINA RESULT:    -7.419      4.090      7.479
REMARK INTER + INTRA:         -11.762
REMARK INTER:                 -10.144
REMARK INTRA:                  -1.618
REMARK UNBOUND:                -1.308
REMARK  Name = 
REMARK  9 active torsions:
REMARK  status: ('A' for Active; 'I' for Inactive)
REMARK    1  A    between atoms: C_1  and  C_2
REMARK    2  A    between atoms: C_2  and  C_3
REMARK    3  A    between atoms: C_2  and  O_4
REMARK    4  A    between atoms: O_4  and  C_5
REMARK    5  A    between atoms: C_9  and  C_10
REMARK    6  A    between atoms: C_10  and  C_11
REMARK    7  A    between atoms: C_14  and  C_15
REMARK    8  A    between atoms: C_15  and  N_16
REMARK    9  A    between atoms: C_17  and  C_19
REMARK                            x       y       z     vdW  Elec       q    Type
REMARK                         _______ _______ _______ _____ _____    ______ ____
ROOT
ATOM      1  C   UNL     1      45.379   7.194  11.736  0.00  0.00    +0.000 A 
ATOM      2  C   UNL     1      46.578   6.497  11.526  0.00  0.00    +0.000 A 
ATOM      3  C   UNL     1      47.760   6.906  12.151  0.00  0.00    +0.000 A 
ATOM      4  C   UNL     1      47.763   8.015  13.007  0.00  0.00    +0.000 A 
ATOM      5  C   UNL     1      46.582   8.752  13.161  0.00  0.00    +0.000 A 
ATOM      6  C   UNL     1      45.401   8.340  12.540  0.00  0.00    +0.000 A 
ENDROOT
BRANCH   1   7
ATOM      7  C   UNL     1      44.089   6.731  11.105  0.00  0.00    +0.000 C 
BRANCH   7  12
ATOM      8  C   UNL     1      44.200   3.110   9.815  0.00  0.00    +0.000 A 
ATOM      9  C   UNL     1      43.840   2.423  10.970  0.00  0.00    +0.000 A 
ATOM     10  C   UNL     1      43.455   3.119  12.119  0.00  0.00    +0.000 A 
ATOM     11  C   UNL     1      43.477   4.512  12.138  0.00  0.00    +0.000 A 
ATOM     12  C   UNL     1      43.903   5.230  11.015  0.00  0.00    +0.000 A 
ATOM     13  C   UNL     1      44.220   4.517   9.842  0.00  0.00    +0.000 A 
BRANCH   8  14
ATOM     14  O   UNL     1      44.557   2.540   8.623  0.00  0.00    +0.000 OA
BRANCH  14  16
ATOM     15  C   UNL     1      46.352   1.090   7.983  0.00  0.00    +0.000 C 
ATOM     16  C   UNL     1      45.936   2.538   8.233  0.00  0.00    +0.000 C 
ATOM     17  C   UNL     1      46.117   3.363   6.961  0.00  0.00    +0.000 C 
ENDBRANCH  14  16
ENDBRANCH   8  14
ENDBRANCH   7  12
ENDBRANCH   1   7
BRANCH   4  18
ATOM     18  C   UNL     1      49.007   8.412  13.755  0.00  0.00    +0.000 C 
BRANCH  18  19
ATOM     19  N   UNL     1      49.209   7.606  14.928  0.00  0.00    +0.000 N 
ATOM     20  C   UNL     1      48.768   8.037  16.156  0.00  0.00    +0.000 C 
ATOM     21  O   UNL     1      48.153   9.094  16.290  0.00  0.00    +0.000 OA
ATOM     22  H   UNL     1      49.906   6.873  14.875  0.00  0.00    +0.000 HD
BRANCH  20  23
ATOM     23  C   UNL     1      49.018   7.153  17.300  0.00  0.00    +0.000 A 
ATOM     24  C   UNL     1      49.617   7.667  18.440  0.00  0.00    +0.000 A 
ATOM     25  S   UNL     1      49.779   6.528  19.701  0.00  0.00    +0.000 S 
ATOM     26  C   UNL     1      49.104   5.294  18.745  0.00  0.00    +0.000 A 
ATOM     27  N   UNL     1      48.970   4.030  19.227  0.00  0.00    +0.000 NA
ATOM     28  C   UNL     1      48.473   3.187  18.385  0.00  0.00    +0.000 A 
ATOM     29  N   UNL     1      48.098   3.493  17.103  0.00  0.00    +0.000 N 
ATOM     30  C   UNL     1      48.196   4.758  16.577  0.00  0.00    +0.000 A 
ATOM     31  O   UNL     1      47.818   5.009  15.437  0.00  0.00    +0.000 OA
ATOM     32  C   UNL     1      48.748   5.747  17.487  0.00  0.00    +0.000 A 
ATOM     33  H   UNL     1      47.715   2.786  16.493  0.00  0.00    +0.000 HD
ENDBRANCH  20  23
ENDBRANCH  18  19
ENDBRANCH   4  18
TORSDOF 7
ENDMDL
MODEL 5
REMARK VINA RESULT:    -7.210      4.159      7.476
REMARK INTER + INTRA:         -11.468
REMARK INTER:                 -10.351
REMARK INTRA:                  -1.117
REMARK UNBOUND:                -1.308
REMARK  Name = 
REMARK  9 active torsions:
REMARK  status: ('A' for Active; 'I' for Inactive)
REMARK    1  A    between atoms: C_1  and  C_2
REMARK    2  A    between atoms: C_2  and  C_3
REMARK    3  A    between atoms: C_2  and  O_4
REMARK    4  A    between atoms: O_4  and  C_5
REMARK    5  A    between atoms: C_9  and  C_10
REMARK    6  A    between atoms: C_10  and  C_11
REMARK    7  A    between atoms: C_14  and  C_15
REMARK    8  A    between atoms: C_15  and  N_16
REMARK    9  A    between atoms: C_17  and  C_19
REMARK                            x       y       z     vdW  Elec       q    Type
REMARK                         _______ _______ _______ _____ _____    ______ ____
ROOT
ATOM      1  C   UNL     1      45.535   6.205  11.990  0.00  0.00    +0.000 A 
ATOM      2  C   UNL     1      46.023   7.502  12.207  0.00  0.00    +0.000 A 
ATOM      3  C   UNL     1      47.073   7.728  13.103  0.00  0.00    +0.000 A 
ATOM      4  C   UNL     1      47.663   6.659  13.790  0.00  0.00    +0.000 A 
ATOM      5  C   UNL     1      47.129   5.375  13.625  0.00  0.00    +0.000 A 
ATOM      6  C   UNL     1      46.083   5.149  12.728  0.00  0.00    +0.000 A 
ENDROOT
BRANCH   1   7
ATOM      7  C   UNL     1      44.435   5.945  10.990  0.00  0.00    +0.000 C 
BRANCH   7  12
ATOM      8  C   UNL     1      45.636   3.414   8.356  0.00  0.00    +0.000 A 
ATOM      9  C   UNL     1      45.063   2.248   8.852  0.00  0.00    +0.000 A 
ATOM     10  C   UNL     1      44.206   2.292   9.954  0.00  0.00    +0.000 A 
ATOM     11  C   UNL     1      43.958   3.499  10.604  0.00  0.00    +0.000 A 
ATOM     12  C   UNL     1      44.575   4.677  10.173  0.00  0.00    +0.000 A 
ATOM     13  C   UNL     1      45.380   4.630   9.017  0.00  0.00    +0.000 A 
BRANCH   8  14
ATOM     14  O   UNL     1      46.456   3.502   7.263  0.00  0.00    +0.000 OA
BRANCH  14  16
ATOM     15  C   UNL     1      47.045   2.799   5.051  0.00  0.00    +0.000 C 
ATOM     16  C   UNL     1      46.677   2.337   6.459  0.00  0.00    +0.000 C 
ATOM     17  C   UNL     1      47.813   1.506   7.051  0.00  0.00    +0.000 C 
ENDBRANCH  14  16
ENDBRANCH   8  14
ENDBRANCH   7  12
ENDBRANCH   1   7
BRANCH   4  18
ATOM     18  C   UNL     1      48.851   6.877  14.688  0.00  0.00    +0.000 C 
BRANCH  18  19
ATOM     19  N   UNL     1      48.526   6.653  16.071  0.00  0.00    +0.000 N 
ATOM     20  C   UNL     1      49.425   6.039  16.908  0.00  0.00    +0.000 C 
ATOM     21  O   UNL     1      50.543   5.701  16.524  0.00  0.00    +0.000 OA
ATOM     22  H   UNL     1      47.548   6.703  16.333  0.00  0.00    +0.000 HD
BRANCH  20  23
ATOM     23  C   UNL     1      49.010   5.848  18.303  0.00  0.00    +0.000 A 
ATOM     24  C   UNL     1      49.176   4.607  18.899  0.00  0.00    +0.000 A 
ATOM     25  S   UNL     1      48.705   4.567  20.539  0.00  0.00    +0.000 S 
ATOM     26  C   UNL     1      48.212   6.194  20.493  0.00  0.00    +0.000 A 
ATOM     27  N   UNL     1      47.680   6.795  21.590  0.00  0.00    +0.000 NA
ATOM     28  C   UNL     1      47.320   8.021  21.405  0.00  0.00    +0.000 A 
ATOM     29  N   UNL     1      47.444   8.701  20.221  0.00  0.00    +0.000 N 
ATOM     30  C   UNL     1      47.991   8.143  19.092  0.00  0.00    +0.000 A 
ATOM     31  O   UNL     1      48.121   8.790  18.057  0.00  0.00    +0.000 OA
ATOM     32  C   UNL     1      48.416   6.763  19.248  0.00  0.00    +0.000 A 
ATOM     33  H   UNL     1      47.141   9.661  20.142  0.00  0.00    +0.000 HD
ENDBRANCH  20  23
ENDBRANCH  18  19
ENDBRANCH   4  18
TORSDOF 7
ENDMDL
MODEL 6
REMARK VINA RESULT:    -7.150      1.836      2.200
REMARK INTER + INTRA:         -11.383
REMARK INTER:                 -10.114
REMARK INTRA:                  -1.269
REMARK UNBOUND:                -1.308
REMARK  Name = 
REMARK  9 active torsions:
REMARK  status: ('A' for Active; 'I' for Inactive)
REMARK    1  A    between atoms: C_1  and  C_2
REMARK    2  A    between atoms: C_2  and  C_3
REMARK    3  A    between atoms: C_2  and  O_4
REMARK    4  A    between atoms: O_4  and  C_5
REMARK    5  A    between atoms: C_9  and  C_10
REMARK    6  A    between atoms: C_10  and  C_11
REMARK    7  A    between atoms: C_14  and  C_15
REMARK    8  A    between atoms: C_15  and  N_16
REMARK    9  A    between atoms: C_17  and  C_19
REMARK                            x       y       z     vdW  Elec       q    Type
REMARK                         _______ _______ _______ _____ _____    ______ ____
ROOT
ATOM      1  C   UNL     1      46.856   2.380   6.403  0.00  0.00    +0.000 A 
ATOM      2  C   UNL     1      46.616   1.274   7.231  0.00  0.00    +0.000 A 
ATOM      3  C   UNL     1      45.887   1.415   8.416  0.00  0.00    +0.000 A 
ATOM      4  C   UNL     1      45.374   2.663   8.790  0.00  0.00    +0.000 A 
ATOM      5  C   UNL     1      45.674   3.780   7.999  0.00  0.00    +0.000 A 
ATOM      6  C   UNL     1      46.398   3.638   6.813  0.00  0.00    +0.000 A 
ENDROOT
BRANCH   1   7
ATOM      7  C   UNL     1      47.599   2.229   5.098  0.00  0.00    +0.000 C 
BRANCH   7  12
ATOM      8  C   UNL     1      46.870  -1.024   3.180  0.00  0.00    +0.000 A 
ATOM      9  C   UNL     1      45.705  -0.662   2.512  0.00  0.00    +0.000 A 
ATOM     10  C   UNL     1      45.221   0.646   2.585  0.00  0.00    +0.000 A 
ATOM     11  C   UNL     1      45.872   1.593   3.373  0.00  0.00    +0.000 A 
ATOM     12  C   UNL     1      47.006   1.242   4.114  0.00  0.00    +0.000 A 
ATOM     13  C   UNL     1      47.522  -0.061   3.974  0.00  0.00    +0.000 A 
BRANCH   8  14
ATOM     14  O   UNL     1      47.460  -2.258   3.152  0.00  0.00    +0.000 OA
BRANCH  14  16
ATOM     15  C   UNL     1      47.339  -4.590   2.621  0.00  0.00    +0.000 C 
ATOM     16  C   UNL     1      46.648  -3.426   3.327  0.00  0.00    +0.000 C 
ATOM     17  C   UNL     1      46.494  -3.732   4.815  0.00  0.00    +0.000 C 
ENDBRANCH  14  16
ENDBRANCH   8  14
ENDBRANCH   7  12
ENDBRANCH   1   7
BRANCH   4  18
ATOM     18  C   UNL     1      44.513   2.811  10.015  0.00  0.00    +0.000 C 
BRANCH  18  19
ATOM     19  N   UNL     1      45.289   3.151  11.178  0.00  0.00    +0.000 N 
ATOM     20  C   UNL     1      45.308   4.440  11.652  0.00  0.00    +0.000 C 
ATOM     21  O   UNL     1      44.636   5.332  11.136  0.00  0.00    +0.000 OA
ATOM     22  H   UNL     1      46.015   2.502  11.459  0.00  0.00    +0.000 HD
BRANCH  20  23
ATOM     23  C   UNL     1      46.128   4.699  12.842  0.00  0.00    +0.000 A 
ATOM     24  C   UNL     1      45.977   3.894  13.961  0.00  0.00    +0.000 A 
ATOM     25  S   UNL     1      47.046   4.285  15.234  0.00  0.00    +0.000 S 
ATOM     26  C   UNL     1      47.710   5.578  14.350  0.00  0.00    +0.000 A 
ATOM     27  N   UNL     1      48.686   6.360  14.882  0.00  0.00    +0.000 NA
ATOM     28  C   UNL     1      49.075   7.323  14.116  0.00  0.00    +0.000 A 
ATOM     29  N   UNL     1      48.577   7.576  12.865  0.00  0.00    +0.000 N 
ATOM     30  C   UNL     1      47.606   6.803  12.277  0.00  0.00    +0.000 A 
ATOM     31  O   UNL     1      47.205   7.034  11.140  0.00  0.00    +0.000 OA
ATOM     32  C   UNL     1      47.133   5.702  13.098  0.00  0.00    +0.000 A 
ATOM     33  H   UNL     1      48.925   8.348  12.315  0.00  0.00    +0.000 HD
ENDBRANCH  20  23
ENDBRANCH  18  19
ENDBRANCH   4  18
TORSDOF 7
ENDMDL
MODEL 7
REMARK VINA RESULT:    -7.031      4.215      7.826
REMARK INTER + INTRA:         -11.216
REMARK INTER:                  -9.964
REMARK INTRA:                  -1.252
REMARK UNBOUND:                -1.308
REMARK  Name = 
REMARK  9 active torsions:
REMARK  status: ('A' for Active; 'I' for Inactive)
REMARK    1  A    between atoms: C_1  and  C_2
REMARK    2  A    between atoms: C_2  and  C_3
REMARK    3  A    between atoms: C_2  and  O_4
REMARK    4  A    between atoms: O_4  and  C_5
REMARK    5  A    between atoms: C_9  and  C_10
REMARK    6  A    between atoms: C_10  and  C_11
REMARK    7  A    between atoms: C_14  and  C_15
REMARK    8  A    between atoms: C_15  and  N_16
REMARK    9  A    between atoms: C_17  and  C_19
REMARK                            x       y       z     vdW  Elec       q    Type
REMARK                         _______ _______ _______ _____ _____    ______ ____
ROOT
ATOM      1  C   UNL     1      45.641   6.983  12.294  0.00  0.00    +0.000 A 
ATOM      2  C   UNL     1      45.860   8.219  12.920  0.00  0.00    +0.000 A 
ATOM      3  C   UNL     1      47.077   8.494  13.552  0.00  0.00    +0.000 A 
ATOM      4  C   UNL     1      48.103   7.541  13.560  0.00  0.00    +0.000 A 
ATOM      5  C   UNL     1      47.860   6.282  12.995  0.00  0.00    +0.000 A 
ATOM      6  C   UNL     1      46.646   6.010  12.361  0.00  0.00    +0.000 A 
ENDROOT
BRANCH   1   7
ATOM      7  C   UNL     1      44.350   6.697  11.568  0.00  0.00    +0.000 C 
BRANCH   7  12
ATOM      8  C   UNL     1      44.331   3.362   9.654  0.00  0.00    +0.000 A 
ATOM      9  C   UNL     1      43.928   2.497  10.666  0.00  0.00    +0.000 A 
ATOM     10  C   UNL     1      43.556   2.993  11.918  0.00  0.00    +0.000 A 
ATOM     11  C   UNL     1      43.635   4.358  12.185  0.00  0.00    +0.000 A 
ATOM     12  C   UNL     1      44.104   5.246  11.211  0.00  0.00    +0.000 A 
ATOM     13  C   UNL     1      44.407   4.740   9.932  0.00  0.00    +0.000 A 
BRANCH   8  14
ATOM     14  O   UNL     1      44.679   2.999   8.382  0.00  0.00    +0.000 OA
BRANCH  14  16
ATOM     15  C   UNL     1      46.215   1.192   8.047  0.00  0.00    +0.000 C 
ATOM     16  C   UNL     1      46.052   2.710   8.087  0.00  0.00    +0.000 C 
ATOM     17  C   UNL     1      46.431   3.314   6.737  0.00  0.00    +0.000 C 
ENDBRANCH  14  16
ENDBRANCH   8  14
ENDBRANCH   7  12
ENDBRANCH   1   7
BRANCH   4  18
ATOM     18  C   UNL     1      49.448   7.856  14.157  0.00  0.00    +0.000 C 
BRANCH  18  19
ATOM     19  N   UNL     1      49.370   8.055  15.579  0.00  0.00    +0.000 N 
ATOM     20  C   UNL     1      49.599   7.013  16.444  0.00  0.00    +0.000 C 
ATOM     21  O   UNL     1      49.919   5.895  16.043  0.00  0.00    +0.000 OA
ATOM     22  H   UNL     1      48.884   8.882  15.907  0.00  0.00    +0.000 HD
BRANCH  20  23
ATOM     23  C   UNL     1      49.495   7.305  17.879  0.00  0.00    +0.000 A 
ATOM     24  C   UNL     1      50.347   8.239  18.447  0.00  0.00    +0.000 A 
ATOM     25  S   UNL     1      50.057   8.510  20.108  0.00  0.00    +0.000 S 
ATOM     26  C   UNL     1      48.817   7.346  20.135  0.00  0.00    +0.000 A 
ATOM     27  N   UNL     1      48.148   7.064  21.285  0.00  0.00    +0.000 NA
ATOM     28  C   UNL     1      47.255   6.139  21.169  0.00  0.00    +0.000 A 
ATOM     29  N   UNL     1      46.970   5.469  20.007  0.00  0.00    +0.000 N 
ATOM     30  C   UNL     1      47.604   5.732  18.818  0.00  0.00    +0.000 A 
ATOM     31  O   UNL     1      47.301   5.139  17.787  0.00  0.00    +0.000 OA
ATOM     32  C   UNL     1      48.619   6.769  18.893  0.00  0.00    +0.000 A 
ATOM     33  H   UNL     1      46.258   4.753  19.984  0.00  0.00    +0.000 HD
ENDBRANCH  20  23
ENDBRANCH  18  19
ENDBRANCH   4  18
TORSDOF 7
ENDMDL
MODEL 8
REMARK VINA RESULT:    -6.885      4.810     11.136
REMARK INTER + INTRA:         -11.010
REMARK INTER:                  -9.341
REMARK INTRA:                  -1.668
REMARK UNBOUND:                -1.308
REMARK  Name = 
REMARK  9 active torsions:
REMARK  status: ('A' for Active; 'I' for Inactive)
REMARK    1  A    between atoms: C_1  and  C_2
REMARK    2  A    between atoms: C_2  and  C_3
REMARK    3  A    between atoms: C_2  and  O_4
REMARK    4  A    between atoms: O_4  and  C_5
REMARK    5  A    between atoms: C_9  and  C_10
REMARK    6  A    between atoms: C_10  and  C_11
REMARK    7  A    between atoms: C_14  and  C_15
REMARK    8  A    between atoms: C_15  and  N_16
REMARK    9  A    between atoms: C_17  and  C_19
REMARK                            x       y       z     vdW  Elec       q    Type
REMARK                         _______ _______ _______ _____ _____    ______ ____
ROOT
ATOM      1  C   UNL     1      49.625   8.423  15.713  0.00  0.00    +0.000 A 
ATOM      2  C   UNL     1      48.350   8.938  15.438  0.00  0.00    +0.000 A 
ATOM      3  C   UNL     1      47.804   8.842  14.153  0.00  0.00    +0.000 A 
ATOM      4  C   UNL     1      48.519   8.219  13.123  0.00  0.00    +0.000 A 
ATOM      5  C   UNL     1      49.820   7.768  13.381  0.00  0.00    +0.000 A 
ATOM      6  C   UNL     1      50.363   7.860  14.664  0.00  0.00    +0.000 A 
ENDROOT
BRANCH   1   7
ATOM      7  C   UNL     1      50.202   8.477  17.106  0.00  0.00    +0.000 C 
BRANCH   7  12
ATOM      8  C   UNL     1      49.379   5.078  18.705  0.00  0.00    +0.000 A 
ATOM      9  C   UNL     1      49.020   5.485  19.985  0.00  0.00    +0.000 A 
ATOM     10  C   UNL     1      48.933   6.843  20.299  0.00  0.00    +0.000 A 
ATOM     11  C   UNL     1      49.256   7.808  19.347  0.00  0.00    +0.000 A 
ATOM     12  C   UNL     1      49.689   7.429  18.072  0.00  0.00    +0.000 A 
ATOM     13  C   UNL     1      49.703   6.057  17.748  0.00  0.00    +0.000 A 
BRANCH   8  14
ATOM     14  O   UNL     1      49.460   3.783  18.269  0.00  0.00    +0.000 OA
BRANCH  14  16
ATOM     15  C   UNL     1      49.280   2.061  16.614  0.00  0.00    +0.000 C 
ATOM     16  C   UNL     1      48.705   3.383  17.119  0.00  0.00    +0.000 C 
ATOM     17  C   UNL     1      47.236   3.205  17.498  0.00  0.00    +0.000 C 
ENDBRANCH  14  16
ENDBRANCH   8  14
ENDBRANCH   7  12
ENDBRANCH   1   7
BRANCH   4  18
ATOM     18  C   UNL     1      47.908   8.031  11.760  0.00  0.00    +0.000 C 
BRANCH  18  19
ATOM     19  N   UNL     1      47.173   6.799  11.668  0.00  0.00    +0.000 N 
ATOM     20  C   UNL     1      45.800   6.799  11.720  0.00  0.00    +0.000 C 
ATOM     21  O   UNL     1      45.154   7.843  11.802  0.00  0.00    +0.000 OA
ATOM     22  H   UNL     1      47.681   5.939  11.842  0.00  0.00    +0.000 HD
BRANCH  20  23
ATOM     23  C   UNL     1      45.130   5.497  11.622  0.00  0.00    +0.000 A 
ATOM     24  C   UNL     1      44.471   4.985  12.729  0.00  0.00    +0.000 A 
ATOM     25  S   UNL     1      43.692   3.495  12.433  0.00  0.00    +0.000 S 
ATOM     26  C   UNL     1      44.256   3.458  10.829  0.00  0.00    +0.000 A 
ATOM     27  N   UNL     1      43.959   2.416  10.007  0.00  0.00    +0.000 NA
ATOM     28  C   UNL     1      44.478   2.502   8.829  0.00  0.00    +0.000 A 
ATOM     29  N   UNL     1      45.268   3.535   8.396  0.00  0.00    +0.000 N 
ATOM     30  C   UNL     1      45.579   4.617   9.181  0.00  0.00    +0.000 A 
ATOM     31  O   UNL     1      46.260   5.545   8.753  0.00  0.00    +0.000 OA
ATOM     32  C   UNL     1      45.017   4.572  10.520  0.00  0.00    +0.000 A 
ATOM     33  H   UNL     1      45.644   3.541   7.459  0.00  0.00    +0.000 HD
ENDBRANCH  20  23
ENDBRANCH  18  19
ENDBRANCH   4  18
TORSDOF 7
ENDMDL
MODEL 9
REMARK VINA RESULT:    -6.751      4.734      8.390
REMARK INTER + INTRA:         -10.822
REMARK INTER:                  -9.447
REMARK INTRA:                  -1.375
REMARK UNBOUND:                -1.308
REMARK  Name = 
REMARK  9 active torsions:
REMARK  status: ('A' for Active; 'I' for Inactive)
REMARK    1  A    between atoms: C_1  and  C_2
REMARK    2  A    between atoms: C_2  and  C_3
REMARK    3  A    between atoms: C_2  and  O_4
REMARK    4  A    between atoms: O_4  and  C_5
REMARK    5  A    between atoms: C_9  and  C_10
REMARK    6  A    between atoms: C_10  and  C_11
REMARK    7  A    between atoms: C_14  and  C_15
REMARK    8  A    between atoms: C_15  and  N_16
REMARK    9  A    between atoms: C_17  and  C_19
REMARK                            x       y       z     vdW  Elec       q    Type
REMARK                         _______ _______ _______ _____ _____    ______ ____
ROOT
ATOM      1  C   UNL     1      47.395   6.361  13.111  0.00  0.00    +0.000 A 
ATOM      2  C   UNL     1      48.301   7.144  13.840  0.00  0.00    +0.000 A 
ATOM      3  C   UNL     1      48.729   6.744  15.111  0.00  0.00    +0.000 A 
ATOM      4  C   UNL     1      48.267   5.546  15.670  0.00  0.00    +0.000 A 
ATOM      5  C   UNL     1      47.309   4.800  14.972  0.00  0.00    +0.000 A 
ATOM      6  C   UNL     1      46.885   5.198  13.702  0.00  0.00    +0.000 A 
ENDROOT
BRANCH   1   7
ATOM      7  C   UNL     1      46.966   6.759  11.721  0.00  0.00    +0.000 C 
BRANCH   7  12
ATOM      8  C   UNL     1      44.382   4.659   9.798  0.00  0.00    +0.000 A 
ATOM      9  C   UNL     1      43.251   4.882  10.576  0.00  0.00    +0.000 A 
ATOM     10  C   UNL     1      43.288   5.788  11.639  0.00  0.00    +0.000 A 
ATOM     11  C   UNL     1      44.476   6.439  11.967  0.00  0.00    +0.000 A 
ATOM     12  C   UNL     1      45.648   6.181  11.248  0.00  0.00    +0.000 A 
ATOM     13  C   UNL     1      45.578   5.320  10.135  0.00  0.00    +0.000 A 
BRANCH   8  14
ATOM     14  O   UNL     1      44.456   3.829   8.712  0.00  0.00    +0.000 OA
BRANCH  14  16
ATOM     15  C   UNL     1      45.479   1.664   8.708  0.00  0.00    +0.000 C 
ATOM     16  C   UNL     1      45.687   3.151   8.432  0.00  0.00    +0.000 C 
ATOM     17  C   UNL     1      46.076   3.364   6.970  0.00  0.00    +0.000 C 
ENDBRANCH  14  16
ENDBRANCH   8  14
ENDBRANCH   7  12
ENDBRANCH   1   7
BRANCH   4  18
ATOM     18  C   UNL     1      48.787   5.060  16.996  0.00  0.00    +0.000 C 
BRANCH  18  19
ATOM     19  N   UNL     1      48.673   6.064  18.019  0.00  0.00    +0.000 N 
ATOM     20  C   UNL     1      47.539   6.152  18.788  0.00  0.00    +0.000 C 
ATOM     21  O   UNL     1      46.608   5.358  18.666  0.00  0.00    +0.000 OA
ATOM     22  H   UNL     1      49.308   6.853  17.969  0.00  0.00    +0.000 HD
BRANCH  20  23
ATOM     23  C   UNL     1      47.507   7.209  19.806  0.00  0.00    +0.000 A 
ATOM     24  C   UNL     1      47.363   6.864  21.142  0.00  0.00    +0.000 A 
ATOM     25  S   UNL     1      47.408   8.201  22.202  0.00  0.00    +0.000 S 
ATOM     26  C   UNL     1      47.566   9.292  20.906  0.00  0.00    +0.000 A 
ATOM     27  N   UNL     1      47.639  10.632  21.125  0.00  0.00    +0.000 NA
ATOM     28  C   UNL     1      47.725  11.344  20.052  0.00  0.00    +0.000 A 
ATOM     29  N   UNL     1      47.744  10.837  18.778  0.00  0.00    +0.000 N 
ATOM     30  C   UNL     1      47.692   9.492  18.508  0.00  0.00    +0.000 A 
ATOM     31  O   UNL     1      47.747   9.067  17.357  0.00  0.00    +0.000 OA
ATOM     32  C   UNL     1      47.597   8.644  19.684  0.00  0.00    +0.000 A 
ATOM     33  H   UNL     1      47.812  11.450  17.978  0.00  0.00    +0.000 HD
ENDBRANCH  20  23
ENDBRANCH  18  19
ENDBRANCH   4  18
TORSDOF 7
ENDMDL
