MODEL 1
REMARK VINA RESULT:    -7.475      0.000      0.000
REMARK INTER + INTRA:         -11.451
REMARK INTER:                 -10.535
REMARK INTRA:                  -0.917
REMARK UNBOUND:                -0.917
REMARK  Name = 
REMARK  10 active torsions:
REMARK  status: ('A' for Active; 'I' for Inactive)
REMARK    1  A    between atoms: C_1  and  C_2
REMARK    2  A    between atoms: C_4  and  C_5
REMARK    3  A    between atoms: C_5  and  C_6
REMARK    4  A    between atoms: C_5  and  C_7
REMARK    5  A    between atoms: C_7  and  O_8
REMARK    6  A    between atoms: O_8  and  C_9
REMARK    7  A    between atoms: C_12  and  C_13
REMARK    8  A    between atoms: C_19  and  C_20
REMARK    9  A    between atoms: C_21  and  C_22
REMARK   10  A    between atoms: C_22  and  C_23
REMARK                            x       y       z     vdW  Elec       q    Type
REMARK                         _______ _______ _______ _____ _____    ______ ____
ROOT
ATOM      1  C   UNL     1      44.026   4.963  11.840  0.00  0.00    +0.000 C 
ATOM      2  C   UNL     1      42.876   5.118  12.843  0.00  0.00    +0.000 C 
ENDROOT
BRANCH   1   6
ATOM      3  C   UNL     1      48.077   7.894  11.769  0.00  0.00    +0.000 C 
ATOM      4  C   UNL     1      47.353   6.772  12.468  0.00  0.00    +0.000 A 
ATOM      5  C   UNL     1      46.154   6.325  11.874  0.00  0.00    +0.000 A 
ATOM      6  C   UNL     1      45.360   5.341  12.465  0.00  0.00    +0.000 A 
ATOM      7  C   UNL     1      45.813   4.757  13.650  0.00  0.00    +0.000 A 
ATOM      8  C   UNL     1      47.014   5.164  14.266  0.00  0.00    +0.000 A 
ATOM      9  C   UNL     1      47.373   4.512  15.577  0.00  0.00    +0.000 C 
ATOM     10  C   UNL     1      47.798   6.197  13.686  0.00  0.00    +0.000 A 
BRANCH  10  11
ATOM     11  C   UNL     1      49.020   6.731  14.422  0.00  0.00    +0.000 C 
BRANCH  11  12
ATOM     12  C   UNL     1      48.713   7.922  15.322  0.00  0.00    +0.000 C 
ATOM     13  C   UNL     1      49.674   9.105  15.105  0.00  0.00    +0.000 C 
ATOM     14  O   UNL     1      50.164   9.028  16.458  0.00  0.00    +0.000 OA
ATOM     15  C   UNL     1      49.283   7.919  16.747  0.00  0.00    +0.000 C 
ENDBRANCH  11  12
ENDBRANCH  10  11
ENDBRANCH   1   6
BRANCH   1  16
ATOM     16  C   UNL     1      44.064   3.552  11.232  0.00  0.00    +0.000 C 
BRANCH  16  17
ATOM     17  O   UNL     1      43.700   3.622   9.845  0.00  0.00    +0.000 OA
BRANCH  17  18
ATOM     18  C   UNL     1      44.721   3.233   9.006  0.00  0.00    +0.000 A 
ATOM     19  C   UNL     1      45.166   1.917   9.083  0.00  0.00    +0.000 A 
ATOM     20  N   UNL     1      46.136   1.414   8.275  0.00  0.00    +0.000 NA
ATOM     21  C   UNL     1      46.643   2.310   7.378  0.00  0.00    +0.000 A 
ATOM     22  C   UNL     1      46.210   3.626   7.311  0.00  0.00    +0.000 A 
ATOM     23  N   UNL     1      45.242   4.117   8.124  0.00  0.00    +0.000 NA
BRANCH  21  24
ATOM     24  C   UNL     1      47.683   1.834   6.428  0.00  0.00    +0.000 C 
ATOM     25  N   UNL     1      48.798   2.619   6.324  0.00  0.00    +0.000 N 
ATOM     26  O   UNL     1      47.565   0.792   5.796  0.00  0.00    +0.000 OA
ATOM     27  H   UNL     1      48.881   3.465   6.885  0.00  0.00    +0.000 HD
ATOM     28  H   UNL     1      49.558   2.331   5.725  0.00  0.00    +0.000 HD
ENDBRANCH  21  24
ENDBRANCH  17  18
ENDBRANCH  16  17
ENDBRANCH   1  16
TORSDOF 7
ENDMDL
MODEL 2
REMARK VINA RESULT:    -7.299      1.910      2.892
REMARK INTER + INTRA:         -11.203
REMARK INTER:                 -10.306
REMARK INTRA:                  -0.897
REMARK UNBOUND:                -0.917
REMARK  Name = 
REMARK  10 active torsions:
REMARK  status: ('A' for Active; 'I' for Inactive)
REMARK    1  A    between atoms: C_1  and  C_2
REMARK    2  A    between atoms: C_4  and  C_5
REMARK    3  A    between atoms: C_5  and  C_6
REMARK    4  A    between atoms: C_5  and  C_7
REMARK    5  A    between atoms: C_7  and  O_8
REMARK    6  A    between atoms: O_8  and  C_9
REMARK    7  A    between atoms: C_12  and  C_13
REMARK    8  A    between atoms: C_19  and  C_20
REMARK    9  A    between atoms: C_21  and  C_22
REMARK   10  A    between atoms: C_22  and  C_23
REMARK                            x       y       z     vdW  Elec       q    Type
REMARK                         _______ _______ _______ _____ _____    ______ ____
ROOT
ATOM      1  C   UNL     1      43.641   5.554  11.138  0.00  0.00    +0.000 C 
ATOM      2  C   UNL     1      42.363   5.616  11.984  0.00  0.00    +0.000 C 
ENDROOT
BRANCH   1   6
ATOM      3  C   UNL     1      48.242   6.380  12.916  0.00  0.00    +0.000 C 
ATOM      4  C   UNL     1      46.934   6.994  12.488  0.00  0.00    +0.000 A 
ATOM      5  C   UNL     1      45.909   6.102  12.109  0.00  0.00    +0.000 A 
ATOM      6  C   UNL     1      44.679   6.552  11.628  0.00  0.00    +0.000 A 
ATOM      7  C   UNL     1      44.458   7.931  11.583  0.00  0.00    +0.000 A 
ATOM      8  C   UNL     1      45.451   8.854  11.968  0.00  0.00    +0.000 A 
ATOM      9  C   UNL     1      45.128  10.319  11.814  0.00  0.00    +0.000 C 
ATOM     10  C   UNL     1      46.718   8.394  12.414  0.00  0.00    +0.000 A 
BRANCH  10  11
ATOM     11  C   UNL     1      47.834   9.391  12.698  0.00  0.00    +0.000 C 
BRANCH  11  12
ATOM     12  C   UNL     1      48.738   9.646  11.498  0.00  0.00    +0.000 C 
ATOM     13  C   UNL     1      50.235   9.528  11.835  0.00  0.00    +0.000 C 
ATOM     14  O   UNL     1      50.478  10.908  11.499  0.00  0.00    +0.000 OA
ATOM     15  C   UNL     1      49.088  11.100  11.151  0.00  0.00    +0.000 C 
ENDBRANCH  11  12
ENDBRANCH  10  11
ENDBRANCH   1   6
BRANCH   1  16
ATOM     16  C   UNL     1      44.212   4.128  11.074  0.00  0.00    +0.000 C 
BRANCH  16  17
ATOM     17  O   UNL     1      43.719   3.470   9.898  0.00  0.00    +0.000 OA
BRANCH  17  18
ATOM     18  C   UNL     1      44.725   3.108   9.029  0.00  0.00    +0.000 A 
ATOM     19  C   UNL     1      45.199   1.801   9.087  0.00  0.00    +0.000 A 
ATOM     20  N   UNL     1      46.158   1.323   8.250  0.00  0.00    +0.000 NA
ATOM     21  C   UNL     1      46.621   2.234   7.344  0.00  0.00    +0.000 A 
ATOM     22  C   UNL     1      46.159   3.541   7.296  0.00  0.00    +0.000 A 
ATOM     23  N   UNL     1      45.203   4.007   8.138  0.00  0.00    +0.000 NA
BRANCH  21  24
ATOM     24  C   UNL     1      47.644   1.786   6.363  0.00  0.00    +0.000 C 
ATOM     25  N   UNL     1      48.770   2.557   6.283  0.00  0.00    +0.000 N 
ATOM     26  O   UNL     1      47.504   0.775   5.687  0.00  0.00    +0.000 OA
ATOM     27  H   UNL     1      48.872   3.375   6.881  0.00  0.00    +0.000 HD
ATOM     28  H   UNL     1      49.521   2.284   5.665  0.00  0.00    +0.000 HD
ENDBRANCH  21  24
ENDBRANCH  17  18
ENDBRANCH  16  17
ENDBRANCH   1  16
TORSDOF 7
ENDMDL
MODEL 3
REMARK VINA RESULT:    -7.279      2.071      2.843
REMARK INTER + INTRA:         -11.174
REMARK INTER:                 -10.260
REMARK INTRA:                  -0.914
REMARK UNBOUND:                -0.917
REMARK  Name = 
REMARK  10 active torsions:
REMARK  status: ('A' for Active; 'I' for Inactive)
REMARK    1  A    between atoms: C_1  and  C_2
REMARK    2  A    between atoms: C_4  and  C_5
REMARK    3  A    between atoms: C_5  and  C_6
REMARK    4  A    between atoms: C_5  and  C_7
REMARK    5  A    between atoms: C_7  and  O_8
REMARK    6  A    between atoms: O_8  and  C_9
REMARK    7  A    between atoms: C_12  and  C_13
REMARK    8  A    between atoms: C_19  and  C_20
REMARK    9  A    between atoms: C_21  and  C_22
REMARK   10  A    between atoms: C_22  and  C_23
REMARK                            x       y       z     vdW  Elec       q    Type
REMARK                         _______ _______ _______ _____ _____    ______ ____
ROOT
ATOM      1  C   UNL     1      43.883   5.109  11.621  0.00  0.00    +0.000 C 
ATOM      2  C   UNL     1      42.916   5.076  12.811  0.00  0.00    +0.000 C 
ENDROOT
BRANCH   1   6
ATOM      3  C   UNL     1      44.937   9.996  11.766  0.00  0.00    +0.000 C 
ATOM      4  C   UNL     1      45.476   8.592  11.878  0.00  0.00    +0.000 A 
ATOM      5  C   UNL     1      44.563   7.543  11.644  0.00  0.00    +0.000 A 
ATOM      6  C   UNL     1      44.927   6.203  11.786  0.00  0.00    +0.000 A 
ATOM      7  C   UNL     1      46.253   5.916  12.117  0.00  0.00    +0.000 A 
ATOM      8  C   UNL     1      47.199   6.936  12.344  0.00  0.00    +0.000 A 
ATOM      9  C   UNL     1      48.585   6.512  12.761  0.00  0.00    +0.000 C 
ATOM     10  C   UNL     1      46.815   8.299  12.242  0.00  0.00    +0.000 A 
BRANCH  10  11
ATOM     11  C   UNL     1      47.799   9.399  12.620  0.00  0.00    +0.000 C 
BRANCH  11  12
ATOM     12  C   UNL     1      48.654   9.874  11.451  0.00  0.00    +0.000 C 
ATOM     13  C   UNL     1      50.014  10.445  11.891  0.00  0.00    +0.000 C 
ATOM     14  O   UNL     1      49.703  11.748  11.360  0.00  0.00    +0.000 OA
ATOM     15  C   UNL     1      48.411  11.288  10.904  0.00  0.00    +0.000 C 
ENDBRANCH  11  12
ENDBRANCH  10  11
ENDBRANCH   1   6
BRANCH   1  16
ATOM     16  C   UNL     1      44.532   3.737  11.378  0.00  0.00    +0.000 C 
BRANCH  16  17
ATOM     17  O   UNL     1      43.902   3.105  10.253  0.00  0.00    +0.000 OA
BRANCH  17  18
ATOM     18  C   UNL     1      44.766   2.912   9.198  0.00  0.00    +0.000 A 
ATOM     19  C   UNL     1      45.010   3.985   8.347  0.00  0.00    +0.000 A 
ATOM     20  N   UNL     1      45.875   3.920   7.301  0.00  0.00    +0.000 NA
ATOM     21  C   UNL     1      46.488   2.709   7.151  0.00  0.00    +0.000 A 
ATOM     22  C   UNL     1      46.234   1.634   7.989  0.00  0.00    +0.000 A 
ATOM     23  N   UNL     1      45.366   1.711   9.029  0.00  0.00    +0.000 NA
BRANCH  21  24
ATOM     24  C   UNL     1      47.480   2.560   6.053  0.00  0.00    +0.000 C 
ATOM     25  N   UNL     1      48.792   2.552   6.434  0.00  0.00    +0.000 N 
ATOM     26  O   UNL     1      47.146   2.424   4.883  0.00  0.00    +0.000 OA
ATOM     27  H   UNL     1      49.039   2.637   7.419  0.00  0.00    +0.000 HD
ATOM     28  H   UNL     1      49.514   2.415   5.742  0.00  0.00    +0.000 HD
ENDBRANCH  21  24
ENDBRANCH  17  18
ENDBRANCH  16  17
ENDBRANCH   1  16
TORSDOF 7
ENDMDL
MODEL 4
REMARK VINA RESULT:    -7.257      0.711      2.048
REMARK INTER + INTRA:         -11.143
REMARK INTER:                 -10.209
REMARK INTRA:                  -0.934
REMARK UNBOUND:                -0.917
REMARK  Name = 
REMARK  10 active torsions:
REMARK  status: ('A' for Active; 'I' for Inactive)
REMARK    1  A    between atoms: C_1  and  C_2
REMARK    2  A    between atoms: C_4  and  C_5
REMARK    3  A    between atoms: C_5  and  C_6
REMARK    4  A    between atoms: C_5  and  C_7
REMARK    5  A    between atoms: C_7  and  O_8
REMARK    6  A    between atoms: O_8  and  C_9
REMARK    7  A    between atoms: C_12  and  C_13
REMARK    8  A    between atoms: C_19  and  C_20
REMARK    9  A    between atoms: C_21  and  C_22
REMARK   10  A    between atoms: C_22  and  C_23
REMARK                            x       y       z     vdW  Elec       q    Type
REMARK                         _______ _______ _______ _____ _____    ______ ____
ROOT
ATOM      1  C   UNL     1      43.854   4.564  11.845  0.00  0.00    +0.000 C 
ATOM      2  C   UNL     1      43.589   3.137  12.342  0.00  0.00    +0.000 C 
ENDROOT
BRANCH   1   6
ATOM      3  C   UNL     1      47.301   4.287  15.457  0.00  0.00    +0.000 C 
ATOM      4  C   UNL     1      46.810   5.040  14.248  0.00  0.00    +0.000 A 
ATOM      5  C   UNL     1      45.611   4.584  13.660  0.00  0.00    +0.000 A 
ATOM      6  C   UNL     1      45.094   5.155  12.497  0.00  0.00    +0.000 A 
ATOM      7  C   UNL     1      45.771   6.247  11.947  0.00  0.00    +0.000 A 
ATOM      8  C   UNL     1      46.962   6.743  12.513  0.00  0.00    +0.000 A 
ATOM      9  C   UNL     1      47.644   7.883  11.798  0.00  0.00    +0.000 C 
ATOM     10  C   UNL     1      47.510   6.131  13.672  0.00  0.00    +0.000 A 
BRANCH  10  11
ATOM     11  C   UNL     1      48.867   6.579  14.201  0.00  0.00    +0.000 C 
BRANCH  11  12
ATOM     12  C   UNL     1      48.769   7.515  15.400  0.00  0.00    +0.000 C 
ATOM     13  C   UNL     1      49.337   8.917  15.118  0.00  0.00    +0.000 C 
ATOM     14  O   UNL     1      50.354   8.771  16.128  0.00  0.00    +0.000 OA
ATOM     15  C   UNL     1      49.875   7.448  16.462  0.00  0.00    +0.000 C 
ENDBRANCH  11  12
ENDBRANCH  10  11
ENDBRANCH   1   6
BRANCH   1  16
ATOM     16  C   UNL     1      43.935   4.627  10.311  0.00  0.00    +0.000 C 
BRANCH  16  17
ATOM     17  O   UNL     1      43.751   3.309   9.772  0.00  0.00    +0.000 OA
BRANCH  17  18
ATOM     18  C   UNL     1      44.760   2.942   8.908  0.00  0.00    +0.000 A 
ATOM     19  C   UNL     1      45.275   3.912   8.054  0.00  0.00    +0.000 A 
ATOM     20  N   UNL     1      46.298   3.672   7.192  0.00  0.00    +0.000 NA
ATOM     21  C   UNL     1      46.781   2.396   7.231  0.00  0.00    +0.000 A 
ATOM     22  C   UNL     1      46.259   1.425   8.072  0.00  0.00    +0.000 A 
ATOM     23  N   UNL     1      45.236   1.676   8.927  0.00  0.00    +0.000 NA
BRANCH  21  24
ATOM     24  C   UNL     1      47.928   2.056   6.348  0.00  0.00    +0.000 C 
ATOM     25  N   UNL     1      49.018   2.875   6.444  0.00  0.00    +0.000 N 
ATOM     26  O   UNL     1      47.912   1.087   5.599  0.00  0.00    +0.000 OA
ATOM     27  H   UNL     1      49.013   3.655   7.098  0.00  0.00    +0.000 HD
ATOM     28  H   UNL     1      49.844   2.675   5.900  0.00  0.00    +0.000 HD
ENDBRANCH  21  24
ENDBRANCH  17  18
ENDBRANCH  16  17
ENDBRANCH   1  16
TORSDOF 7
ENDMDL
MODEL 5
REMARK VINA RESULT:    -6.460      1.821      2.621
REMARK INTER + INTRA:         -10.020
REMARK INTER:                  -9.213
REMARK INTRA:                  -0.806
REMARK UNBOUND:                -0.917
REMARK  Name = 
REMARK  10 active torsions:
REMARK  status: ('A' for Active; 'I' for Inactive)
REMARK    1  A    between atoms: C_1  and  C_2
REMARK    2  A    between atoms: C_4  and  C_5
REMARK    3  A    between atoms: C_5  and  C_6
REMARK    4  A    between atoms: C_5  and  C_7
REMARK    5  A    between atoms: C_7  and  O_8
REMARK    6  A    between atoms: O_8  and  C_9
REMARK    7  A    between atoms: C_12  and  C_13
REMARK    8  A    between atoms: C_19  and  C_20
REMARK    9  A    between atoms: C_21  and  C_22
REMARK   10  A    between atoms: C_22  and  C_23
REMARK                            x       y       z     vdW  Elec       q    Type
REMARK                         _______ _______ _______ _____ _____    ______ ____
ROOT
ATOM      1  C   UNL     1      46.037   5.666  12.216  0.00  0.00    +0.000 C 
ATOM      2  C   UNL     1      45.372   7.035  12.025  0.00  0.00    +0.000 C 
ENDROOT
BRANCH   1   6
ATOM      3  C   UNL     1      49.401   7.920  15.151  0.00  0.00    +0.000 C 
ATOM      4  C   UNL     1      48.516   6.716  14.953  0.00  0.00    +0.000 A 
ATOM      5  C   UNL     1      47.783   6.660  13.749  0.00  0.00    +0.000 A 
ATOM      6  C   UNL     1      46.877   5.631  13.483  0.00  0.00    +0.000 A 
ATOM      7  C   UNL     1      46.751   4.610  14.428  0.00  0.00    +0.000 A 
ATOM      8  C   UNL     1      47.477   4.622  15.635  0.00  0.00    +0.000 A 
ATOM      9  C   UNL     1      47.213   3.502  16.611  0.00  0.00    +0.000 C 
ATOM     10  C   UNL     1      48.365   5.693  15.923  0.00  0.00    +0.000 A 
BRANCH  10  11
ATOM     11  C   UNL     1      49.044   5.775  17.285  0.00  0.00    +0.000 C 
BRANCH  11  12
ATOM     12  C   UNL     1      48.245   6.567  18.312  0.00  0.00    +0.000 C 
ATOM     13  C   UNL     1      49.133   7.289  19.341  0.00  0.00    +0.000 C 
ATOM     14  O   UNL     1      48.575   6.536  20.436  0.00  0.00    +0.000 OA
ATOM     15  C   UNL     1      47.698   5.821  19.537  0.00  0.00    +0.000 C 
ENDBRANCH  11  12
ENDBRANCH  10  11
ENDBRANCH   1   6
BRANCH   1  16
ATOM     16  C   UNL     1      45.006   4.525  12.188  0.00  0.00    +0.000 C 
BRANCH  16  17
ATOM     17  O   UNL     1      44.249   4.599  10.970  0.00  0.00    +0.000 OA
BRANCH  17  18
ATOM     18  C   UNL     1      44.890   4.002   9.908  0.00  0.00    +0.000 A 
ATOM     19  C   UNL     1      45.452   4.824   8.936  0.00  0.00    +0.000 A 
ATOM     20  N   UNL     1      46.143   4.345   7.869  0.00  0.00    +0.000 NA
ATOM     21  C   UNL     1      46.240   2.984   7.825  0.00  0.00    +0.000 A 
ATOM     22  C   UNL     1      45.668   2.163   8.785  0.00  0.00    +0.000 A 
ATOM     23  N   UNL     1      44.978   2.653   9.845  0.00  0.00    +0.000 NA
BRANCH  21  24
ATOM     24  C   UNL     1      47.013   2.374   6.710  0.00  0.00    +0.000 C 
ATOM     25  N   UNL     1      47.090   3.115   5.564  0.00  0.00    +0.000 N 
ATOM     26  O   UNL     1      47.569   1.289   6.817  0.00  0.00    +0.000 OA
ATOM     27  H   UNL     1      46.643   4.029   5.516  0.00  0.00    +0.000 HD
ATOM     28  H   UNL     1      47.633   2.775   4.784  0.00  0.00    +0.000 HD
ENDBRANCH  21  24
ENDBRANCH  17  18
ENDBRANCH  16  17
ENDBRANCH   1  16
TORSDOF 7
ENDMDL
MODEL 6
REMARK VINA RESULT:    -6.088      3.626      6.084
REMARK INTER + INTRA:          -9.496
REMARK INTER:                  -8.668
REMARK INTRA:                  -0.828
REMARK UNBOUND:                -0.917
REMARK  Name = 
REMARK  10 active torsions:
REMARK  status: ('A' for Active; 'I' for Inactive)
REMARK    1  A    between atoms: C_1  and  C_2
REMARK    2  A    between atoms: C_4  and  C_5
REMARK    3  A    between atoms: C_5  and  C_6
REMARK    4  A    between atoms: C_5  and  C_7
REMARK    5  A    between atoms: C_7  and  O_8
REMARK    6  A    between atoms: O_8  and  C_9
REMARK    7  A    between atoms: C_12  and  C_13
REMARK    8  A    between atoms: C_19  and  C_20
REMARK    9  A    between atoms: C_21  and  C_22
REMARK   10  A    between atoms: C_22  and  C_23
REMARK                            x       y       z     vdW  Elec       q    Type
REMARK                         _______ _______ _______ _____ _____    ______ ____
ROOT
ATOM      1  C   UNL     1      49.141   7.873  14.578  0.00  0.00    +0.000 C 
ATOM      2  C   UNL     1      48.193   8.887  15.230  0.00  0.00    +0.000 C 
ENDROOT
BRANCH   1   6
ATOM      3  C   UNL     1      48.409   4.020  17.682  0.00  0.00    +0.000 C 
ATOM      4  C   UNL     1      49.396   5.016  17.130  0.00  0.00    +0.000 A 
ATOM      5  C   UNL     1      48.889   5.984  16.237  0.00  0.00    +0.000 A 
ATOM      6  C   UNL     1      49.718   6.913  15.608  0.00  0.00    +0.000 A 
ATOM      7  C   UNL     1      51.077   6.902  15.928  0.00  0.00    +0.000 A 
ATOM      8  C   UNL     1      51.620   5.962  16.827  0.00  0.00    +0.000 A 
ATOM      9  C   UNL     1      53.111   5.999  17.048  0.00  0.00    +0.000 C 
ATOM     10  C   UNL     1      50.781   4.988  17.432  0.00  0.00    +0.000 A 
BRANCH  10  11
ATOM     11  C   UNL     1      51.390   3.889  18.294  0.00  0.00    +0.000 C 
BRANCH  11  12
ATOM     12  C   UNL     1      51.998   2.750  17.483  0.00  0.00    +0.000 C 
ATOM     13  C   UNL     1      51.085   1.514  17.402  0.00  0.00    +0.000 C 
ATOM     14  O   UNL     1      52.049   0.687  18.083  0.00  0.00    +0.000 OA
ATOM     15  C   UNL     1      52.970   1.796  18.190  0.00  0.00    +0.000 C 
ENDBRANCH  11  12
ENDBRANCH  10  11
ENDBRANCH   1   6
BRANCH   1  16
ATOM     16  C   UNL     1      48.461   7.122  13.421  0.00  0.00    +0.000 C 
BRANCH  16  17
ATOM     17  O   UNL     1      47.037   7.173  13.593  0.00  0.00    +0.000 OA
BRANCH  17  18
ATOM     18  C   UNL     1      46.382   6.170  12.914  0.00  0.00    +0.000 A 
ATOM     19  C   UNL     1      46.013   5.032  13.625  0.00  0.00    +0.000 A 
ATOM     20  N   UNL     1      45.326   4.000  13.067  0.00  0.00    +0.000 NA
ATOM     21  C   UNL     1      45.027   4.171  11.746  0.00  0.00    +0.000 A 
ATOM     22  C   UNL     1      45.407   5.298  11.033  0.00  0.00    +0.000 A 
ATOM     23  N   UNL     1      46.094   6.321  11.601  0.00  0.00    +0.000 NA
BRANCH  21  24
ATOM     24  C   UNL     1      44.243   3.107  11.064  0.00  0.00    +0.000 C 
ATOM     25  N   UNL     1      44.914   2.387  10.116  0.00  0.00    +0.000 N 
ATOM     26  O   UNL     1      43.075   2.869  11.349  0.00  0.00    +0.000 OA
ATOM     27  H   UNL     1      45.894   2.588   9.922  0.00  0.00    +0.000 HD
ATOM     28  H   UNL     1      44.450   1.625   9.644  0.00  0.00    +0.000 HD
ENDBRANCH  21  24
ENDBRANCH  17  18
ENDBRANCH  16  17
ENDBRANCH   1  16
TORSDOF 7
ENDMDL
MODEL 7
REMARK VINA RESULT:    -6.086      4.178      8.747
REMARK INTER + INTRA:          -9.493
REMARK INTER:                  -8.458
REMARK INTRA:                  -1.035
REMARK UNBOUND:                -0.917
REMARK  Name = 
REMARK  10 active torsions:
REMARK  status: ('A' for Active; 'I' for Inactive)
REMARK    1  A    between atoms: C_1  and  C_2
REMARK    2  A    between atoms: C_4  and  C_5
REMARK    3  A    between atoms: C_5  and  C_6
REMARK    4  A    between atoms: C_5  and  C_7
REMARK    5  A    between atoms: C_7  and  O_8
REMARK    6  A    between atoms: O_8  and  C_9
REMARK    7  A    between atoms: C_12  and  C_13
REMARK    8  A    between atoms: C_19  and  C_20
REMARK    9  A    between atoms: C_21  and  C_22
REMARK   10  A    between atoms: C_22  and  C_23
REMARK                            x       y       z     vdW  Elec       q    Type
REMARK                         _______ _______ _______ _____ _____    ______ ____
ROOT
ATOM      1  C   UNL     1      49.087   7.969  12.998  0.00  0.00    +0.000 C 
ATOM      2  C   UNL     1      50.002   7.946  11.767  0.00  0.00    +0.000 C 
ENDROOT
BRANCH   1   6
ATOM      3  C   UNL     1      46.235   3.880  13.390  0.00  0.00    +0.000 C 
ATOM      4  C   UNL     1      46.327   5.303  12.901  0.00  0.00    +0.000 A 
ATOM      5  C   UNL     1      47.570   5.949  13.062  0.00  0.00    +0.000 A 
ATOM      6  C   UNL     1      47.758   7.287  12.713  0.00  0.00    +0.000 A 
ATOM      7  C   UNL     1      46.685   7.970  12.135  0.00  0.00    +0.000 A 
ATOM      8  C   UNL     1      45.431   7.355  11.942  0.00  0.00    +0.000 A 
ATOM      9  C   UNL     1      44.325   8.206  11.372  0.00  0.00    +0.000 C 
ATOM     10  C   UNL     1      45.231   6.006  12.341  0.00  0.00    +0.000 A 
BRANCH  10  11
ATOM     11  C   UNL     1      43.841   5.386  12.258  0.00  0.00    +0.000 C 
BRANCH  11  12
ATOM     12  C   UNL     1      43.566   4.692  10.930  0.00  0.00    +0.000 C 
ATOM     13  C   UNL     1      43.603   3.156  11.033  0.00  0.00    +0.000 C 
ATOM     14  O   UNL     1      44.713   3.065  10.118  0.00  0.00    +0.000 OA
ATOM     15  C   UNL     1      44.737   4.502   9.956  0.00  0.00    +0.000 C 
ENDBRANCH  11  12
ENDBRANCH  10  11
ENDBRANCH   1   6
BRANCH   1  16
ATOM     16  C   UNL     1      49.779   7.369  14.232  0.00  0.00    +0.000 C 
BRANCH  16  17
ATOM     17  O   UNL     1      49.202   7.930  15.421  0.00  0.00    +0.000 OA
BRANCH  17  18
ATOM     18  C   UNL     1      49.122   7.022  16.454  0.00  0.00    +0.000 A 
ATOM     19  C   UNL     1      48.791   7.498  17.718  0.00  0.00    +0.000 A 
ATOM     20  N   UNL     1      48.643   6.688  18.800  0.00  0.00    +0.000 NA
ATOM     21  C   UNL     1      48.848   5.363  18.544  0.00  0.00    +0.000 A 
ATOM     22  C   UNL     1      49.192   4.889  17.286  0.00  0.00    +0.000 A 
ATOM     23  N   UNL     1      49.339   5.708  16.215  0.00  0.00    +0.000 NA
BRANCH  21  24
ATOM     24  C   UNL     1      48.669   4.399  19.662  0.00  0.00    +0.000 C 
ATOM     25  N   UNL     1      48.442   3.101  19.299  0.00  0.00    +0.000 N 
ATOM     26  O   UNL     1      48.746   4.738  20.836  0.00  0.00    +0.000 OA
ATOM     27  H   UNL     1      48.413   2.844  18.314  0.00  0.00    +0.000 HD
ATOM     28  H   UNL     1      48.352   2.391  20.011  0.00  0.00    +0.000 HD
ENDBRANCH  21  24
ENDBRANCH  17  18
ENDBRANCH  16  17
ENDBRANCH   1  16
TORSDOF 7
ENDMDL
MODEL 8
REMARK VINA RESULT:    -5.870      3.758      6.331
REMARK INTER + INTRA:          -9.189
REMARK INTER:                  -8.423
REMARK INTRA:                  -0.766
REMARK UNBOUND:                -0.917
REMARK  Name = 
REMARK  10 active torsions:
REMARK  status: ('A' for Active; 'I' for Inactive)
REMARK    1  A    between atoms: C_1  and  C_2
REMARK    2  A    between atoms: C_4  and  C_5
REMARK    3  A    between atoms: C_5  and  C_6
REMARK    4  A    between atoms: C_5  and  C_7
REMARK    5  A    between atoms: C_7  and  O_8
REMARK    6  A    between atoms: O_8  and  C_9
REMARK    7  A    between atoms: C_12  and  C_13
REMARK    8  A    between atoms: C_19  and  C_20
REMARK    9  A    between atoms: C_21  and  C_22
REMARK   10  A    between atoms: C_22  and  C_23
REMARK                            x       y       z     vdW  Elec       q    Type
REMARK                         _______ _______ _______ _____ _____    ______ ____
ROOT
ATOM      1  C   UNL     1      47.773   3.444  16.870  0.00  0.00    +0.000 C 
ATOM      2  C   UNL     1      48.651   2.278  16.397  0.00  0.00    +0.000 C 
ENDROOT
BRANCH   1   6
ATOM      3  C   UNL     1      51.938   4.485  19.436  0.00  0.00    +0.000 C 
ATOM      4  C   UNL     1      50.463   4.751  19.277  0.00  0.00    +0.000 A 
ATOM      5  C   UNL     1      49.785   4.000  18.294  0.00  0.00    +0.000 A 
ATOM      6  C   UNL     1      48.436   4.208  18.007  0.00  0.00    +0.000 A 
ATOM      7  C   UNL     1      47.742   5.153  18.766  0.00  0.00    +0.000 A 
ATOM      8  C   UNL     1      48.379   5.913  19.767  0.00  0.00    +0.000 A 
ATOM      9  C   UNL     1      47.549   6.952  20.479  0.00  0.00    +0.000 C 
ATOM     10  C   UNL     1      49.764   5.731  20.027  0.00  0.00    +0.000 A 
BRANCH  10  11
ATOM     11  C   UNL     1      50.481   6.646  21.012  0.00  0.00    +0.000 C 
BRANCH  11  12
ATOM     12  C   UNL     1      51.174   7.828  20.345  0.00  0.00    +0.000 C 
ATOM     13  C   UNL     1      50.563   9.186  20.738  0.00  0.00    +0.000 C 
ATOM     14  O   UNL     1      50.177   9.469  19.379  0.00  0.00    +0.000 OA
ATOM     15  C   UNL     1      50.738   8.216  18.926  0.00  0.00    +0.000 C 
ENDBRANCH  11  12
ENDBRANCH  10  11
ENDBRANCH   1   6
BRANCH   1  16
ATOM     16  C   UNL     1      47.389   4.374  15.709  0.00  0.00    +0.000 C 
BRANCH  16  17
ATOM     17  O   UNL     1      47.365   3.624  14.486  0.00  0.00    +0.000 OA
BRANCH  17  18
ATOM     18  C   UNL     1      46.311   3.969  13.670  0.00  0.00    +0.000 A 
ATOM     19  C   UNL     1      45.910   5.301  13.647  0.00  0.00    +0.000 A 
ATOM     20  N   UNL     1      44.912   5.762  12.848  0.00  0.00    +0.000 NA
ATOM     21  C   UNL     1      44.329   4.806  12.066  0.00  0.00    +0.000 A 
ATOM     22  C   UNL     1      44.718   3.475  12.099  0.00  0.00    +0.000 A 
ATOM     23  N   UNL     1      45.715   3.027  12.903  0.00  0.00    +0.000 NA
BRANCH  21  24
ATOM     24  C   UNL     1      43.252   5.228  11.132  0.00  0.00    +0.000 C 
ATOM     25  N   UNL     1      42.253   5.985  11.678  0.00  0.00    +0.000 N 
ATOM     26  O   UNL     1      43.268   4.941   9.942  0.00  0.00    +0.000 OA
ATOM     27  H   UNL     1      42.283   6.233  12.665  0.00  0.00    +0.000 HD
ATOM     28  H   UNL     1      41.513   6.337  11.089  0.00  0.00    +0.000 HD
ENDBRANCH  21  24
ENDBRANCH  17  18
ENDBRANCH  16  17
ENDBRANCH   1  16
TORSDOF 7
ENDMDL
MODEL 9
REMARK VINA RESULT:    -5.755      4.809      7.012
REMARK INTER + INTRA:          -9.026
REMARK INTER:                  -7.964
REMARK INTRA:                  -1.062
REMARK UNBOUND:                -0.917
REMARK  Name = 
REMARK  10 active torsions:
REMARK  status: ('A' for Active; 'I' for Inactive)
REMARK    1  A    between atoms: C_1  and  C_2
REMARK    2  A    between atoms: C_4  and  C_5
REMARK    3  A    between atoms: C_5  and  C_6
REMARK    4  A    between atoms: C_5  and  C_7
REMARK    5  A    between atoms: C_7  and  O_8
REMARK    6  A    between atoms: O_8  and  C_9
REMARK    7  A    between atoms: C_12  and  C_13
REMARK    8  A    between atoms: C_19  and  C_20
REMARK    9  A    between atoms: C_21  and  C_22
REMARK   10  A    between atoms: C_22  and  C_23
REMARK                            x       y       z     vdW  Elec       q    Type
REMARK                         _______ _______ _______ _____ _____    ______ ____
ROOT
ATOM      1  C   UNL     1      45.789   4.940  12.513  0.00  0.00    +0.000 C 
ATOM      2  C   UNL     1      44.306   4.967  12.905  0.00  0.00    +0.000 C 
ENDROOT
BRANCH   1   6
ATOM      3  C   UNL     1      49.797   7.870  11.913  0.00  0.00    +0.000 C 
ATOM      4  C   UNL     1      48.303   7.812  12.106  0.00  0.00    +0.000 A 
ATOM      5  C   UNL     1      47.738   6.534  12.294  0.00  0.00    +0.000 A 
ATOM      6  C   UNL     1      46.360   6.346  12.413  0.00  0.00    +0.000 A 
ATOM      7  C   UNL     1      45.541   7.478  12.399  0.00  0.00    +0.000 A 
ATOM      8  C   UNL     1      46.069   8.774  12.229  0.00  0.00    +0.000 A 
ATOM      9  C   UNL     1      45.087   9.916  12.163  0.00  0.00    +0.000 C 
ATOM     10  C   UNL     1      47.468   8.957  12.064  0.00  0.00    +0.000 A 
BRANCH  10  11
ATOM     11  C   UNL     1      48.023  10.340  11.744  0.00  0.00    +0.000 C 
BRANCH  11  12
ATOM     12  C   UNL     1      48.474  11.111  12.979  0.00  0.00    +0.000 C 
ATOM     13  C   UNL     1      48.265  12.631  12.850  0.00  0.00    +0.000 C 
ATOM     14  O   UNL     1      49.679  12.891  12.961  0.00  0.00    +0.000 OA
ATOM     15  C   UNL     1      49.959  11.479  13.100  0.00  0.00    +0.000 C 
ENDBRANCH  11  12
ENDBRANCH  10  11
ENDBRANCH   1   6
BRANCH   1  16
ATOM     16  C   UNL     1      46.613   4.060  13.467  0.00  0.00    +0.000 C 
BRANCH  16  17
ATOM     17  O   UNL     1      46.217   4.326  14.821  0.00  0.00    +0.000 OA
BRANCH  17  18
ATOM     18  C   UNL     1      47.265   4.235  15.709  0.00  0.00    +0.000 A 
ATOM     19  C   UNL     1      48.157   5.301  15.780  0.00  0.00    +0.000 A 
ATOM     20  N   UNL     1      49.201   5.337  16.650  0.00  0.00    +0.000 NA
ATOM     21  C   UNL     1      49.305   4.238  17.452  0.00  0.00    +0.000 A 
ATOM     22  C   UNL     1      48.425   3.169  17.372  0.00  0.00    +0.000 A 
ATOM     23  N   UNL     1      47.388   3.143  16.498  0.00  0.00    +0.000 NA
BRANCH  21  24
ATOM     24  C   UNL     1      50.397   4.210  18.461  0.00  0.00    +0.000 C 
ATOM     25  N   UNL     1      51.291   3.182  18.343  0.00  0.00    +0.000 N 
ATOM     26  O   UNL     1      50.508   5.067  19.329  0.00  0.00    +0.000 OA
ATOM     27  H   UNL     1      51.190   2.502  17.592  0.00  0.00    +0.000 HD
ATOM     28  H   UNL     1      52.078   3.129  18.973  0.00  0.00    +0.000 HD
ENDBRANCH  21  24
ENDBRANCH  17  18
ENDBRANCH  16  17
ENDBRANCH   1  16
TORSDOF 7
ENDMDL
