MODEL 1
REMARK VINA RESULT:    -8.149      0.000      0.000
REMARK INTER + INTRA:         -10.619
REMARK INTER:                 -10.531
REMARK INTRA:                  -0.088
REMARK UNBOUND:                -0.088
REMARK  Name = 
REMARK  5 active torsions:
REMARK  status: ('A' for Active; 'I' for Inactive)
REMARK    1  A    between atoms: C_2  and  C_4
REMARK    2  A    between atoms: C_7  and  C_8
REMARK    3  A    between atoms: C_8  and  O_9
REMARK    4  A    between atoms: O_9  and  C_10
REMARK    5  A    between atoms: C_14  and  C_15
REMARK                            x       y       z     vdW  Elec       q    Type
REMARK                         _______ _______ _______ _____ _____    ______ ____
ROOT
ATOM      1  O   UNL     1      44.811   5.878  10.949  0.00  0.00    +0.000 OA
ENDROOT
BRANCH   1   2
ATOM      2  C   UNL     1      44.754   4.663  10.331  0.00  0.00    +0.000 A 
ATOM      3  C   UNL     1      43.826   3.759  10.829  0.00  0.00    +0.000 A 
ATOM      4  N   UNL     1      43.634   2.516  10.334  0.00  0.00    +0.000 NA
ATOM      5  C   UNL     1      44.419   2.154   9.290  0.00  0.00    +0.000 A 
ATOM      6  C   UNL     1      45.390   2.968   8.708  0.00  0.00    +0.000 A 
ATOM      7  C   UNL     1      45.534   4.254   9.251  0.00  0.00    +0.000 A 
BRANCH   6   8
ATOM      8  C   UNL     1      46.215   2.518   7.565  0.00  0.00    +0.000 C 
ATOM      9  C   UNL     1      46.460   3.311   6.503  0.00  0.00    +0.000 C 
ATOM     10  C   UNL     1      47.330   2.900   5.352  0.00  0.00    +0.000 C 
ATOM     11  O   UNL     1      48.122   1.752   5.654  0.00  0.00    +0.000 OA
ATOM     12  C   UNL     1      47.340   0.708   6.233  0.00  0.00    +0.000 C 
ATOM     13  C   UNL     1      46.827   1.138   7.609  0.00  0.00    +0.000 C 
ENDBRANCH   6   8
ENDBRANCH   1   2
BRANCH   1  14
ATOM     14  C   UNL     1      46.108   6.369  11.289  0.00  0.00    +0.000 C 
BRANCH  14  18
ATOM     15  C   UNL     1      47.349   4.787  14.972  0.00  0.00    +0.000 A 
ATOM     16  N   UNL     1      46.221   4.266  14.434  0.00  0.00    +0.000 NA
ATOM     17  C   UNL     1      45.838   4.806  13.262  0.00  0.00    +0.000 A 
ATOM     18  C   UNL     1      46.518   5.824  12.621  0.00  0.00    +0.000 A 
ATOM     19  C   UNL     1      47.663   6.260  13.261  0.00  0.00    +0.000 A 
ATOM     20  N   UNL     1      48.100   5.766  14.432  0.00  0.00    +0.000 NA
BRANCH  15  22
ATOM     21  N   UNL     1      46.840   3.541  17.013  0.00  0.00    +0.000 N 
ATOM     22  C   UNL     1      47.809   4.186  16.278  0.00  0.00    +0.000 C 
ATOM     23  O   UNL     1      48.960   4.241  16.688  0.00  0.00    +0.000 OA
ATOM     24  H   UNL     1      47.100   3.097  17.882  0.00  0.00    +0.000 HD
ATOM     25  H   UNL     1      45.891   3.476  16.659  0.00  0.00    +0.000 HD
ENDBRANCH  15  22
ENDBRANCH  14  18
ENDBRANCH   1  14
TORSDOF 5
ENDMDL
MODEL 2
REMARK VINA RESULT:    -8.121      2.555      7.289
REMARK INTER + INTRA:         -10.582
REMARK INTER:                  -9.953
REMARK INTRA:                  -0.629
REMARK UNBOUND:                -0.088
REMARK  Name = 
REMARK  5 active torsions:
REMARK  status: ('A' for Active; 'I' for Inactive)
REMARK    1  A    between atoms: C_2  and  C_4
REMARK    2  A    between atoms: C_7  and  C_8
REMARK    3  A    between atoms: C_8  and  O_9
REMARK    4  A    between atoms: O_9  and  C_10
REMARK    5  A    between atoms: C_14  and  C_15
REMARK                            x       y       z     vdW  Elec       q    Type
REMARK                         _______ _______ _______ _____ _____    ______ ____
ROOT
ATOM      1  O   UNL     1      44.263   5.357  10.746  0.00  0.00    +0.000 OA
ENDROOT
BRANCH   1   2
ATOM      2  C   UNL     1      45.213   5.366  11.725  0.00  0.00    +0.000 A 
ATOM      3  C   UNL     1      45.021   4.486  12.780  0.00  0.00    +0.000 A 
ATOM      4  N   UNL     1      45.863   4.361  13.830  0.00  0.00    +0.000 NA
ATOM      5  C   UNL     1      46.952   5.169  13.829  0.00  0.00    +0.000 A 
ATOM      6  C   UNL     1      47.250   6.097  12.832  0.00  0.00    +0.000 A 
ATOM      7  C   UNL     1      46.350   6.171  11.758  0.00  0.00    +0.000 A 
BRANCH   6   8
ATOM      8  C   UNL     1      48.459   6.949  12.883  0.00  0.00    +0.000 C 
ATOM      9  C   UNL     1      49.154   7.138  14.023  0.00  0.00    +0.000 C 
ATOM     10  C   UNL     1      50.408   7.957  14.096  0.00  0.00    +0.000 C 
ATOM     11  O   UNL     1      50.959   8.223  12.805  0.00  0.00    +0.000 OA
ATOM     12  C   UNL     1      49.968   8.701  11.897  0.00  0.00    +0.000 C 
ATOM     13  C   UNL     1      48.945   7.600  11.609  0.00  0.00    +0.000 C 
ENDBRANCH   6   8
ENDBRANCH   1   2
BRANCH   1  14
ATOM     14  C   UNL     1      43.796   4.080  10.310  0.00  0.00    +0.000 C 
BRANCH  14  18
ATOM     15  C   UNL     1      46.530   2.482   7.558  0.00  0.00    +0.000 A 
ATOM     16  N   UNL     1      46.319   3.818   7.502  0.00  0.00    +0.000 NA
ATOM     17  C   UNL     1      45.424   4.299   8.384  0.00  0.00    +0.000 A 
ATOM     18  C   UNL     1      44.743   3.517   9.298  0.00  0.00    +0.000 A 
ATOM     19  C   UNL     1      45.056   2.171   9.269  0.00  0.00    +0.000 A 
ATOM     20  N   UNL     1      45.937   1.626   8.413  0.00  0.00    +0.000 NA
BRANCH  15  22
ATOM     21  N   UNL     1      48.626   2.728   6.324  0.00  0.00    +0.000 N 
ATOM     22  C   UNL     1      47.543   1.921   6.590  0.00  0.00    +0.000 C 
ATOM     23  O   UNL     1      47.447   0.822   6.060  0.00  0.00    +0.000 OA
ATOM     24  H   UNL     1      49.348   2.389   5.705  0.00  0.00    +0.000 HD
ATOM     25  H   UNL     1      48.716   3.628   6.784  0.00  0.00    +0.000 HD
ENDBRANCH  15  22
ENDBRANCH  14  18
ENDBRANCH   1  14
TORSDOF 5
ENDMDL
MODEL 3
REMARK VINA RESULT:    -8.021      2.588      7.483
REMARK INTER + INTRA:         -10.453
REMARK INTER:                  -9.811
REMARK INTRA:                  -0.642
REMARK UNBOUND:                -0.088
REMARK  Name = 
REMARK  5 active torsions:
REMARK  status: ('A' for Active; 'I' for Inactive)
REMARK    1  A    between atoms: C_2  and  C_4
REMARK    2  A    between atoms: C_7  and  C_8
REMARK    3  A    between atoms: C_8  and  O_9
REMARK    4  A    between atoms: O_9  and  C_10
REMARK    5  A    between atoms: C_14  and  C_15
REMARK                            x       y       z     vdW  Elec       q    Type
REMARK                         _______ _______ _______ _____ _____    ______ ____
ROOT
ATOM      1  O   UNL     1      44.576   3.137  11.863  0.00  0.00    +0.000 OA
ENDROOT
BRANCH   1   2
ATOM      2  C   UNL     1      45.434   4.067  12.375  0.00  0.00    +0.000 A 
ATOM      3  C   UNL     1      46.425   3.593  13.222  0.00  0.00    +0.000 A 
ATOM      4  N   UNL     1      47.359   4.372  13.813  0.00  0.00    +0.000 NA
ATOM      5  C   UNL     1      47.291   5.700  13.548  0.00  0.00    +0.000 A 
ATOM      6  C   UNL     1      46.340   6.296  12.721  0.00  0.00    +0.000 A 
ATOM      7  C   UNL     1      45.407   5.436  12.122  0.00  0.00    +0.000 A 
BRANCH   6   8
ATOM      8  C   UNL     1      46.319   7.754  12.466  0.00  0.00    +0.000 C 
ATOM      9  C   UNL     1      47.375   8.544  12.745  0.00  0.00    +0.000 C 
ATOM     10  C   UNL     1      47.401  10.015  12.454  0.00  0.00    +0.000 C 
ATOM     11  O   UNL     1      46.356  10.411  11.565  0.00  0.00    +0.000 OA
ATOM     12  C   UNL     1      45.091   9.890  11.972  0.00  0.00    +0.000 C 
ATOM     13  C   UNL     1      45.086   8.366  11.843  0.00  0.00    +0.000 C 
ENDBRANCH   6   8
ENDBRANCH   1   2
BRANCH   1  14
ATOM     14  C   UNL     1      43.849   3.506  10.691  0.00  0.00    +0.000 C 
BRANCH  14  18
ATOM     15  C   UNL     1      46.327   2.862   7.367  0.00  0.00    +0.000 A 
ATOM     16  N   UNL     1      45.875   4.125   7.554  0.00  0.00    +0.000 NA
ATOM     17  C   UNL     1      45.068   4.297   8.618  0.00  0.00    +0.000 A 
ATOM     18  C   UNL     1      44.699   3.281   9.481  0.00  0.00    +0.000 A 
ATOM     19  C   UNL     1      45.237   2.042   9.193  0.00  0.00    +0.000 A 
ATOM     20  N   UNL     1      46.047   1.801   8.147  0.00  0.00    +0.000 NA
BRANCH  15  22
ATOM     21  N   UNL     1      48.584   2.518   6.494  0.00  0.00    +0.000 N 
ATOM     22  C   UNL     1      47.248   2.647   6.190  0.00  0.00    +0.000 C 
ATOM     23  O   UNL     1      46.869   2.580   5.029  0.00  0.00    +0.000 OA
ATOM     24  H   UNL     1      49.241   2.344   5.747  0.00  0.00    +0.000 HD
ATOM     25  H   UNL     1      48.893   2.549   7.460  0.00  0.00    +0.000 HD
ENDBRANCH  15  22
ENDBRANCH  14  18
ENDBRANCH   1  14
TORSDOF 5
ENDMDL
MODEL 4
REMARK VINA RESULT:    -7.731      1.482      1.965
REMARK INTER + INTRA:         -10.079
REMARK INTER:                  -9.518
REMARK INTRA:                  -0.561
REMARK UNBOUND:                -0.088
REMARK  Name = 
REMARK  5 active torsions:
REMARK  status: ('A' for Active; 'I' for Inactive)
REMARK    1  A    between atoms: C_2  and  C_4
REMARK    2  A    between atoms: C_7  and  C_8
REMARK    3  A    between atoms: C_8  and  O_9
REMARK    4  A    between atoms: O_9  and  C_10
REMARK    5  A    between atoms: C_14  and  C_15
REMARK                            x       y       z     vdW  Elec       q    Type
REMARK                         _______ _______ _______ _____ _____    ______ ____
ROOT
ATOM      1  O   UNL     1      45.107   6.130  10.577  0.00  0.00    +0.000 OA
ENDROOT
BRANCH   1   2
ATOM      2  C   UNL     1      45.000   4.875  10.053  0.00  0.00    +0.000 A 
ATOM      3  C   UNL     1      44.067   4.036  10.644  0.00  0.00    +0.000 A 
ATOM      4  N   UNL     1      43.828   2.766  10.250  0.00  0.00    +0.000 NA
ATOM      5  C   UNL     1      44.570   2.307   9.212  0.00  0.00    +0.000 A 
ATOM      6  C   UNL     1      45.542   3.049   8.542  0.00  0.00    +0.000 A 
ATOM      7  C   UNL     1      45.735   4.367   8.984  0.00  0.00    +0.000 A 
BRANCH   6   8
ATOM      8  C   UNL     1      46.318   2.495   7.411  0.00  0.00    +0.000 C 
ATOM      9  C   UNL     1      46.607   3.224   6.315  0.00  0.00    +0.000 C 
ATOM     10  C   UNL     1      47.432   2.704   5.175  0.00  0.00    +0.000 C 
ATOM     11  O   UNL     1      48.142   1.514   5.517  0.00  0.00    +0.000 OA
ATOM     12  C   UNL     1      47.294   0.555   6.145  0.00  0.00    +0.000 C 
ATOM     13  C   UNL     1      46.830   1.076   7.507  0.00  0.00    +0.000 C 
ENDBRANCH   6   8
ENDBRANCH   1   2
BRANCH   1  14
ATOM     14  C   UNL     1      44.757   6.288  11.952  0.00  0.00    +0.000 C 
BRANCH  14  18
ATOM     15  C   UNL     1      48.282   6.965  14.125  0.00  0.00    +0.000 A 
ATOM     16  N   UNL     1      47.862   5.681  14.031  0.00  0.00    +0.000 NA
ATOM     17  C   UNL     1      46.719   5.498  13.343  0.00  0.00    +0.000 A 
ATOM     18  C   UNL     1      45.993   6.521  12.762  0.00  0.00    +0.000 A 
ATOM     19  C   UNL     1      46.533   7.784  12.914  0.00  0.00    +0.000 A 
ATOM     20  N   UNL     1      47.668   8.037  13.589  0.00  0.00    +0.000 NA
BRANCH  15  22
ATOM     21  N   UNL     1      50.653   7.563  14.107  0.00  0.00    +0.000 N 
ATOM     22  C   UNL     1      49.571   7.196  14.876  0.00  0.00    +0.000 C 
ATOM     23  O   UNL     1      49.686   7.080  16.088  0.00  0.00    +0.000 OA
ATOM     24  H   UNL     1      51.533   7.757  14.563  0.00  0.00    +0.000 HD
ATOM     25  H   UNL     1      50.549   7.682  13.105  0.00  0.00    +0.000 HD
ENDBRANCH  15  22
ENDBRANCH  14  18
ENDBRANCH   1  14
TORSDOF 5
ENDMDL
MODEL 5
REMARK VINA RESULT:    -7.575      2.204      7.765
REMARK INTER + INTRA:          -9.877
REMARK INTER:                  -9.375
REMARK INTRA:                  -0.502
REMARK UNBOUND:                -0.088
REMARK  Name = 
REMARK  5 active torsions:
REMARK  status: ('A' for Active; 'I' for Inactive)
REMARK    1  A    between atoms: C_2  and  C_4
REMARK    2  A    between atoms: C_7  and  C_8
REMARK    3  A    between atoms: C_8  and  O_9
REMARK    4  A    between atoms: O_9  and  C_10
REMARK    5  A    between atoms: C_14  and  C_15
REMARK                            x       y       z     vdW  Elec       q    Type
REMARK                         _______ _______ _______ _____ _____    ______ ____
ROOT
ATOM      1  O   UNL     1      44.205   3.936  11.405  0.00  0.00    +0.000 OA
ENDROOT
BRANCH   1   2
ATOM      2  C   UNL     1      45.058   4.767  12.071  0.00  0.00    +0.000 A 
ATOM      3  C   UNL     1      45.177   6.057  11.575  0.00  0.00    +0.000 A 
ATOM      4  N   UNL     1      45.972   7.009  12.113  0.00  0.00    +0.000 NA
ATOM      5  C   UNL     1      46.694   6.647  13.202  0.00  0.00    +0.000 A 
ATOM      6  C   UNL     1      46.667   5.381  13.787  0.00  0.00    +0.000 A 
ATOM      7  C   UNL     1      45.811   4.439  13.196  0.00  0.00    +0.000 A 
BRANCH   6   8
ATOM      8  C   UNL     1      47.476   5.045  14.979  0.00  0.00    +0.000 C 
ATOM      9  C   UNL     1      47.366   3.858  15.608  0.00  0.00    +0.000 C 
ATOM     10  C   UNL     1      48.206   3.472  16.789  0.00  0.00    +0.000 C 
ATOM     11  O   UNL     1      49.335   4.330  16.956  0.00  0.00    +0.000 OA
ATOM     12  C   UNL     1      48.966   5.706  16.893  0.00  0.00    +0.000 C 
ATOM     13  C   UNL     1      48.480   6.055  15.484  0.00  0.00    +0.000 C 
ENDBRANCH   6   8
ENDBRANCH   1   2
BRANCH   1  14
ATOM     14  C   UNL     1      43.882   4.286  10.059  0.00  0.00    +0.000 C 
BRANCH  14  18
ATOM     15  C   UNL     1      46.662   2.670   7.364  0.00  0.00    +0.000 A 
ATOM     16  N   UNL     1      46.047   1.800   8.200  0.00  0.00    +0.000 NA
ATOM     17  C   UNL     1      45.174   2.350   9.064  0.00  0.00    +0.000 A 
ATOM     18  C   UNL     1      44.899   3.703   9.130  0.00  0.00    +0.000 A 
ATOM     19  C   UNL     1      45.578   4.485   8.216  0.00  0.00    +0.000 A 
ATOM     20  N   UNL     1      46.464   4.001   7.327  0.00  0.00    +0.000 NA
BRANCH  15  22
ATOM     21  N   UNL     1      48.091   2.932   5.397  0.00  0.00    +0.000 N 
ATOM     22  C   UNL     1      47.633   2.075   6.373  0.00  0.00    +0.000 C 
ATOM     23  O   UNL     1      48.018   0.914   6.404  0.00  0.00    +0.000 OA
ATOM     24  H   UNL     1      48.764   2.594   4.726  0.00  0.00    +0.000 HD
ATOM     25  H   UNL     1      47.789   3.901   5.388  0.00  0.00    +0.000 HD
ENDBRANCH  15  22
ENDBRANCH  14  18
ENDBRANCH   1  14
TORSDOF 5
ENDMDL
MODEL 6
REMARK VINA RESULT:    -7.313      1.490      2.118
REMARK INTER + INTRA:          -9.539
REMARK INTER:                  -9.477
REMARK INTRA:                  -0.061
REMARK UNBOUND:                -0.088
REMARK  Name = 
REMARK  5 active torsions:
REMARK  status: ('A' for Active; 'I' for Inactive)
REMARK    1  A    between atoms: C_2  and  C_4
REMARK    2  A    between atoms: C_7  and  C_8
REMARK    3  A    between atoms: C_8  and  O_9
REMARK    4  A    between atoms: O_9  and  C_10
REMARK    5  A    between atoms: C_14  and  C_15
REMARK                            x       y       z     vdW  Elec       q    Type
REMARK                         _______ _______ _______ _____ _____    ______ ____
ROOT
ATOM      1  O   UNL     1      45.917   7.220  12.102  0.00  0.00    +0.000 OA
ENDROOT
BRANCH   1   2
ATOM      2  C   UNL     1      45.225   6.307  11.359  0.00  0.00    +0.000 A 
ATOM      3  C   UNL     1      43.848   6.288  11.528  0.00  0.00    +0.000 A 
ATOM      4  N   UNL     1      43.012   5.454  10.872  0.00  0.00    +0.000 NA
ATOM      5  C   UNL     1      43.586   4.584  10.005  0.00  0.00    +0.000 A 
ATOM      6  C   UNL     1      44.956   4.501   9.755  0.00  0.00    +0.000 A 
ATOM      7  C   UNL     1      45.774   5.403  10.452  0.00  0.00    +0.000 A 
BRANCH   6   8
ATOM      8  C   UNL     1      45.525   3.531   8.792  0.00  0.00    +0.000 C 
ATOM      9  C   UNL     1      46.015   3.914   7.596  0.00  0.00    +0.000 C 
ATOM     10  C   UNL     1      46.640   2.961   6.621  0.00  0.00    +0.000 C 
ATOM     11  O   UNL     1      46.961   1.705   7.218  0.00  0.00    +0.000 OA
ATOM     12  C   UNL     1      45.865   1.182   7.968  0.00  0.00    +0.000 C 
ATOM     13  C   UNL     1      45.586   2.072   9.180  0.00  0.00    +0.000 C 
ENDBRANCH   6   8
ENDBRANCH   1   2
BRANCH   1  14
ATOM     14  C   UNL     1      47.286   6.925  12.376  0.00  0.00    +0.000 C 
BRANCH  14  18
ATOM     15  C   UNL     1      47.444   4.529  15.816  0.00  0.00    +0.000 A 
ATOM     16  N   UNL     1      48.283   5.591  15.774  0.00  0.00    +0.000 NA
ATOM     17  C   UNL     1      48.222   6.330  14.651  0.00  0.00    +0.000 A 
ATOM     18  C   UNL     1      47.380   6.056  13.590  0.00  0.00    +0.000 A 
ATOM     19  C   UNL     1      46.562   4.956  13.758  0.00  0.00    +0.000 A 
ATOM     20  N   UNL     1      46.573   4.174  14.852  0.00  0.00    +0.000 NA
BRANCH  15  22
ATOM     21  N   UNL     1      48.641   3.774  17.810  0.00  0.00    +0.000 N 
ATOM     22  C   UNL     1      47.481   3.694  17.073  0.00  0.00    +0.000 C 
ATOM     23  O   UNL     1      46.558   2.985  17.451  0.00  0.00    +0.000 OA
ATOM     24  H   UNL     1      48.708   3.258  18.675  0.00  0.00    +0.000 HD
ATOM     25  H   UNL     1      49.396   4.382  17.508  0.00  0.00    +0.000 HD
ENDBRANCH  15  22
ENDBRANCH  14  18
ENDBRANCH   1  14
TORSDOF 5
ENDMDL
MODEL 7
REMARK VINA RESULT:    -7.292      3.162      7.747
REMARK INTER + INTRA:          -9.511
REMARK INTER:                  -8.888
REMARK INTRA:                  -0.624
REMARK UNBOUND:                -0.088
REMARK  Name = 
REMARK  5 active torsions:
REMARK  status: ('A' for Active; 'I' for Inactive)
REMARK    1  A    between atoms: C_2  and  C_4
REMARK    2  A    between atoms: C_7  and  C_8
REMARK    3  A    between atoms: C_8  and  O_9
REMARK    4  A    between atoms: O_9  and  C_10
REMARK    5  A    between atoms: C_14  and  C_15
REMARK                            x       y       z     vdW  Elec       q    Type
REMARK                         _______ _______ _______ _____ _____    ______ ____
ROOT
ATOM      1  O   UNL     1      44.073   4.696  11.524  0.00  0.00    +0.000 OA
ENDROOT
BRANCH   1   2
ATOM      2  C   UNL     1      44.871   5.700  11.988  0.00  0.00    +0.000 A 
ATOM      3  C   UNL     1      45.945   5.322  12.781  0.00  0.00    +0.000 A 
ATOM      4  N   UNL     1      46.835   6.185  13.319  0.00  0.00    +0.000 NA
ATOM      5  C   UNL     1      46.636   7.499  13.056  0.00  0.00    +0.000 A 
ATOM      6  C   UNL     1      45.592   8.004  12.281  0.00  0.00    +0.000 A 
ATOM      7  C   UNL     1      44.708   7.061  11.735  0.00  0.00    +0.000 A 
BRANCH   6   8
ATOM      8  C   UNL     1      45.428   9.452  12.025  0.00  0.00    +0.000 C 
ATOM      9  C   UNL     1      44.239   9.989  11.688  0.00  0.00    +0.000 C 
ATOM     10  C   UNL     1      44.032  11.458  11.469  0.00  0.00    +0.000 C 
ATOM     11  O   UNL     1      45.114  12.240  11.975  0.00  0.00    +0.000 OA
ATOM     12  C   UNL     1      46.377  11.730  11.551  0.00  0.00    +0.000 C 
ATOM     13  C   UNL     1      46.627  10.358  12.180  0.00  0.00    +0.000 C 
ENDBRANCH   6   8
ENDBRANCH   1   2
BRANCH   1  14
ATOM     14  C   UNL     1      43.765   4.706  10.130  0.00  0.00    +0.000 C 
BRANCH  14  18
ATOM     15  C   UNL     1      46.285   2.118   7.996  0.00  0.00    +0.000 A 
ATOM     16  N   UNL     1      45.410   1.545   8.856  0.00  0.00    +0.000 NA
ATOM     17  C   UNL     1      44.627   2.401   9.538  0.00  0.00    +0.000 A 
ATOM     18  C   UNL     1      44.685   3.776   9.405  0.00  0.00    +0.000 A 
ATOM     19  C   UNL     1      45.607   4.239   8.487  0.00  0.00    +0.000 A 
ATOM     20  N   UNL     1      46.420   3.439   7.773  0.00  0.00    +0.000 NA
BRANCH  15  22
ATOM     21  N   UNL     1      48.207   1.765   6.527  0.00  0.00    +0.000 N 
ATOM     22  C   UNL     1      47.162   1.178   7.205  0.00  0.00    +0.000 C 
ATOM     23  O   UNL     1      46.992  -0.032   7.150  0.00  0.00    +0.000 OA
ATOM     24  H   UNL     1      48.842   1.178   6.005  0.00  0.00    +0.000 HD
ATOM     25  H   UNL     1      48.361   2.765   6.595  0.00  0.00    +0.000 HD
ENDBRANCH  15  22
ENDBRANCH  14  18
ENDBRANCH   1  14
TORSDOF 5
ENDMDL
MODEL 8
REMARK VINA RESULT:    -7.254      1.714      2.399
REMARK INTER + INTRA:          -9.462
REMARK INTER:                  -9.232
REMARK INTRA:                  -0.229
REMARK UNBOUND:                -0.088
REMARK  Name = 
REMARK  5 active torsions:
REMARK  status: ('A' for Active; 'I' for Inactive)
REMARK    1  A    between atoms: C_2  and  C_4
REMARK    2  A    between atoms: C_7  and  C_8
REMARK    3  A    between atoms: C_8  and  O_9
REMARK    4  A    between atoms: O_9  and  C_10
REMARK    5  A    between atoms: C_14  and  C_15
REMARK                            x       y       z     vdW  Elec       q    Type
REMARK                         _______ _______ _______ _____ _____    ______ ____
ROOT
ATOM      1  O   UNL     1      43.257   3.803  10.327  0.00  0.00    +0.000 OA
ENDROOT
BRANCH   1   2
ATOM      2  C   UNL     1      44.345   4.011   9.530  0.00  0.00    +0.000 A 
ATOM      3  C   UNL     1      44.981   5.238   9.660  0.00  0.00    +0.000 A 
ATOM      4  N   UNL     1      46.072   5.608   8.953  0.00  0.00    +0.000 NA
ATOM      5  C   UNL     1      46.547   4.706   8.061  0.00  0.00    +0.000 A 
ATOM      6  C   UNL     1      45.992   3.446   7.834  0.00  0.00    +0.000 A 
ATOM      7  C   UNL     1      44.872   3.109   8.608  0.00  0.00    +0.000 A 
BRANCH   6   8
ATOM      8  C   UNL     1      46.559   2.501   6.847  0.00  0.00    +0.000 C 
ATOM      9  C   UNL     1      46.688   2.818   5.544  0.00  0.00    +0.000 C 
ATOM     10  C   UNL     1      47.302   1.899   4.530  0.00  0.00    +0.000 C 
ATOM     11  O   UNL     1      48.024   0.826   5.136  0.00  0.00    +0.000 OA
ATOM     12  C   UNL     1      47.260   0.187   6.157  0.00  0.00    +0.000 C 
ATOM     13  C   UNL     1      47.038   1.150   7.326  0.00  0.00    +0.000 C 
ENDBRANCH   6   8
ENDBRANCH   1   2
BRANCH   1  14
ATOM     14  C   UNL     1      43.435   2.937  11.449  0.00  0.00    +0.000 C 
BRANCH  14  18
ATOM     15  C   UNL     1      46.344   4.633  13.952  0.00  0.00    +0.000 A 
ATOM     16  N   UNL     1      46.634   3.427  13.411  0.00  0.00    +0.000 NA
ATOM     17  C   UNL     1      45.675   2.900  12.627  0.00  0.00    +0.000 A 
ATOM     18  C   UNL     1      44.463   3.513  12.370  0.00  0.00    +0.000 A 
ATOM     19  C   UNL     1      44.291   4.747  12.967  0.00  0.00    +0.000 A 
ATOM     20  N   UNL     1      45.206   5.329  13.762  0.00  0.00    +0.000 NA
BRANCH  15  22
ATOM     21  N   UNL     1      47.654   6.591  14.605  0.00  0.00    +0.000 N 
ATOM     22  C   UNL     1      47.411   5.254  14.821  0.00  0.00    +0.000 C 
ATOM     23  O   UNL     1      48.036   4.643  15.677  0.00  0.00    +0.000 OA
ATOM     24  H   UNL     1      48.338   7.062  15.179  0.00  0.00    +0.000 HD
ATOM     25  H   UNL     1      47.117   7.102  13.912  0.00  0.00    +0.000 HD
ENDBRANCH  15  22
ENDBRANCH  14  18
ENDBRANCH   1  14
TORSDOF 5
ENDMDL
MODEL 9
REMARK VINA RESULT:    -7.056      4.122      5.906
REMARK INTER + INTRA:          -9.206
REMARK INTER:                  -8.653
REMARK INTRA:                  -0.553
REMARK UNBOUND:                -0.088
REMARK  Name = 
REMARK  5 active torsions:
REMARK  status: ('A' for Active; 'I' for Inactive)
REMARK    1  A    between atoms: C_2  and  C_4
REMARK    2  A    between atoms: C_7  and  C_8
REMARK    3  A    between atoms: C_8  and  O_9
REMARK    4  A    between atoms: O_9  and  C_10
REMARK    5  A    between atoms: C_14  and  C_15
REMARK                            x       y       z     vdW  Elec       q    Type
REMARK                         _______ _______ _______ _____ _____    ______ ____
ROOT
ATOM      1  O   UNL     1      48.657   5.969  15.590  0.00  0.00    +0.000 OA
ENDROOT
BRANCH   1   2
ATOM      2  C   UNL     1      48.020   6.072  14.388  0.00  0.00    +0.000 A 
ATOM      3  C   UNL     1      48.591   6.927  13.457  0.00  0.00    +0.000 A 
ATOM      4  N   UNL     1      48.095   7.145  12.219  0.00  0.00    +0.000 NA
ATOM      5  C   UNL     1      46.960   6.477  11.897  0.00  0.00    +0.000 A 
ATOM      6  C   UNL     1      46.290   5.598  12.747  0.00  0.00    +0.000 A 
ATOM      7  C   UNL     1      46.859   5.398  14.014  0.00  0.00    +0.000 A 
BRANCH   6   8
ATOM      8  C   UNL     1      45.055   4.893  12.338  0.00  0.00    +0.000 C 
ATOM      9  C   UNL     1      43.927   5.556  12.012  0.00  0.00    +0.000 C 
ATOM     10  C   UNL     1      42.675   4.872  11.549  0.00  0.00    +0.000 C 
ATOM     11  O   UNL     1      42.906   3.514  11.173  0.00  0.00    +0.000 OA
ATOM     12  C   UNL     1      43.656   2.813  12.164  0.00  0.00    +0.000 C 
ATOM     13  C   UNL     1      45.072   3.385  12.253  0.00  0.00    +0.000 C 
ENDBRANCH   6   8
ENDBRANCH   1   2
BRANCH   1  14
ATOM     14  C   UNL     1      48.119   5.037  16.529  0.00  0.00    +0.000 C 
BRANCH  14  18
ATOM     15  C   UNL     1      51.103   2.231  17.435  0.00  0.00    +0.000 A 
ATOM     16  N   UNL     1      49.930   1.743  16.967  0.00  0.00    +0.000 NA
ATOM     17  C   UNL     1      48.987   2.665  16.702  0.00  0.00    +0.000 A 
ATOM     18  C   UNL     1      49.161   4.024  16.885  0.00  0.00    +0.000 A 
ATOM     19  C   UNL     1      50.405   4.399  17.353  0.00  0.00    +0.000 A 
ATOM     20  N   UNL     1      51.391   3.531  17.639  0.00  0.00    +0.000 NA
BRANCH  15  22
ATOM     21  N   UNL     1      51.750  -0.003  18.190  0.00  0.00    +0.000 N 
ATOM     22  C   UNL     1      52.184   1.217  17.723  0.00  0.00    +0.000 C 
ATOM     23  O   UNL     1      53.379   1.426  17.559  0.00  0.00    +0.000 OA
ATOM     24  H   UNL     1      52.429  -0.727  18.372  0.00  0.00    +0.000 HD
ATOM     25  H   UNL     1      50.757  -0.182  18.302  0.00  0.00    +0.000 HD
ENDBRANCH  15  22
ENDBRANCH  14  18
ENDBRANCH   1  14
TORSDOF 5
ENDMDL
