MODEL 1
REMARK VINA RESULT:    -7.384      0.000      0.000
REMARK INTER + INTRA:         -10.231
REMARK INTER:                  -9.326
REMARK INTRA:                  -0.905
REMARK UNBOUND:                -0.905
REMARK  Name = 
REMARK  7 active torsions:
REMARK  status: ('A' for Active; 'I' for Inactive)
REMARK    1  A    between atoms: C_1  and  C_2
REMARK    2  A    between atoms: C_4  and  C_5
REMARK    3  A    between atoms: C_7  and  O_8
REMARK    4  A    between atoms: O_8  and  C_9
REMARK    5  A    between atoms: C_9  and  C_10
REMARK    6  A    between atoms: C_14  and  C_15
REMARK    7  A    between atoms: C_19  and  O_20
REMARK                            x       y       z     vdW  Elec       q    Type
REMARK                         _______ _______ _______ _____ _____    ______ ____
ROOT
ATOM      1  C   UNL     1      47.370   7.558  12.965  0.00  0.00    +0.000 A 
ATOM      2  C   UNL     1      46.513   8.666  13.022  0.00  0.00    +0.000 A 
ATOM      3  C   UNL     1      45.257   8.638  12.417  0.00  0.00    +0.000 A 
ATOM      4  C   UNL     1      44.838   7.499  11.727  0.00  0.00    +0.000 A 
ATOM      5  C   UNL     1      45.653   6.359  11.641  0.00  0.00    +0.000 A 
ATOM      6  C   UNL     1      46.895   6.407  12.302  0.00  0.00    +0.000 A 
ENDROOT
BRANCH   5   7
ATOM      7  C   UNL     1      45.261   5.182  10.832  0.00  0.00    +0.000 A 
ATOM      8  C   UNL     1      45.612   5.059   9.474  0.00  0.00    +0.000 A 
ATOM      9  C   UNL     1      45.192   3.966   8.706  0.00  0.00    +0.000 A 
ATOM     10  C   UNL     1      44.426   2.958   9.283  0.00  0.00    +0.000 A 
ATOM     11  C   UNL     1      44.082   3.057  10.625  0.00  0.00    +0.000 A 
ATOM     12  C   UNL     1      44.478   4.153  11.386  0.00  0.00    +0.000 A 
BRANCH  11  13
ATOM     13  O   UNL     1      43.343   2.090  11.243  0.00  0.00    +0.000 OA
ATOM     14  H   UNL     1      42.722   2.520  11.853  0.00  0.00    +0.000 HD
ENDBRANCH  11  13
ENDBRANCH   5   7
BRANCH   1  15
ATOM     15  C   UNL     1      48.781   7.626  13.531  0.00  0.00    +0.000 C 
ATOM     16  C   UNL     1      49.915   8.104  12.620  0.00  0.00    +0.000 C 
ATOM     17  C   UNL     1      49.401   9.001  13.692  0.00  0.00    +0.000 C 
BRANCH  15  18
ATOM     18  O   UNL     1      49.222   6.499  14.319  0.00  0.00    +0.000 OA
BRANCH  18  25
ATOM     19  C   UNL     1      48.713   7.838  18.866  0.00  0.00    +0.000 C 
ATOM     20  C   UNL     1      48.459   6.848  17.768  0.00  0.00    +0.000 A 
ATOM     21  C   UNL     1      47.922   5.607  18.053  0.00  0.00    +0.000 A 
ATOM     22  C   UNL     1      47.784   4.735  16.991  0.00  0.00    +0.000 A 
ATOM     23  C   UNL     1      47.244   3.348  17.184  0.00  0.00    +0.000 C 
ATOM     24  N   UNL     1      48.150   5.064  15.738  0.00  0.00    +0.000 NA
ATOM     25  C   UNL     1      48.640   6.300  15.554  0.00  0.00    +0.000 A 
ATOM     26  N   UNL     1      48.812   7.217  16.522  0.00  0.00    +0.000 NA
ENDBRANCH  18  25
ENDBRANCH  15  18
ENDBRANCH   1  15
TORSDOF 5
ENDMDL
MODEL 2
REMARK VINA RESULT:    -7.089      2.018      3.375
REMARK INTER + INTRA:          -9.859
REMARK INTER:                  -9.039
REMARK INTRA:                  -0.820
REMARK UNBOUND:                -0.905
REMARK  Name = 
REMARK  7 active torsions:
REMARK  status: ('A' for Active; 'I' for Inactive)
REMARK    1  A    between atoms: C_1  and  C_2
REMARK    2  A    between atoms: C_4  and  C_5
REMARK    3  A    between atoms: C_7  and  O_8
REMARK    4  A    between atoms: O_8  and  C_9
REMARK    5  A    between atoms: C_9  and  C_10
REMARK    6  A    between atoms: C_14  and  C_15
REMARK    7  A    between atoms: C_19  and  O_20
REMARK                            x       y       z     vdW  Elec       q    Type
REMARK                         _______ _______ _______ _____ _____    ______ ____
ROOT
ATOM      1  C   UNL     1      45.457   6.576  11.892  0.00  0.00    +0.000 A 
ATOM      2  C   UNL     1      44.093   6.644  12.209  0.00  0.00    +0.000 A 
ATOM      3  C   UNL     1      43.170   5.790  11.607  0.00  0.00    +0.000 A 
ATOM      4  C   UNL     1      43.595   4.855  10.661  0.00  0.00    +0.000 A 
ATOM      5  C   UNL     1      44.949   4.741  10.308  0.00  0.00    +0.000 A 
ATOM      6  C   UNL     1      45.857   5.588  10.968  0.00  0.00    +0.000 A 
ENDROOT
BRANCH   5   7
ATOM      7  C   UNL     1      45.398   3.820   9.237  0.00  0.00    +0.000 A 
ATOM      8  C   UNL     1      45.311   2.422   9.371  0.00  0.00    +0.000 A 
ATOM      9  C   UNL     1      45.786   1.562   8.374  0.00  0.00    +0.000 A 
ATOM     10  C   UNL     1      46.342   2.080   7.207  0.00  0.00    +0.000 A 
ATOM     11  C   UNL     1      46.422   3.458   7.054  0.00  0.00    +0.000 A 
ATOM     12  C   UNL     1      45.972   4.317   8.053  0.00  0.00    +0.000 A 
BRANCH  11  13
ATOM     13  O   UNL     1      46.946   4.019   5.926  0.00  0.00    +0.000 OA
ATOM     14  H   UNL     1      46.321   4.683   5.593  0.00  0.00    +0.000 HD
ENDBRANCH  11  13
ENDBRANCH   5   7
BRANCH   1  15
ATOM     15  C   UNL     1      46.447   7.579  12.466  0.00  0.00    +0.000 C 
ATOM     16  C   UNL     1      46.418   9.019  11.947  0.00  0.00    +0.000 C 
ATOM     17  C   UNL     1      45.885   8.711  13.304  0.00  0.00    +0.000 C 
BRANCH  15  18
ATOM     18  O   UNL     1      47.814   7.134  12.612  0.00  0.00    +0.000 OA
BRANCH  18  25
ATOM     19  C   UNL     1      47.263   3.977  16.142  0.00  0.00    +0.000 C 
ATOM     20  C   UNL     1      47.905   5.221  15.600  0.00  0.00    +0.000 A 
ATOM     21  C   UNL     1      48.646   6.044  16.426  0.00  0.00    +0.000 A 
ATOM     22  C   UNL     1      49.144   7.201  15.859  0.00  0.00    +0.000 A 
ATOM     23  C   UNL     1      49.936   8.188  16.665  0.00  0.00    +0.000 C 
ATOM     24  N   UNL     1      48.927   7.521  14.570  0.00  0.00    +0.000 NA
ATOM     25  C   UNL     1      48.214   6.649  13.840  0.00  0.00    +0.000 A 
ATOM     26  N   UNL     1      47.689   5.500  14.301  0.00  0.00    +0.000 NA
ENDBRANCH  18  25
ENDBRANCH  15  18
ENDBRANCH   1  15
TORSDOF 5
ENDMDL
MODEL 3
REMARK VINA RESULT:    -6.923      3.500      5.740
REMARK INTER + INTRA:          -9.649
REMARK INTER:                  -8.760
REMARK INTRA:                  -0.889
REMARK UNBOUND:                -0.905
REMARK  Name = 
REMARK  7 active torsions:
REMARK  status: ('A' for Active; 'I' for Inactive)
REMARK    1  A    between atoms: C_1  and  C_2
REMARK    2  A    between atoms: C_4  and  C_5
REMARK    3  A    between atoms: C_7  and  O_8
REMARK    4  A    between atoms: O_8  and  C_9
REMARK    5  A    between atoms: C_9  and  C_10
REMARK    6  A    between atoms: C_14  and  C_15
REMARK    7  A    between atoms: C_19  and  O_20
REMARK                            x       y       z     vdW  Elec       q    Type
REMARK                         _______ _______ _______ _____ _____    ______ ____
ROOT
ATOM      1  C   UNL     1      45.353   6.385  12.280  0.00  0.00    +0.000 A 
ATOM      2  C   UNL     1      44.104   6.159  12.876  0.00  0.00    +0.000 A 
ATOM      3  C   UNL     1      43.269   5.134  12.433  0.00  0.00    +0.000 A 
ATOM      4  C   UNL     1      43.664   4.319  11.370  0.00  0.00    +0.000 A 
ATOM      5  C   UNL     1      44.905   4.498  10.738  0.00  0.00    +0.000 A 
ATOM      6  C   UNL     1      45.740   5.513  11.241  0.00  0.00    +0.000 A 
ENDROOT
BRANCH   5   7
ATOM      7  C   UNL     1      45.294   3.705   9.549  0.00  0.00    +0.000 A 
ATOM      8  C   UNL     1      45.159   2.304   9.510  0.00  0.00    +0.000 A 
ATOM      9  C   UNL     1      45.578   1.560   8.400  0.00  0.00    +0.000 A 
ATOM     10  C   UNL     1      46.122   2.202   7.292  0.00  0.00    +0.000 A 
ATOM     11  C   UNL     1      46.250   3.584   7.308  0.00  0.00    +0.000 A 
ATOM     12  C   UNL     1      45.856   4.326   8.419  0.00  0.00    +0.000 A 
BRANCH  11  13
ATOM     13  O   UNL     1      46.765   4.264   6.244  0.00  0.00    +0.000 OA
ATOM     14  H   UNL     1      47.302   5.000   6.578  0.00  0.00    +0.000 HD
ENDBRANCH  11  13
ENDBRANCH   5   7
BRANCH   1  15
ATOM     15  C   UNL     1      46.215   7.569  12.690  0.00  0.00    +0.000 C 
ATOM     16  C   UNL     1      47.342   7.342  13.702  0.00  0.00    +0.000 C 
ATOM     17  C   UNL     1      47.671   7.552  12.264  0.00  0.00    +0.000 C 
BRANCH  15  18
ATOM     18  O   UNL     1      45.527   8.805  12.986  0.00  0.00    +0.000 OA
BRANCH  18  25
ATOM     19  C   UNL     1      46.626  12.887  10.782  0.00  0.00    +0.000 C 
ATOM     20  C   UNL     1      45.728  11.693  10.934  0.00  0.00    +0.000 A 
ATOM     21  C   UNL     1      44.521  11.634  10.264  0.00  0.00    +0.000 A 
ATOM     22  C   UNL     1      43.730  10.530  10.514  0.00  0.00    +0.000 A 
ATOM     23  C   UNL     1      42.384  10.372   9.870  0.00  0.00    +0.000 C 
ATOM     24  N   UNL     1      44.103   9.556  11.364  0.00  0.00    +0.000 NA
ATOM     25  C   UNL     1      45.303   9.689  11.952  0.00  0.00    +0.000 A 
ATOM     26  N   UNL     1      46.142  10.724  11.772  0.00  0.00    +0.000 NA
ENDBRANCH  18  25
ENDBRANCH  15  18
ENDBRANCH   1  15
TORSDOF 5
ENDMDL
MODEL 4
REMARK VINA RESULT:    -6.448      1.864      3.065
REMARK INTER + INTRA:          -9.049
REMARK INTER:                  -8.331
REMARK INTRA:                  -0.718
REMARK UNBOUND:                -0.905
REMARK  Name = 
REMARK  7 active torsions:
REMARK  status: ('A' for Active; 'I' for Inactive)
REMARK    1  A    between atoms: C_1  and  C_2
REMARK    2  A    between atoms: C_4  and  C_5
REMARK    3  A    between atoms: C_7  and  O_8
REMARK    4  A    between atoms: O_8  and  C_9
REMARK    5  A    between atoms: C_9  and  C_10
REMARK    6  A    between atoms: C_14  and  C_15
REMARK    7  A    between atoms: C_19  and  O_20
REMARK                            x       y       z     vdW  Elec       q    Type
REMARK                         _______ _______ _______ _____ _____    ______ ____
ROOT
ATOM      1  C   UNL     1      48.993   7.442  14.128  0.00  0.00    +0.000 A 
ATOM      2  C   UNL     1      49.862   7.873  13.116  0.00  0.00    +0.000 A 
ATOM      3  C   UNL     1      49.497   7.796  11.772  0.00  0.00    +0.000 A 
ATOM      4  C   UNL     1      48.254   7.272  11.413  0.00  0.00    +0.000 A 
ATOM      5  C   UNL     1      47.343   6.829  12.386  0.00  0.00    +0.000 A 
ATOM      6  C   UNL     1      47.727   6.963  13.733  0.00  0.00    +0.000 A 
ENDROOT
BRANCH   5   7
ATOM      7  C   UNL     1      46.063   6.182  12.014  0.00  0.00    +0.000 A 
ATOM      8  C   UNL     1      45.850   5.628  10.738  0.00  0.00    +0.000 A 
ATOM      9  C   UNL     1      44.619   5.065  10.381  0.00  0.00    +0.000 A 
ATOM     10  C   UNL     1      43.575   5.023  11.301  0.00  0.00    +0.000 A 
ATOM     11  C   UNL     1      43.773   5.553  12.569  0.00  0.00    +0.000 A 
ATOM     12  C   UNL     1      44.988   6.135  12.921  0.00  0.00    +0.000 A 
BRANCH  11  13
ATOM     13  O   UNL     1      42.788   5.528  13.513  0.00  0.00    +0.000 OA
ATOM     14  H   UNL     1      42.355   6.397  13.531  0.00  0.00    +0.000 HD
ENDBRANCH  11  13
ENDBRANCH   5   7
BRANCH   1  15
ATOM     15  C   UNL     1      49.433   7.424  15.585  0.00  0.00    +0.000 C 
ATOM     16  C   UNL     1      49.811   8.749  16.254  0.00  0.00    +0.000 C 
ATOM     17  C   UNL     1      48.520   8.089  16.597  0.00  0.00    +0.000 C 
BRANCH  15  18
ATOM     18  O   UNL     1      50.367   6.391  15.971  0.00  0.00    +0.000 OA
BRANCH  18  25
ATOM     19  C   UNL     1      47.222   3.089  17.364  0.00  0.00    +0.000 C 
ATOM     20  C   UNL     1      48.414   3.954  17.657  0.00  0.00    +0.000 A 
ATOM     21  C   UNL     1      48.909   4.053  18.943  0.00  0.00    +0.000 A 
ATOM     22  C   UNL     1      49.965   4.922  19.132  0.00  0.00    +0.000 A 
ATOM     23  C   UNL     1      50.565   5.138  20.491  0.00  0.00    +0.000 C 
ATOM     24  N   UNL     1      50.494   5.642  18.125  0.00  0.00    +0.000 NA
ATOM     25  C   UNL     1      49.961   5.463  16.906  0.00  0.00    +0.000 A 
ATOM     26  N   UNL     1      48.935   4.642  16.623  0.00  0.00    +0.000 NA
ENDBRANCH  18  25
ENDBRANCH  15  18
ENDBRANCH   1  15
TORSDOF 5
ENDMDL
MODEL 5
REMARK VINA RESULT:    -6.390      1.739      2.535
REMARK INTER + INTRA:          -8.976
REMARK INTER:                  -8.434
REMARK INTRA:                  -0.542
REMARK UNBOUND:                -0.905
REMARK  Name = 
REMARK  7 active torsions:
REMARK  status: ('A' for Active; 'I' for Inactive)
REMARK    1  A    between atoms: C_1  and  C_2
REMARK    2  A    between atoms: C_4  and  C_5
REMARK    3  A    between atoms: C_7  and  O_8
REMARK    4  A    between atoms: O_8  and  C_9
REMARK    5  A    between atoms: C_9  and  C_10
REMARK    6  A    between atoms: C_14  and  C_15
REMARK    7  A    between atoms: C_19  and  O_20
REMARK                            x       y       z     vdW  Elec       q    Type
REMARK                         _______ _______ _______ _____ _____    ______ ____
ROOT
ATOM      1  C   UNL     1      48.625   7.357  13.914  0.00  0.00    +0.000 A 
ATOM      2  C   UNL     1      49.352   7.832  12.814  0.00  0.00    +0.000 A 
ATOM      3  C   UNL     1      48.883   7.664  11.512  0.00  0.00    +0.000 A 
ATOM      4  C   UNL     1      47.675   7.002  11.284  0.00  0.00    +0.000 A 
ATOM      5  C   UNL     1      46.903   6.509  12.348  0.00  0.00    +0.000 A 
ATOM      6  C   UNL     1      47.386   6.735  13.650  0.00  0.00    +0.000 A 
ENDROOT
BRANCH   5   7
ATOM      7  C   UNL     1      45.670   5.721  12.114  0.00  0.00    +0.000 A 
ATOM      8  C   UNL     1      44.984   5.081  13.164  0.00  0.00    +0.000 A 
ATOM      9  C   UNL     1      43.849   4.297  12.925  0.00  0.00    +0.000 A 
ATOM     10  C   UNL     1      43.360   4.150  11.629  0.00  0.00    +0.000 A 
ATOM     11  C   UNL     1      44.017   4.784  10.584  0.00  0.00    +0.000 A 
ATOM     12  C   UNL     1      45.160   5.547  10.815  0.00  0.00    +0.000 A 
BRANCH  11  13
ATOM     13  O   UNL     1      43.574   4.683   9.298  0.00  0.00    +0.000 OA
ATOM     14  H   UNL     1      43.814   5.495   8.824  0.00  0.00    +0.000 HD
ENDBRANCH  11  13
ENDBRANCH   5   7
BRANCH   1  15
ATOM     15  C   UNL     1      49.189   7.442  15.325  0.00  0.00    +0.000 C 
ATOM     16  C   UNL     1      49.871   8.741  15.765  0.00  0.00    +0.000 C 
ATOM     17  C   UNL     1      48.517   8.404  16.286  0.00  0.00    +0.000 C 
BRANCH  15  18
ATOM     18  O   UNL     1      49.943   6.303  15.795  0.00  0.00    +0.000 OA
BRANCH  18  25
ATOM     19  C   UNL     1      50.618   5.114  20.362  0.00  0.00    +0.000 C 
ATOM     20  C   UNL     1      49.847   4.969  19.082  0.00  0.00    +0.000 A 
ATOM     21  C   UNL     1      48.903   3.970  18.941  0.00  0.00    +0.000 A 
ATOM     22  C   UNL     1      48.290   3.869  17.708  0.00  0.00    +0.000 A 
ATOM     23  C   UNL     1      47.273   2.802  17.426  0.00  0.00    +0.000 C 
ATOM     24  N   UNL     1      48.586   4.696  16.688  0.00  0.00    +0.000 NA
ATOM     25  C   UNL     1      49.500   5.650  16.926  0.00  0.00    +0.000 A 
ATOM     26  N   UNL     1      50.149   5.827  18.090  0.00  0.00    +0.000 NA
ENDBRANCH  18  25
ENDBRANCH  15  18
ENDBRANCH   1  15
TORSDOF 5
ENDMDL
MODEL 6
REMARK VINA RESULT:    -6.362      1.205      2.336
REMARK INTER + INTRA:          -8.941
REMARK INTER:                  -8.557
REMARK INTRA:                  -0.384
REMARK UNBOUND:                -0.905
REMARK  Name = 
REMARK  7 active torsions:
REMARK  status: ('A' for Active; 'I' for Inactive)
REMARK    1  A    between atoms: C_1  and  C_2
REMARK    2  A    between atoms: C_4  and  C_5
REMARK    3  A    between atoms: C_7  and  O_8
REMARK    4  A    between atoms: O_8  and  C_9
REMARK    5  A    between atoms: C_9  and  C_10
REMARK    6  A    between atoms: C_14  and  C_15
REMARK    7  A    between atoms: C_19  and  O_20
REMARK                            x       y       z     vdW  Elec       q    Type
REMARK                         _______ _______ _______ _____ _____    ______ ____
ROOT
ATOM      1  C   UNL     1      48.055   7.860  13.864  0.00  0.00    +0.000 A 
ATOM      2  C   UNL     1      47.546   9.113  13.495  0.00  0.00    +0.000 A 
ATOM      3  C   UNL     1      46.405   9.222  12.700  0.00  0.00    +0.000 A 
ATOM      4  C   UNL     1      45.756   8.072  12.246  0.00  0.00    +0.000 A 
ATOM      5  C   UNL     1      46.220   6.792  12.588  0.00  0.00    +0.000 A 
ATOM      6  C   UNL     1      47.347   6.721  13.428  0.00  0.00    +0.000 A 
ENDROOT
BRANCH   5   7
ATOM      7  C   UNL     1      45.598   5.566  12.034  0.00  0.00    +0.000 A 
ATOM      8  C   UNL     1      45.663   4.329  12.704  0.00  0.00    +0.000 A 
ATOM      9  C   UNL     1      45.116   3.167  12.146  0.00  0.00    +0.000 A 
ATOM     10  C   UNL     1      44.473   3.218  10.913  0.00  0.00    +0.000 A 
ATOM     11  C   UNL     1      44.388   4.432  10.246  0.00  0.00    +0.000 A 
ATOM     12  C   UNL     1      44.951   5.586  10.785  0.00  0.00    +0.000 A 
BRANCH  11  13
ATOM     13  O   UNL     1      43.758   4.540   9.041  0.00  0.00    +0.000 OA
ATOM     14  H   UNL     1      43.881   5.443   8.708  0.00  0.00    +0.000 HD
ENDBRANCH  11  13
ENDBRANCH   5   7
BRANCH   1  15
ATOM     15  C   UNL     1      49.359   7.740  14.638  0.00  0.00    +0.000 C 
ATOM     16  C   UNL     1      50.609   8.431  14.085  0.00  0.00    +0.000 C 
ATOM     17  C   UNL     1      49.913   9.002  15.271  0.00  0.00    +0.000 C 
BRANCH  15  18
ATOM     18  O   UNL     1      49.701   6.429  15.139  0.00  0.00    +0.000 OA
BRANCH  18  25
ATOM     19  C   UNL     1      47.180   3.119  17.469  0.00  0.00    +0.000 C 
ATOM     20  C   UNL     1      47.800   4.486  17.422  0.00  0.00    +0.000 A 
ATOM     21  C   UNL     1      47.514   5.420  18.399  0.00  0.00    +0.000 A 
ATOM     22  C   UNL     1      48.075   6.672  18.240  0.00  0.00    +0.000 A 
ATOM     23  C   UNL     1      47.809   7.777  19.219  0.00  0.00    +0.000 C 
ATOM     24  N   UNL     1      48.861   6.979  17.192  0.00  0.00    +0.000 NA
ATOM     25  C   UNL     1      49.101   6.000  16.305  0.00  0.00    +0.000 A 
ATOM     26  N   UNL     1      48.602   4.754  16.374  0.00  0.00    +0.000 NA
ENDBRANCH  18  25
ENDBRANCH  15  18
ENDBRANCH   1  15
TORSDOF 5
ENDMDL
MODEL 7
REMARK VINA RESULT:    -6.213      2.610      4.753
REMARK INTER + INTRA:          -8.752
REMARK INTER:                  -9.258
REMARK INTRA:                   0.506
REMARK UNBOUND:                -0.905
REMARK  Name = 
REMARK  7 active torsions:
REMARK  status: ('A' for Active; 'I' for Inactive)
REMARK    1  A    between atoms: C_1  and  C_2
REMARK    2  A    between atoms: C_4  and  C_5
REMARK    3  A    between atoms: C_7  and  O_8
REMARK    4  A    between atoms: O_8  and  C_9
REMARK    5  A    between atoms: C_9  and  C_10
REMARK    6  A    between atoms: C_14  and  C_15
REMARK    7  A    between atoms: C_19  and  O_20
REMARK                            x       y       z     vdW  Elec       q    Type
REMARK                         _______ _______ _______ _____ _____    ______ ____
ROOT
ATOM      1  C   UNL     1      45.099   4.049  10.936  0.00  0.00    +0.000 A 
ATOM      2  C   UNL     1      45.206   5.420  10.667  0.00  0.00    +0.000 A 
ATOM      3  C   UNL     1      45.652   5.879   9.427  0.00  0.00    +0.000 A 
ATOM      4  C   UNL     1      46.011   4.968   8.432  0.00  0.00    +0.000 A 
ATOM      5  C   UNL     1      45.919   3.583   8.645  0.00  0.00    +0.000 A 
ATOM      6  C   UNL     1      45.424   3.158   9.892  0.00  0.00    +0.000 A 
ENDROOT
BRANCH   5   7
ATOM      7  C   UNL     1      46.388   2.607   7.634  0.00  0.00    +0.000 A 
ATOM      8  C   UNL     1      46.745   2.999   6.330  0.00  0.00    +0.000 A 
ATOM      9  C   UNL     1      47.138   2.062   5.367  0.00  0.00    +0.000 A 
ATOM     10  C   UNL     1      47.204   0.709   5.692  0.00  0.00    +0.000 A 
ATOM     11  C   UNL     1      46.868   0.308   6.977  0.00  0.00    +0.000 A 
ATOM     12  C   UNL     1      46.454   1.234   7.931  0.00  0.00    +0.000 A 
BRANCH  11  13
ATOM     13  O   UNL     1      46.927  -1.002   7.352  0.00  0.00    +0.000 OA
ATOM     14  H   UNL     1      47.834  -1.203   7.632  0.00  0.00    +0.000 HD
ENDBRANCH  11  13
ENDBRANCH   5   7
BRANCH   1  15
ATOM     15  C   UNL     1      44.718   3.549  12.322  0.00  0.00    +0.000 C 
ATOM     16  C   UNL     1      43.616   4.283  13.091  0.00  0.00    +0.000 C 
ATOM     17  C   UNL     1      43.336   2.949  12.491  0.00  0.00    +0.000 C 
BRANCH  15  18
ATOM     18  O   UNL     1      45.804   3.213  13.213  0.00  0.00    +0.000 OA
BRANCH  18  25
ATOM     19  C   UNL     1      48.549   7.102  12.955  0.00  0.00    +0.000 C 
ATOM     20  C   UNL     1      47.870   6.043  13.774  0.00  0.00    +0.000 A 
ATOM     21  C   UNL     1      48.152   5.910  15.120  0.00  0.00    +0.000 A 
ATOM     22  C   UNL     1      47.532   4.868  15.780  0.00  0.00    +0.000 A 
ATOM     23  C   UNL     1      47.787   4.604  17.236  0.00  0.00    +0.000 C 
ATOM     24  N   UNL     1      46.695   4.019  15.157  0.00  0.00    +0.000 NA
ATOM     25  C   UNL     1      46.464   4.241  13.854  0.00  0.00    +0.000 A 
ATOM     26  N   UNL     1      47.018   5.226  13.127  0.00  0.00    +0.000 NA
ENDBRANCH  18  25
ENDBRANCH  15  18
ENDBRANCH   1  15
TORSDOF 5
ENDMDL
MODEL 8
REMARK VINA RESULT:    -5.733      2.048      3.895
REMARK INTER + INTRA:          -8.146
REMARK INTER:                  -7.351
REMARK INTRA:                  -0.795
REMARK UNBOUND:                -0.905
REMARK  Name = 
REMARK  7 active torsions:
REMARK  status: ('A' for Active; 'I' for Inactive)
REMARK    1  A    between atoms: C_1  and  C_2
REMARK    2  A    between atoms: C_4  and  C_5
REMARK    3  A    between atoms: C_7  and  O_8
REMARK    4  A    between atoms: O_8  and  C_9
REMARK    5  A    between atoms: C_9  and  C_10
REMARK    6  A    between atoms: C_14  and  C_15
REMARK    7  A    between atoms: C_19  and  O_20
REMARK                            x       y       z     vdW  Elec       q    Type
REMARK                         _______ _______ _______ _____ _____    ______ ____
ROOT
ATOM      1  C   UNL     1      49.099   6.603  15.506  0.00  0.00    +0.000 A 
ATOM      2  C   UNL     1      50.027   7.434  14.865  0.00  0.00    +0.000 A 
ATOM      3  C   UNL     1      49.908   7.736  13.509  0.00  0.00    +0.000 A 
ATOM      4  C   UNL     1      48.859   7.198  12.762  0.00  0.00    +0.000 A 
ATOM      5  C   UNL     1      47.898   6.362  13.353  0.00  0.00    +0.000 A 
ATOM      6  C   UNL     1      48.025   6.115  14.733  0.00  0.00    +0.000 A 
ENDROOT
BRANCH   5   7
ATOM      7  C   UNL     1      46.837   5.708  12.552  0.00  0.00    +0.000 A 
ATOM      8  C   UNL     1      46.340   6.279  11.365  0.00  0.00    +0.000 A 
ATOM      9  C   UNL     1      45.302   5.677  10.644  0.00  0.00    +0.000 A 
ATOM     10  C   UNL     1      44.749   4.477  11.081  0.00  0.00    +0.000 A 
ATOM     11  C   UNL     1      45.237   3.893  12.242  0.00  0.00    +0.000 A 
ATOM     12  C   UNL     1      46.254   4.500  12.976  0.00  0.00    +0.000 A 
BRANCH  11  13
ATOM     13  O   UNL     1      44.740   2.711  12.709  0.00  0.00    +0.000 OA
ATOM     14  H   UNL     1      44.297   2.253  11.977  0.00  0.00    +0.000 HD
ENDBRANCH  11  13
ENDBRANCH   5   7
BRANCH   1  15
ATOM     15  C   UNL     1      49.290   6.185  16.957  0.00  0.00    +0.000 C 
ATOM     16  C   UNL     1      50.042   4.885  17.255  0.00  0.00    +0.000 C 
ATOM     17  C   UNL     1      50.705   6.196  17.505  0.00  0.00    +0.000 C 
BRANCH  15  18
ATOM     18  O   UNL     1      48.141   6.302  17.825  0.00  0.00    +0.000 OA
BRANCH  18  25
ATOM     19  C   UNL     1      47.279   7.975  22.205  0.00  0.00    +0.000 C 
ATOM     20  C   UNL     1      47.574   8.223  20.754  0.00  0.00    +0.000 A 
ATOM     21  C   UNL     1      47.483   9.498  20.229  0.00  0.00    +0.000 A 
ATOM     22  C   UNL     1      47.705   9.623  18.871  0.00  0.00    +0.000 A 
ATOM     23  C   UNL     1      47.602  10.952  18.183  0.00  0.00    +0.000 C 
ATOM     24  N   UNL     1      47.997   8.567  18.090  0.00  0.00    +0.000 NA
ATOM     25  C   UNL     1      48.086   7.371  18.694  0.00  0.00    +0.000 A 
ATOM     26  N   UNL     1      47.887   7.150  20.005  0.00  0.00    +0.000 NA
ENDBRANCH  18  25
ENDBRANCH  15  18
ENDBRANCH   1  15
TORSDOF 5
ENDMDL
MODEL 9
REMARK VINA RESULT:    -5.630      2.612      7.719
REMARK INTER + INTRA:          -8.016
REMARK INTER:                  -7.095
REMARK INTRA:                  -0.921
REMARK UNBOUND:                -0.905
REMARK  Name = 
REMARK  7 active torsions:
REMARK  status: ('A' for Active; 'I' for Inactive)
REMARK    1  A    between atoms: C_1  and  C_2
REMARK    2  A    between atoms: C_4  and  C_5
REMARK    3  A    between atoms: C_7  and  O_8
REMARK    4  A    between atoms: O_8  and  C_9
REMARK    5  A    between atoms: C_9  and  C_10
REMARK    6  A    between atoms: C_14  and  C_15
REMARK    7  A    between atoms: C_19  and  O_20
REMARK                            x       y       z     vdW  Elec       q    Type
REMARK                         _______ _______ _______ _____ _____    ______ ____
ROOT
ATOM      1  C   UNL     1      48.318   5.289  17.128  0.00  0.00    +0.000 A 
ATOM      2  C   UNL     1      47.662   5.857  18.229  0.00  0.00    +0.000 A 
ATOM      3  C   UNL     1      48.116   7.043  18.806  0.00  0.00    +0.000 A 
ATOM      4  C   UNL     1      49.249   7.680  18.296  0.00  0.00    +0.000 A 
ATOM      5  C   UNL     1      49.942   7.159  17.192  0.00  0.00    +0.000 A 
ATOM      6  C   UNL     1      49.430   5.985  16.609  0.00  0.00    +0.000 A 
ENDROOT
BRANCH   5   7
ATOM      7  C   UNL     1      51.199   7.772  16.703  0.00  0.00    +0.000 A 
ATOM      8  C   UNL     1      51.572   9.085  17.048  0.00  0.00    +0.000 A 
ATOM      9  C   UNL     1      52.737   9.671  16.539  0.00  0.00    +0.000 A 
ATOM     10  C   UNL     1      53.569   8.951  15.687  0.00  0.00    +0.000 A 
ATOM     11  C   UNL     1      53.223   7.650  15.347  0.00  0.00    +0.000 A 
ATOM     12  C   UNL     1      52.054   7.071  15.833  0.00  0.00    +0.000 A 
BRANCH  11  13
ATOM     13  O   UNL     1      54.009   6.896  14.526  0.00  0.00    +0.000 OA
ATOM     14  H   UNL     1      53.605   6.018  14.433  0.00  0.00    +0.000 HD
ENDBRANCH  11  13
ENDBRANCH   5   7
BRANCH   1  15
ATOM     15  C   UNL     1      47.889   3.941  16.568  0.00  0.00    +0.000 C 
ATOM     16  C   UNL     1      48.411   2.668  17.240  0.00  0.00    +0.000 C 
ATOM     17  C   UNL     1      46.993   3.079  17.437  0.00  0.00    +0.000 C 
BRANCH  15  18
ATOM     18  O   UNL     1      47.923   3.791  15.132  0.00  0.00    +0.000 OA
BRANCH  18  25
ATOM     19  C   UNL     1      43.653   4.360  13.089  0.00  0.00    +0.000 C 
ATOM     20  C   UNL     1      45.068   4.818  13.291  0.00  0.00    +0.000 A 
ATOM     21  C   UNL     1      45.602   5.813  12.495  0.00  0.00    +0.000 A 
ATOM     22  C   UNL     1      46.931   6.125  12.706  0.00  0.00    +0.000 A 
ATOM     23  C   UNL     1      47.630   7.166  11.881  0.00  0.00    +0.000 C 
ATOM     24  N   UNL     1      47.678   5.501  13.635  0.00  0.00    +0.000 NA
ATOM     25  C   UNL     1      47.065   4.563  14.376  0.00  0.00    +0.000 A 
ATOM     26  N   UNL     1      45.781   4.191  14.245  0.00  0.00    +0.000 NA
ENDBRANCH  18  25
ENDBRANCH  15  18
ENDBRANCH   1  15
TORSDOF 5
ENDMDL
