MODEL 1
REMARK VINA RESULT:    -9.095      0.000      0.000
REMARK INTER + INTRA:         -11.894
REMARK INTER:                 -11.753
REMARK INTRA:                  -0.141
REMARK UNBOUND:                -0.141
REMARK  Name = 
REMARK  6 active torsions:
REMARK  status: ('A' for Active; 'I' for Inactive)
REMARK    1  A    between atoms: C_1  and  C_2
REMARK    2  A    between atoms: C_2  and  N_3
REMARK    3  A    between atoms: C_2  and  C_16
REMARK    4  A    between atoms: C_4  and  C_6
REMARK    5  A    between atoms: C_19  and  O_20
REMARK    6  A    between atoms: O_20  and  C_21
REMARK                            x       y       z     vdW  Elec       q    Type
REMARK                         _______ _______ _______ _____ _____    ______ ____
ROOT
ATOM      1  C   UNL     1      42.867   5.149  12.987  0.00  0.00    +0.000 C 
ATOM      2  C   UNL     1      44.219   4.456  12.805  0.00  0.00    +0.000 C 
ENDROOT
BRANCH   2   3
ATOM      3  C   UNL     1      44.703   4.415  11.366  0.00  0.00    +0.000 A 
ATOM      4  C   UNL     1      44.389   3.293  10.581  0.00  0.00    +0.000 A 
ATOM      5  C   UNL     1      44.786   3.217   9.247  0.00  0.00    +0.000 A 
ATOM      6  C   UNL     1      45.480   4.277   8.660  0.00  0.00    +0.000 A 
ATOM      7  C   UNL     1      45.862   5.365   9.446  0.00  0.00    +0.000 A 
ATOM      8  C   UNL     1      45.482   5.430  10.792  0.00  0.00    +0.000 A 
BRANCH   6   9
ATOM      9  O   UNL     1      45.893   4.288   7.348  0.00  0.00    +0.000 OA
BRANCH   9  10
ATOM     10  C   UNL     1      46.442   3.124   6.824  0.00  0.00    +0.000 A 
ATOM     11  N   UNL     1      46.742   2.094   7.640  0.00  0.00    +0.000 NA
ATOM     12  C   UNL     1      47.308   1.022   7.062  0.00  0.00    +0.000 A 
ATOM     13  C   UNL     1      47.552   0.930   5.713  0.00  0.00    +0.000 A 
ATOM     14  C   UNL     1      47.168   2.019   4.966  0.00  0.00    +0.000 A 
ATOM     15  N   UNL     1      46.611   3.126   5.490  0.00  0.00    +0.000 NA
ENDBRANCH   9  10
ENDBRANCH   6   9
ENDBRANCH   2   3
BRANCH   2  16
ATOM     16  N   UNL     1      45.237   5.062  13.639  0.00  0.00    +0.000 N 
ATOM     17  C   UNL     1      46.358   4.381  14.039  0.00  0.00    +0.000 C 
ATOM     18  O   UNL     1      46.560   3.210  13.727  0.00  0.00    +0.000 OA
ATOM     19  H   UNL     1      45.032   5.974  14.031  0.00  0.00    +0.000 HD
BRANCH  17  20
ATOM     20  C   UNL     1      47.352   5.142  14.805  0.00  0.00    +0.000 A 
ATOM     21  C   UNL     1      48.024   6.195  14.196  0.00  0.00    +0.000 A 
ATOM     22  S   UNL     1      49.127   6.990  15.225  0.00  0.00    +0.000 S 
ATOM     23  C   UNL     1      48.784   5.924  16.505  0.00  0.00    +0.000 A 
ATOM     24  N   UNL     1      49.435   6.031  17.694  0.00  0.00    +0.000 NA
ATOM     25  C   UNL     1      49.103   5.137  18.565  0.00  0.00    +0.000 A 
ATOM     26  N   UNL     1      48.171   4.154  18.358  0.00  0.00    +0.000 N 
ATOM     27  C   UNL     1      47.452   4.037  17.191  0.00  0.00    +0.000 A 
ATOM     28  O   UNL     1      46.567   3.196  17.068  0.00  0.00    +0.000 OA
ATOM     29  C   UNL     1      47.815   4.996  16.164  0.00  0.00    +0.000 A 
ATOM     30  H   UNL     1      47.943   3.498  19.091  0.00  0.00    +0.000 HD
ENDBRANCH  17  20
ENDBRANCH   2  16
TORSDOF 5
ENDMDL
MODEL 2
REMARK VINA RESULT:    -8.300      1.523      2.340
REMARK INTER + INTRA:         -10.867
REMARK INTER:                 -10.706
REMARK INTRA:                  -0.161
REMARK UNBOUND:                -0.141
REMARK  Name = 
REMARK  6 active torsions:
REMARK  status: ('A' for Active; 'I' for Inactive)
REMARK    1  A    between atoms: C_1  and  C_2
REMARK    2  A    between atoms: C_2  and  N_3
REMARK    3  A    between atoms: C_2  and  C_16
REMARK    4  A    between atoms: C_4  and  C_6
REMARK    5  A    between atoms: C_19  and  O_20
REMARK    6  A    between atoms: O_20  and  C_21
REMARK                            x       y       z     vdW  Elec       q    Type
REMARK                         _______ _______ _______ _____ _____    ______ ____
ROOT
ATOM      1  C   UNL     1      42.735   5.448  12.378  0.00  0.00    +0.000 C 
ATOM      2  C   UNL     1      43.996   4.583  12.324  0.00  0.00    +0.000 C 
ENDROOT
BRANCH   2   3
ATOM      3  C   UNL     1      44.621   4.489  10.943  0.00  0.00    +0.000 A 
ATOM      4  C   UNL     1      44.378   3.342  10.169  0.00  0.00    +0.000 A 
ATOM      5  C   UNL     1      44.906   3.218   8.885  0.00  0.00    +0.000 A 
ATOM      6  C   UNL     1      45.665   4.253   8.335  0.00  0.00    +0.000 A 
ATOM      7  C   UNL     1      45.976   5.365   9.118  0.00  0.00    +0.000 A 
ATOM      8  C   UNL     1      45.464   5.479  10.416  0.00  0.00    +0.000 A 
BRANCH   6   9
ATOM      9  O   UNL     1      46.207   4.215   7.072  0.00  0.00    +0.000 OA
BRANCH   9  10
ATOM     10  C   UNL     1      46.617   2.986   6.571  0.00  0.00    +0.000 A 
ATOM     11  N   UNL     1      47.002   2.009   7.414  0.00  0.00    +0.000 NA
ATOM     12  C   UNL     1      47.424   0.865   6.850  0.00  0.00    +0.000 A 
ATOM     13  C   UNL     1      47.443   0.655   5.493  0.00  0.00    +0.000 A 
ATOM     14  C   UNL     1      46.989   1.700   4.724  0.00  0.00    +0.000 A 
ATOM     15  N   UNL     1      46.569   2.874   5.232  0.00  0.00    +0.000 NA
ENDBRANCH   9  10
ENDBRANCH   6   9
ENDBRANCH   2   3
BRANCH   2  16
ATOM     16  N   UNL     1      44.991   5.042  13.273  0.00  0.00    +0.000 N 
ATOM     17  C   UNL     1      46.050   4.262  13.660  0.00  0.00    +0.000 C 
ATOM     18  O   UNL     1      46.211   3.120  13.238  0.00  0.00    +0.000 OA
ATOM     19  H   UNL     1      44.807   5.919  13.747  0.00  0.00    +0.000 HD
BRANCH  17  20
ATOM     20  C   UNL     1      47.031   4.883  14.557  0.00  0.00    +0.000 A 
ATOM     21  C   UNL     1      47.264   4.324  15.807  0.00  0.00    +0.000 A 
ATOM     22  S   UNL     1      48.445   5.149  16.719  0.00  0.00    +0.000 S 
ATOM     23  C   UNL     1      48.650   6.314  15.496  0.00  0.00    +0.000 A 
ATOM     24  N   UNL     1      49.511   7.353  15.662  0.00  0.00    +0.000 NA
ATOM     25  C   UNL     1      49.543   8.181  14.672  0.00  0.00    +0.000 A 
ATOM     26  N   UNL     1      48.802   8.057  13.526  0.00  0.00    +0.000 N 
ATOM     27  C   UNL     1      47.956   6.997  13.292  0.00  0.00    +0.000 A 
ATOM     28  O   UNL     1      47.368   6.874  12.223  0.00  0.00    +0.000 OA
ATOM     29  C   UNL     1      47.855   6.057  14.393  0.00  0.00    +0.000 A 
ATOM     30  H   UNL     1      48.890   8.731  12.779  0.00  0.00    +0.000 HD
ENDBRANCH  17  20
ENDBRANCH   2  16
TORSDOF 5
ENDMDL
MODEL 3
REMARK VINA RESULT:    -7.934      1.996      2.941
REMARK INTER + INTRA:         -10.393
REMARK INTER:                 -10.454
REMARK INTRA:                   0.061
REMARK UNBOUND:                -0.141
REMARK  Name = 
REMARK  6 active torsions:
REMARK  status: ('A' for Active; 'I' for Inactive)
REMARK    1  A    between atoms: C_1  and  C_2
REMARK    2  A    between atoms: C_2  and  N_3
REMARK    3  A    between atoms: C_2  and  C_16
REMARK    4  A    between atoms: C_4  and  C_6
REMARK    5  A    between atoms: C_19  and  O_20
REMARK    6  A    between atoms: O_20  and  C_21
REMARK                            x       y       z     vdW  Elec       q    Type
REMARK                         _______ _______ _______ _____ _____    ______ ____
ROOT
ATOM      1  C   UNL     1      47.999   8.884  12.416  0.00  0.00    +0.000 C 
ATOM      2  C   UNL     1      46.863   8.168  13.149  0.00  0.00    +0.000 C 
ENDROOT
BRANCH   2   3
ATOM      3  C   UNL     1      46.152   7.119  12.313  0.00  0.00    +0.000 A 
ATOM      4  C   UNL     1      45.011   6.493  12.843  0.00  0.00    +0.000 A 
ATOM      5  C   UNL     1      44.307   5.543  12.105  0.00  0.00    +0.000 A 
ATOM      6  C   UNL     1      44.710   5.221  10.808  0.00  0.00    +0.000 A 
ATOM      7  C   UNL     1      45.882   5.779  10.296  0.00  0.00    +0.000 A 
ATOM      8  C   UNL     1      46.603   6.717  11.046  0.00  0.00    +0.000 A 
BRANCH   6   9
ATOM      9  O   UNL     1      44.061   4.308  10.010  0.00  0.00    +0.000 OA
BRANCH   9  10
ATOM     10  C   UNL     1      44.822   3.552   9.126  0.00  0.00    +0.000 A 
ATOM     11  N   UNL     1      45.103   2.265   9.409  0.00  0.00    +0.000 NA
ATOM     12  C   UNL     1      45.879   1.617   8.525  0.00  0.00    +0.000 A 
ATOM     13  C   UNL     1      46.350   2.190   7.369  0.00  0.00    +0.000 A 
ATOM     14  C   UNL     1      45.969   3.494   7.155  0.00  0.00    +0.000 A 
ATOM     15  N   UNL     1      45.207   4.199   8.012  0.00  0.00    +0.000 NA
ENDBRANCH   9  10
ENDBRANCH   6   9
ENDBRANCH   2   3
BRANCH   2  16
ATOM     16  N   UNL     1      47.329   7.567  14.383  0.00  0.00    +0.000 N 
ATOM     17  C   UNL     1      48.332   6.633  14.410  0.00  0.00    +0.000 C 
ATOM     18  O   UNL     1      48.886   6.237  13.388  0.00  0.00    +0.000 OA
ATOM     19  H   UNL     1      46.796   7.763  15.223  0.00  0.00    +0.000 HD
BRANCH  17  20
ATOM     20  C   UNL     1      48.767   6.173  15.734  0.00  0.00    +0.000 A 
ATOM     21  C   UNL     1      49.750   6.882  16.414  0.00  0.00    +0.000 A 
ATOM     22  S   UNL     1      50.128   6.233  17.945  0.00  0.00    +0.000 S 
ATOM     23  C   UNL     1      49.028   4.953  17.732  0.00  0.00    +0.000 A 
ATOM     24  N   UNL     1      48.887   3.990  18.683  0.00  0.00    +0.000 NA
ATOM     25  C   UNL     1      48.045   3.060  18.378  0.00  0.00    +0.000 A 
ATOM     26  N   UNL     1      47.321   3.012  17.215  0.00  0.00    +0.000 N 
ATOM     27  C   UNL     1      47.392   3.989  16.248  0.00  0.00    +0.000 A 
ATOM     28  O   UNL     1      46.672   3.958  15.256  0.00  0.00    +0.000 OA
ATOM     29  C   UNL     1      48.356   5.039  16.526  0.00  0.00    +0.000 A 
ATOM     30  H   UNL     1      46.663   2.266  17.049  0.00  0.00    +0.000 HD
ENDBRANCH  17  20
ENDBRANCH   2  16
TORSDOF 5
ENDMDL
MODEL 4
REMARK VINA RESULT:    -7.679      2.433      3.696
REMARK INTER + INTRA:         -10.064
REMARK INTER:                  -8.957
REMARK INTRA:                  -1.108
REMARK UNBOUND:                -0.141
REMARK  Name = 
REMARK  6 active torsions:
REMARK  status: ('A' for Active; 'I' for Inactive)
REMARK    1  A    between atoms: C_1  and  C_2
REMARK    2  A    between atoms: C_2  and  N_3
REMARK    3  A    between atoms: C_2  and  C_16
REMARK    4  A    between atoms: C_4  and  C_6
REMARK    5  A    between atoms: C_19  and  O_20
REMARK    6  A    between atoms: O_20  and  C_21
REMARK                            x       y       z     vdW  Elec       q    Type
REMARK                         _______ _______ _______ _____ _____    ______ ____
ROOT
ATOM      1  C   UNL     1      48.058   9.206  13.285  0.00  0.00    +0.000 C 
ATOM      2  C   UNL     1      47.385   8.016  13.972  0.00  0.00    +0.000 C 
ENDROOT
BRANCH   2   3
ATOM      3  C   UNL     1      46.546   7.159  13.041  0.00  0.00    +0.000 A 
ATOM      4  C   UNL     1      45.668   7.795  12.147  0.00  0.00    +0.000 A 
ATOM      5  C   UNL     1      44.895   7.056  11.253  0.00  0.00    +0.000 A 
ATOM      6  C   UNL     1      45.005   5.665  11.214  0.00  0.00    +0.000 A 
ATOM      7  C   UNL     1      45.817   5.014  12.144  0.00  0.00    +0.000 A 
ATOM      8  C   UNL     1      46.576   5.756  13.057  0.00  0.00    +0.000 A 
BRANCH   6   9
ATOM      9  O   UNL     1      44.291   4.865  10.352  0.00  0.00    +0.000 OA
BRANCH   9  10
ATOM     10  C   UNL     1      44.996   4.098   9.433  0.00  0.00    +0.000 A 
ATOM     11  N   UNL     1      45.706   4.698   8.458  0.00  0.00    +0.000 NA
ATOM     12  C   UNL     1      46.325   3.886   7.585  0.00  0.00    +0.000 A 
ATOM     13  C   UNL     1      46.286   2.516   7.670  0.00  0.00    +0.000 A 
ATOM     14  C   UNL     1      45.569   2.007   8.726  0.00  0.00    +0.000 A 
ATOM     15  N   UNL     1      44.916   2.769   9.622  0.00  0.00    +0.000 NA
ENDBRANCH   9  10
ENDBRANCH   6   9
ENDBRANCH   2   3
BRANCH   2  16
ATOM     16  N   UNL     1      48.357   7.181  14.650  0.00  0.00    +0.000 N 
ATOM     17  C   UNL     1      48.811   7.462  15.913  0.00  0.00    +0.000 C 
ATOM     18  O   UNL     1      48.433   8.447  16.541  0.00  0.00    +0.000 OA
ATOM     19  H   UNL     1      48.795   6.446  14.106  0.00  0.00    +0.000 HD
BRANCH  17  20
ATOM     20  C   UNL     1      49.725   6.485  16.516  0.00  0.00    +0.000 A 
ATOM     21  C   UNL     1      51.018   6.871  16.845  0.00  0.00    +0.000 A 
ATOM     22  S   UNL     1      51.945   5.629  17.554  0.00  0.00    +0.000 S 
ATOM     23  C   UNL     1      50.669   4.515  17.400  0.00  0.00    +0.000 A 
ATOM     24  N   UNL     1      50.822   3.222  17.791  0.00  0.00    +0.000 NA
ATOM     25  C   UNL     1      49.787   2.478  17.585  0.00  0.00    +0.000 A 
ATOM     26  N   UNL     1      48.609   2.913  17.036  0.00  0.00    +0.000 N 
ATOM     27  C   UNL     1      48.391   4.221  16.672  0.00  0.00    +0.000 A 
ATOM     28  O   UNL     1      47.298   4.595  16.258  0.00  0.00    +0.000 OA
ATOM     29  C   UNL     1      49.539   5.092  16.848  0.00  0.00    +0.000 A 
ATOM     30  H   UNL     1      47.830   2.282  16.922  0.00  0.00    +0.000 HD
ENDBRANCH  17  20
ENDBRANCH   2  16
TORSDOF 5
ENDMDL
MODEL 5
REMARK VINA RESULT:    -7.369      4.337      6.197
REMARK INTER + INTRA:          -9.664
REMARK INTER:                  -8.639
REMARK INTRA:                  -1.026
REMARK UNBOUND:                -0.141
REMARK  Name = 
REMARK  6 active torsions:
REMARK  status: ('A' for Active; 'I' for Inactive)
REMARK    1  A    between atoms: C_1  and  C_2
REMARK    2  A    between atoms: C_2  and  N_3
REMARK    3  A    between atoms: C_2  and  C_16
REMARK    4  A    between atoms: C_4  and  C_6
REMARK    5  A    between atoms: C_19  and  O_20
REMARK    6  A    between atoms: O_20  and  C_21
REMARK                            x       y       z     vdW  Elec       q    Type
REMARK                         _______ _______ _______ _____ _____    ______ ____
ROOT
ATOM      1  C   UNL     1      44.435   4.260  12.913  0.00  0.00    +0.000 C 
ATOM      2  C   UNL     1      45.675   5.154  12.974  0.00  0.00    +0.000 C 
ENDROOT
BRANCH   2   3
ATOM      3  C   UNL     1      45.429   6.584  12.524  0.00  0.00    +0.000 A 
ATOM      4  C   UNL     1      44.469   6.820  11.524  0.00  0.00    +0.000 A 
ATOM      5  C   UNL     1      44.187   8.116  11.095  0.00  0.00    +0.000 A 
ATOM      6  C   UNL     1      44.835   9.206  11.678  0.00  0.00    +0.000 A 
ATOM      7  C   UNL     1      45.841   8.983  12.619  0.00  0.00    +0.000 A 
ATOM      8  C   UNL     1      46.141   7.680  13.033  0.00  0.00    +0.000 A 
BRANCH   6   9
ATOM      9  O   UNL     1      44.601  10.514  11.323  0.00  0.00    +0.000 OA
BRANCH   9  10
ATOM     10  C   UNL     1      43.289  10.904  11.085  0.00  0.00    +0.000 A 
ATOM     11  N   UNL     1      42.454  11.130  12.118  0.00  0.00    +0.000 NA
ATOM     12  C   UNL     1      41.191  11.461  11.804  0.00  0.00    +0.000 A 
ATOM     13  C   UNL     1      40.747  11.605  10.512  0.00  0.00    +0.000 A 
ATOM     14  C   UNL     1      41.690  11.395   9.533  0.00  0.00    +0.000 A 
ATOM     15  N   UNL     1      42.965  11.045   9.787  0.00  0.00    +0.000 NA
ENDBRANCH   9  10
ENDBRANCH   6   9
ENDBRANCH   2   3
BRANCH   2  16
ATOM     16  N   UNL     1      46.255   5.160  14.302  0.00  0.00    +0.000 N 
ATOM     17  C   UNL     1      47.069   4.152  14.751  0.00  0.00    +0.000 C 
ATOM     18  O   UNL     1      47.343   3.175  14.060  0.00  0.00    +0.000 OA
ATOM     19  H   UNL     1      45.934   5.876  14.944  0.00  0.00    +0.000 HD
BRANCH  17  20
ATOM     20  C   UNL     1      47.661   4.329  16.082  0.00  0.00    +0.000 A 
ATOM     21  C   UNL     1      47.341   3.435  17.096  0.00  0.00    +0.000 A 
ATOM     22  S   UNL     1      48.126   3.764  18.573  0.00  0.00    +0.000 S 
ATOM     23  C   UNL     1      48.882   5.144  17.925  0.00  0.00    +0.000 A 
ATOM     24  N   UNL     1      49.682   5.926  18.697  0.00  0.00    +0.000 NA
ATOM     25  C   UNL     1      50.163   6.959  18.089  0.00  0.00    +0.000 A 
ATOM     26  N   UNL     1      49.926   7.272  16.776  0.00  0.00    +0.000 N 
ATOM     27  C   UNL     1      49.164   6.485  15.944  0.00  0.00    +0.000 A 
ATOM     28  O   UNL     1      49.037   6.751  14.753  0.00  0.00    +0.000 OA
ATOM     29  C   UNL     1      48.568   5.330  16.590  0.00  0.00    +0.000 A 
ATOM     30  H   UNL     1      50.350   8.086  16.356  0.00  0.00    +0.000 HD
ENDBRANCH  17  20
ENDBRANCH   2  16
TORSDOF 5
ENDMDL
MODEL 6
REMARK VINA RESULT:    -7.315      3.266      5.141
REMARK INTER + INTRA:          -9.594
REMARK INTER:                  -8.251
REMARK INTRA:                  -1.343
REMARK UNBOUND:                -0.141
REMARK  Name = 
REMARK  6 active torsions:
REMARK  status: ('A' for Active; 'I' for Inactive)
REMARK    1  A    between atoms: C_1  and  C_2
REMARK    2  A    between atoms: C_2  and  N_3
REMARK    3  A    between atoms: C_2  and  C_16
REMARK    4  A    between atoms: C_4  and  C_6
REMARK    5  A    between atoms: C_19  and  O_20
REMARK    6  A    between atoms: O_20  and  C_21
REMARK                            x       y       z     vdW  Elec       q    Type
REMARK                         _______ _______ _______ _____ _____    ______ ____
ROOT
ATOM      1  C   UNL     1      50.489   8.552  13.231  0.00  0.00    +0.000 C 
ATOM      2  C   UNL     1      49.197   8.588  14.052  0.00  0.00    +0.000 C 
ENDROOT
BRANCH   2   3
ATOM      3  C   UNL     1      47.966   8.141  13.284  0.00  0.00    +0.000 A 
ATOM      4  C   UNL     1      48.051   6.989  12.483  0.00  0.00    +0.000 A 
ATOM      5  C   UNL     1      46.942   6.522  11.780  0.00  0.00    +0.000 A 
ATOM      6  C   UNL     1      45.715   7.179  11.886  0.00  0.00    +0.000 A 
ATOM      7  C   UNL     1      45.633   8.364  12.618  0.00  0.00    +0.000 A 
ATOM      8  C   UNL     1      46.753   8.846  13.307  0.00  0.00    +0.000 A 
BRANCH   6   9
ATOM      9  O   UNL     1      44.571   6.773  11.239  0.00  0.00    +0.000 OA
BRANCH   9  10
ATOM     10  C   UNL     1      44.207   5.435  11.329  0.00  0.00    +0.000 A 
ATOM     11  N   UNL     1      44.305   4.635  10.250  0.00  0.00    +0.000 NA
ATOM     12  C   UNL     1      43.893   3.366  10.409  0.00  0.00    +0.000 A 
ATOM     13  C   UNL     1      43.424   2.867  11.599  0.00  0.00    +0.000 A 
ATOM     14  C   UNL     1      43.406   3.756  12.649  0.00  0.00    +0.000 A 
ATOM     15  N   UNL     1      43.790   5.041  12.546  0.00  0.00    +0.000 NA
ENDBRANCH   9  10
ENDBRANCH   6   9
ENDBRANCH   2   3
BRANCH   2  16
ATOM     16  N   UNL     1      49.322   7.803  15.263  0.00  0.00    +0.000 N 
ATOM     17  C   UNL     1      48.725   8.174  16.441  0.00  0.00    +0.000 C 
ATOM     18  O   UNL     1      48.063   9.202  16.545  0.00  0.00    +0.000 OA
ATOM     19  H   UNL     1      49.978   7.030  15.249  0.00  0.00    +0.000 HD
BRANCH  17  20
ATOM     20  C   UNL     1      48.857   7.241  17.567  0.00  0.00    +0.000 A 
ATOM     21  C   UNL     1      49.283   7.716  18.801  0.00  0.00    +0.000 A 
ATOM     22  S   UNL     1      49.364   6.514  20.007  0.00  0.00    +0.000 S 
ATOM     23  C   UNL     1      48.882   5.306  18.910  0.00  0.00    +0.000 A 
ATOM     24  N   UNL     1      48.787   4.007  19.302  0.00  0.00    +0.000 NA
ATOM     25  C   UNL     1      48.446   3.191  18.362  0.00  0.00    +0.000 A 
ATOM     26  N   UNL     1      48.178   3.558  17.068  0.00  0.00    +0.000 N 
ATOM     27  C   UNL     1      48.212   4.864  16.639  0.00  0.00    +0.000 A 
ATOM     28  O   UNL     1      47.888   5.168  15.495  0.00  0.00    +0.000 OA
ATOM     29  C   UNL     1      48.628   5.818  17.650  0.00  0.00    +0.000 A 
ATOM     30  H   UNL     1      47.895   2.870  16.386  0.00  0.00    +0.000 HD
ENDBRANCH  17  20
ENDBRANCH   2  16
TORSDOF 5
ENDMDL
MODEL 7
REMARK VINA RESULT:    -7.306      4.123      8.590
REMARK INTER + INTRA:          -9.583
REMARK INTER:                  -8.437
REMARK INTRA:                  -1.146
REMARK UNBOUND:                -0.141
REMARK  Name = 
REMARK  6 active torsions:
REMARK  status: ('A' for Active; 'I' for Inactive)
REMARK    1  A    between atoms: C_1  and  C_2
REMARK    2  A    between atoms: C_2  and  N_3
REMARK    3  A    between atoms: C_2  and  C_16
REMARK    4  A    between atoms: C_4  and  C_6
REMARK    5  A    between atoms: C_19  and  O_20
REMARK    6  A    between atoms: O_20  and  C_21
REMARK                            x       y       z     vdW  Elec       q    Type
REMARK                         _______ _______ _______ _____ _____    ______ ____
ROOT
ATOM      1  C   UNL     1      48.291   9.031  14.842  0.00  0.00    +0.000 C 
ATOM      2  C   UNL     1      48.395   7.573  14.392  0.00  0.00    +0.000 C 
ENDROOT
BRANCH   2   3
ATOM      3  C   UNL     1      48.884   6.626  15.474  0.00  0.00    +0.000 A 
ATOM      4  C   UNL     1      50.193   6.779  15.963  0.00  0.00    +0.000 A 
ATOM      5  C   UNL     1      50.681   5.954  16.974  0.00  0.00    +0.000 A 
ATOM      6  C   UNL     1      49.861   4.977  17.541  0.00  0.00    +0.000 A 
ATOM      7  C   UNL     1      48.585   4.765  17.017  0.00  0.00    +0.000 A 
ATOM      8  C   UNL     1      48.103   5.579  15.985  0.00  0.00    +0.000 A 
BRANCH   6   9
ATOM      9  O   UNL     1      50.261   4.135  18.552  0.00  0.00    +0.000 OA
BRANCH   9  10
ATOM     10  C   UNL     1      51.270   3.219  18.281  0.00  0.00    +0.000 A 
ATOM     11  N   UNL     1      52.523   3.448  18.720  0.00  0.00    +0.000 NA
ATOM     12  C   UNL     1      53.450   2.536  18.380  0.00  0.00    +0.000 A 
ATOM     13  C   UNL     1      53.166   1.404  17.657  0.00  0.00    +0.000 A 
ATOM     14  C   UNL     1      51.849   1.245  17.296  0.00  0.00    +0.000 A 
ATOM     15  N   UNL     1      50.881   2.131  17.593  0.00  0.00    +0.000 NA
ENDBRANCH   9  10
ENDBRANCH   6   9
ENDBRANCH   2   3
BRANCH   2  16
ATOM     16  N   UNL     1      47.133   7.092  13.866  0.00  0.00    +0.000 N 
ATOM     17  C   UNL     1      46.867   7.051  12.521  0.00  0.00    +0.000 C 
ATOM     18  O   UNL     1      47.677   7.434  11.682  0.00  0.00    +0.000 OA
ATOM     19  H   UNL     1      46.394   6.906  14.535  0.00  0.00    +0.000 HD
BRANCH  17  20
ATOM     20  C   UNL     1      45.586   6.457  12.123  0.00  0.00    +0.000 A 
ATOM     21  C   UNL     1      44.606   7.263  11.555  0.00  0.00    +0.000 A 
ATOM     22  S   UNL     1      43.187   6.421  11.129  0.00  0.00    +0.000 S 
ATOM     23  C   UNL     1      43.811   4.958  11.733  0.00  0.00    +0.000 A 
ATOM     24  N   UNL     1      43.065   3.821  11.710  0.00  0.00    +0.000 NA
ATOM     25  C   UNL     1      43.646   2.792  12.232  0.00  0.00    +0.000 A 
ATOM     26  N   UNL     1      44.910   2.796  12.763  0.00  0.00    +0.000 N 
ATOM     27  C   UNL     1      45.719   3.908  12.763  0.00  0.00    +0.000 A 
ATOM     28  O   UNL     1      46.874   3.857  13.173  0.00  0.00    +0.000 OA
ATOM     29  C   UNL     1      45.097   5.103  12.221  0.00  0.00    +0.000 A 
ATOM     30  H   UNL     1      45.313   1.950  13.137  0.00  0.00    +0.000 HD
ENDBRANCH  17  20
ENDBRANCH   2  16
TORSDOF 5
ENDMDL
MODEL 8
REMARK VINA RESULT:    -7.299      2.790      4.092
REMARK INTER + INTRA:          -9.573
REMARK INTER:                  -8.672
REMARK INTRA:                  -0.902
REMARK UNBOUND:                -0.141
REMARK  Name = 
REMARK  6 active torsions:
REMARK  status: ('A' for Active; 'I' for Inactive)
REMARK    1  A    between atoms: C_1  and  C_2
REMARK    2  A    between atoms: C_2  and  N_3
REMARK    3  A    between atoms: C_2  and  C_16
REMARK    4  A    between atoms: C_4  and  C_6
REMARK    5  A    between atoms: C_19  and  O_20
REMARK    6  A    between atoms: O_20  and  C_21
REMARK                            x       y       z     vdW  Elec       q    Type
REMARK                         _______ _______ _______ _____ _____    ______ ____
ROOT
ATOM      1  C   UNL     1      49.437   8.027  13.123  0.00  0.00    +0.000 C 
ATOM      2  C   UNL     1      48.028   8.112  13.713  0.00  0.00    +0.000 C 
ENDROOT
BRANCH   2   3
ATOM      3  C   UNL     1      46.990   7.306  12.952  0.00  0.00    +0.000 A 
ATOM      4  C   UNL     1      46.075   7.988  12.132  0.00  0.00    +0.000 A 
ATOM      5  C   UNL     1      45.119   7.294  11.392  0.00  0.00    +0.000 A 
ATOM      6  C   UNL     1      45.078   5.899  11.432  0.00  0.00    +0.000 A 
ATOM      7  C   UNL     1      45.931   5.212  12.297  0.00  0.00    +0.000 A 
ATOM      8  C   UNL     1      46.875   5.912  13.058  0.00  0.00    +0.000 A 
BRANCH   6   9
ATOM      9  O   UNL     1      44.178   5.140  10.720  0.00  0.00    +0.000 OA
BRANCH   9  10
ATOM     10  C   UNL     1      44.676   4.219   9.806  0.00  0.00    +0.000 A 
ATOM     11  N   UNL     1      44.407   2.908   9.955  0.00  0.00    +0.000 NA
ATOM     12  C   UNL     1      44.960   2.079   9.054  0.00  0.00    +0.000 A 
ATOM     13  C   UNL     1      45.735   2.512   8.005  0.00  0.00    +0.000 A 
ATOM     14  C   UNL     1      45.912   3.872   7.920  0.00  0.00    +0.000 A 
ATOM     15  N   UNL     1      45.397   4.749   8.802  0.00  0.00    +0.000 NA
ENDBRANCH   9  10
ENDBRANCH   6   9
ENDBRANCH   2   3
BRANCH   2  16
ATOM     16  N   UNL     1      48.016   7.718  15.108  0.00  0.00    +0.000 N 
ATOM     17  C   UNL     1      48.471   8.541  16.106  0.00  0.00    +0.000 C 
ATOM     18  O   UNL     1      48.931   9.656  15.877  0.00  0.00    +0.000 OA
ATOM     19  H   UNL     1      47.780   6.754  15.314  0.00  0.00    +0.000 HD
BRANCH  17  20
ATOM     20  C   UNL     1      48.318   8.052  17.481  0.00  0.00    +0.000 A 
ATOM     21  C   UNL     1      47.885   8.925  18.472  0.00  0.00    +0.000 A 
ATOM     22  S   UNL     1      47.739   8.200  20.008  0.00  0.00    +0.000 S 
ATOM     23  C   UNL     1      48.298   6.707  19.415  0.00  0.00    +0.000 A 
ATOM     24  N   UNL     1      48.450   5.641  20.246  0.00  0.00    +0.000 NA
ATOM     25  C   UNL     1      48.915   4.581  19.673  0.00  0.00    +0.000 A 
ATOM     26  N   UNL     1      49.228   4.488  18.342  0.00  0.00    +0.000 N 
ATOM     27  C   UNL     1      49.043   5.522  17.454  0.00  0.00    +0.000 A 
ATOM     28  O   UNL     1      49.258   5.380  16.255  0.00  0.00    +0.000 OA
ATOM     29  C   UNL     1      48.558   6.751  18.057  0.00  0.00    +0.000 A 
ATOM     30  H   UNL     1      49.569   3.621  17.952  0.00  0.00    +0.000 HD
ENDBRANCH  17  20
ENDBRANCH   2  16
TORSDOF 5
ENDMDL
MODEL 9
REMARK VINA RESULT:    -7.180      4.349      8.854
REMARK INTER + INTRA:          -9.419
REMARK INTER:                  -8.318
REMARK INTRA:                  -1.101
REMARK UNBOUND:                -0.141
REMARK  Name = 
REMARK  6 active torsions:
REMARK  status: ('A' for Active; 'I' for Inactive)
REMARK    1  A    between atoms: C_1  and  C_2
REMARK    2  A    between atoms: C_2  and  N_3
REMARK    3  A    between atoms: C_2  and  C_16
REMARK    4  A    between atoms: C_4  and  C_6
REMARK    5  A    between atoms: C_19  and  O_20
REMARK    6  A    between atoms: O_20  and  C_21
REMARK                            x       y       z     vdW  Elec       q    Type
REMARK                         _______ _______ _______ _____ _____    ______ ____
ROOT
ATOM      1  C   UNL     1      48.230   9.362  15.478  0.00  0.00    +0.000 C 
ATOM      2  C   UNL     1      48.703   8.018  14.920  0.00  0.00    +0.000 C 
ENDROOT
BRANCH   2   3
ATOM      3  C   UNL     1      49.481   7.175  15.915  0.00  0.00    +0.000 A 
ATOM      4  C   UNL     1      48.791   6.594  16.992  0.00  0.00    +0.000 A 
ATOM      5  C   UNL     1      49.454   5.791  17.918  0.00  0.00    +0.000 A 
ATOM      6  C   UNL     1      50.817   5.525  17.769  0.00  0.00    +0.000 A 
ATOM      7  C   UNL     1      51.530   6.153  16.747  0.00  0.00    +0.000 A 
ATOM      8  C   UNL     1      50.868   6.979  15.830  0.00  0.00    +0.000 A 
BRANCH   6   9
ATOM      9  O   UNL     1      51.540   4.730  18.628  0.00  0.00    +0.000 OA
BRANCH   9  10
ATOM     10  C   UNL     1      51.883   3.452  18.206  0.00  0.00    +0.000 A 
ATOM     11  N   UNL     1      50.950   2.651  17.655  0.00  0.00    +0.000 NA
ATOM     12  C   UNL     1      51.352   1.416  17.313  0.00  0.00    +0.000 A 
ATOM     13  C   UNL     1      52.642   0.971  17.468  0.00  0.00    +0.000 A 
ATOM     14  C   UNL     1      53.524   1.882  17.999  0.00  0.00    +0.000 A 
ATOM     15  N   UNL     1      53.176   3.126  18.376  0.00  0.00    +0.000 NA
ENDBRANCH   9  10
ENDBRANCH   6   9
ENDBRANCH   2   3
BRANCH   2  16
ATOM     16  N   UNL     1      47.594   7.246  14.397  0.00  0.00    +0.000 N 
ATOM     17  C   UNL     1      47.748   6.330  13.388  0.00  0.00    +0.000 C 
ATOM     18  O   UNL     1      48.834   6.122  12.855  0.00  0.00    +0.000 OA
ATOM     19  H   UNL     1      46.664   7.498  14.715  0.00  0.00    +0.000 HD
BRANCH  17  20
ATOM     20  C   UNL     1      46.560   5.553  13.017  0.00  0.00    +0.000 A 
ATOM     21  C   UNL     1      46.555   4.178  13.214  0.00  0.00    +0.000 A 
ATOM     22  S   UNL     1      45.096   3.425  12.753  0.00  0.00    +0.000 S 
ATOM     23  C   UNL     1      44.438   4.903  12.227  0.00  0.00    +0.000 A 
ATOM     24  N   UNL     1      43.198   4.954  11.672  0.00  0.00    +0.000 NA
ATOM     25  C   UNL     1      42.836   6.132  11.286  0.00  0.00    +0.000 A 
ATOM     26  N   UNL     1      43.597   7.264  11.415  0.00  0.00    +0.000 N 
ATOM     27  C   UNL     1      44.835   7.270  12.015  0.00  0.00    +0.000 A 
ATOM     28  O   UNL     1      45.456   8.313  12.188  0.00  0.00    +0.000 OA
ATOM     29  C   UNL     1      45.305   5.961  12.433  0.00  0.00    +0.000 A 
ATOM     30  H   UNL     1      43.245   8.159  11.110  0.00  0.00    +0.000 HD
ENDBRANCH  17  20
ENDBRANCH   2  16
TORSDOF 5
ENDMDL
