MODEL 1
REMARK VINA RESULT:    -8.380      0.000      0.000
REMARK INTER + INTRA:         -12.922
REMARK INTER:                 -11.810
REMARK INTRA:                  -1.113
REMARK UNBOUND:                -1.113
REMARK  Name = 
REMARK  8 active torsions:
REMARK  status: ('A' for Active; 'I' for Inactive)
REMARK    1  A    between atoms: C_1  and  O_2
REMARK    2  A    between atoms: O_2  and  C_3
REMARK    3  A    between atoms: C_5  and  C_6
REMARK    4  A    between atoms: C_6  and  C_7
REMARK    5  A    between atoms: C_7  and  N_8
REMARK    6  A    between atoms: N_8  and  C_9
REMARK    7  A    between atoms: C_12  and  C_13
REMARK    8  A    between atoms: C_19  and  C_20
REMARK                            x       y       z     vdW  Elec       q    Type
REMARK                         _______ _______ _______ _____ _____    ______ ____
ROOT
ATOM      1  C   UNL     1      46.895   4.650  13.951  0.00  0.00    +0.000 A 
ATOM      2  C   UNL     1      45.552   4.573  13.568  0.00  0.00    +0.000 A 
ATOM      3  C   UNL     1      45.003   5.527  12.700  0.00  0.00    +0.000 A 
ATOM      4  C   UNL     1      45.850   6.536  12.208  0.00  0.00    +0.000 A 
ATOM      5  C   UNL     1      47.185   6.674  12.613  0.00  0.00    +0.000 A 
ATOM      6  C   UNL     1      47.696   5.691  13.468  0.00  0.00    +0.000 A 
ENDROOT
BRANCH   5   7
ATOM      7  C   UNL     1      47.968   7.871  12.235  0.00  0.00    +0.000 A 
ATOM      8  C   UNL     1      49.326   7.746  11.857  0.00  0.00    +0.000 A 
ATOM      9  C   UNL     1      50.065   8.842  11.409  0.00  0.00    +0.000 A 
ATOM     10  C   UNL     1      49.452  10.078  11.326  0.00  0.00    +0.000 A 
ATOM     11  F   UNL     1      50.144  11.125  10.859  0.00  0.00    +0.000 F 
ATOM     12  C   UNL     1      48.126  10.248  11.704  0.00  0.00    +0.000 A 
ATOM     13  C   UNL     1      47.391   9.150  12.167  0.00  0.00    +0.000 A 
ENDBRANCH   5   7
BRANCH   1  15
ATOM     14  C   UNL     1      47.342   4.035  16.203  0.00  0.00    +0.000 C 
ATOM     15  O   UNL     1      47.540   3.811  14.815  0.00  0.00    +0.000 OA
ENDBRANCH   1  15
BRANCH   3  16
ATOM     16  C   UNL     1      43.518   5.485  12.369  0.00  0.00    +0.000 C 
BRANCH  16  17
ATOM     17  C   UNL     1      43.170   4.498  11.250  0.00  0.00    +0.000 C 
BRANCH  17  18
ATOM     18  N   UNL     1      43.624   4.920   9.925  0.00  0.00    +0.000 N 
ATOM     19  H   UNL     1      44.064   5.839   9.938  0.00  0.00    +0.000 HD
BRANCH  18  20
ATOM     20  C   UNL     1      44.432   3.975   9.251  0.00  0.00    +0.000 A 
ATOM     21  C   UNL     1      45.466   4.338   8.379  0.00  0.00    +0.000 A 
ATOM     22  C   UNL     1      46.283   3.374   7.794  0.00  0.00    +0.000 A 
ATOM     23  C   UNL     1      46.071   2.048   8.125  0.00  0.00    +0.000 A 
ATOM     24  N   UNL     1      45.104   1.631   8.990  0.00  0.00    +0.000 NA
ATOM     25  C   UNL     1      44.331   2.607   9.534  0.00  0.00    +0.000 A 
BRANCH  23  26
ATOM     26  C   UNL     1      46.962   1.002   7.539  0.00  0.00    +0.000 C 
ATOM     27  N   UNL     1      47.968   1.467   6.735  0.00  0.00    +0.000 N 
ATOM     28  O   UNL     1      46.812  -0.197   7.751  0.00  0.00    +0.000 OA
ATOM     29  H   UNL     1      48.042   2.462   6.555  0.00  0.00    +0.000 HD
ATOM     30  H   UNL     1      48.578   0.810   6.272  0.00  0.00    +0.000 HD
ENDBRANCH  23  26
ENDBRANCH  18  20
ENDBRANCH  17  18
ENDBRANCH  16  17
ENDBRANCH   3  16
TORSDOF 7
ENDMDL
MODEL 2
REMARK VINA RESULT:    -7.695      3.996      7.415
REMARK INTER + INTRA:         -11.957
REMARK INTER:                 -10.831
REMARK INTRA:                  -1.127
REMARK UNBOUND:                -1.113
REMARK  Name = 
REMARK  8 active torsions:
REMARK  status: ('A' for Active; 'I' for Inactive)
REMARK    1  A    between atoms: C_1  and  O_2
REMARK    2  A    between atoms: O_2  and  C_3
REMARK    3  A    between atoms: C_5  and  C_6
REMARK    4  A    between atoms: C_6  and  C_7
REMARK    5  A    between atoms: C_7  and  N_8
REMARK    6  A    between atoms: N_8  and  C_9
REMARK    7  A    between atoms: C_12  and  C_13
REMARK    8  A    between atoms: C_19  and  C_20
REMARK                            x       y       z     vdW  Elec       q    Type
REMARK                         _______ _______ _______ _____ _____    ______ ____
ROOT
ATOM      1  C   UNL     1      43.853   3.912  10.714  0.00  0.00    +0.000 A 
ATOM      2  C   UNL     1      44.346   5.175  11.058  0.00  0.00    +0.000 A 
ATOM      3  C   UNL     1      45.375   5.765  10.312  0.00  0.00    +0.000 A 
ATOM      4  C   UNL     1      45.867   5.064   9.197  0.00  0.00    +0.000 A 
ATOM      5  C   UNL     1      45.435   3.774   8.857  0.00  0.00    +0.000 A 
ATOM      6  C   UNL     1      44.395   3.230   9.620  0.00  0.00    +0.000 A 
ENDROOT
BRANCH   5   7
ATOM      7  C   UNL     1      46.132   2.997   7.810  0.00  0.00    +0.000 A 
ATOM      8  C   UNL     1      46.454   1.636   8.026  0.00  0.00    +0.000 A 
ATOM      9  C   UNL     1      47.029   0.852   7.025  0.00  0.00    +0.000 A 
ATOM     10  C   UNL     1      47.284   1.418   5.789  0.00  0.00    +0.000 A 
ATOM     11  F   UNL     1      47.799   0.661   4.813  0.00  0.00    +0.000 F 
ATOM     12  C   UNL     1      47.000   2.755   5.540  0.00  0.00    +0.000 A 
ATOM     13  C   UNL     1      46.436   3.543   6.552  0.00  0.00    +0.000 A 
ENDBRANCH   5   7
BRANCH   1  15
ATOM     14  C   UNL     1      43.307   2.108  12.162  0.00  0.00    +0.000 C 
ATOM     15  O   UNL     1      42.884   3.212  11.377  0.00  0.00    +0.000 OA
ENDBRANCH   1  15
BRANCH   3  16
ATOM     16  C   UNL     1      45.966   7.096  10.756  0.00  0.00    +0.000 C 
BRANCH  16  17
ATOM     17  C   UNL     1      46.073   7.238  12.278  0.00  0.00    +0.000 C 
BRANCH  17  18
ATOM     18  N   UNL     1      47.413   6.982  12.806  0.00  0.00    +0.000 N 
ATOM     19  H   UNL     1      47.901   7.839  13.062  0.00  0.00    +0.000 HD
BRANCH  18  20
ATOM     20  C   UNL     1      47.463   6.031  13.850  0.00  0.00    +0.000 A 
ATOM     21  C   UNL     1      46.837   4.780  13.775  0.00  0.00    +0.000 A 
ATOM     22  C   UNL     1      46.974   3.846  14.799  0.00  0.00    +0.000 A 
ATOM     23  C   UNL     1      47.776   4.171  15.878  0.00  0.00    +0.000 A 
ATOM     24  N   UNL     1      48.437   5.356  15.998  0.00  0.00    +0.000 NA
ATOM     25  C   UNL     1      48.272   6.236  14.975  0.00  0.00    +0.000 A 
BRANCH  23  26
ATOM     26  C   UNL     1      47.968   3.168  16.968  0.00  0.00    +0.000 C 
ATOM     27  N   UNL     1      46.836   2.817  17.653  0.00  0.00    +0.000 N 
ATOM     28  O   UNL     1      49.061   2.685  17.245  0.00  0.00    +0.000 OA
ATOM     29  H   UNL     1      45.955   3.261  17.418  0.00  0.00    +0.000 HD
ATOM     30  H   UNL     1      46.902   2.178  18.430  0.00  0.00    +0.000 HD
ENDBRANCH  23  26
ENDBRANCH  18  20
ENDBRANCH  17  18
ENDBRANCH  16  17
ENDBRANCH   3  16
TORSDOF 7
ENDMDL
MODEL 3
REMARK VINA RESULT:    -7.682      2.764      4.452
REMARK INTER + INTRA:         -11.939
REMARK INTER:                 -10.968
REMARK INTRA:                  -0.971
REMARK UNBOUND:                -1.113
REMARK  Name = 
REMARK  8 active torsions:
REMARK  status: ('A' for Active; 'I' for Inactive)
REMARK    1  A    between atoms: C_1  and  O_2
REMARK    2  A    between atoms: O_2  and  C_3
REMARK    3  A    between atoms: C_5  and  C_6
REMARK    4  A    between atoms: C_6  and  C_7
REMARK    5  A    between atoms: C_7  and  N_8
REMARK    6  A    between atoms: N_8  and  C_9
REMARK    7  A    between atoms: C_12  and  C_13
REMARK    8  A    between atoms: C_19  and  C_20
REMARK                            x       y       z     vdW  Elec       q    Type
REMARK                         _______ _______ _______ _____ _____    ______ ____
ROOT
ATOM      1  C   UNL     1      48.002   6.991  12.059  0.00  0.00    +0.000 A 
ATOM      2  C   UNL     1      46.773   6.661  11.477  0.00  0.00    +0.000 A 
ATOM      3  C   UNL     1      45.835   5.894  12.181  0.00  0.00    +0.000 A 
ATOM      4  C   UNL     1      46.155   5.500  13.492  0.00  0.00    +0.000 A 
ATOM      5  C   UNL     1      47.397   5.767  14.086  0.00  0.00    +0.000 A 
ATOM      6  C   UNL     1      48.298   6.548  13.353  0.00  0.00    +0.000 A 
ENDROOT
BRANCH   5   7
ATOM      7  C   UNL     1      47.763   5.149  15.379  0.00  0.00    +0.000 A 
ATOM      8  C   UNL     1      48.584   5.846  16.296  0.00  0.00    +0.000 A 
ATOM      9  C   UNL     1      48.873   5.329  17.560  0.00  0.00    +0.000 A 
ATOM     10  C   UNL     1      48.337   4.109  17.927  0.00  0.00    +0.000 A 
ATOM     11  F   UNL     1      48.577   3.627  19.152  0.00  0.00    +0.000 F 
ATOM     12  C   UNL     1      47.540   3.383  17.050  0.00  0.00    +0.000 A 
ATOM     13  C   UNL     1      47.264   3.898  15.777  0.00  0.00    +0.000 A 
ENDBRANCH   5   7
BRANCH   1  15
ATOM     14  C   UNL     1      50.176   7.931  12.251  0.00  0.00    +0.000 C 
ATOM     15  O   UNL     1      49.014   7.696  11.471  0.00  0.00    +0.000 OA
ENDBRANCH   1  15
BRANCH   3  16
ATOM     16  C   UNL     1      44.545   5.461  11.499  0.00  0.00    +0.000 C 
BRANCH  16  17
ATOM     17  C   UNL     1      44.371   3.940  11.430  0.00  0.00    +0.000 C 
BRANCH  17  18
ATOM     18  N   UNL     1      43.771   3.467  10.183  0.00  0.00    +0.000 N 
ATOM     19  H   UNL     1      43.071   4.112   9.818  0.00  0.00    +0.000 HD
BRANCH  18  20
ATOM     20  C   UNL     1      44.701   3.101   9.183  0.00  0.00    +0.000 A 
ATOM     21  C   UNL     1      45.294   4.027   8.316  0.00  0.00    +0.000 A 
ATOM     22  C   UNL     1      46.260   3.631   7.394  0.00  0.00    +0.000 A 
ATOM     23  C   UNL     1      46.647   2.303   7.382  0.00  0.00    +0.000 A 
ATOM     24  N   UNL     1      46.133   1.359   8.220  0.00  0.00    +0.000 NA
ATOM     25  C   UNL     1      45.193   1.793   9.100  0.00  0.00    +0.000 A 
BRANCH  23  26
ATOM     26  C   UNL     1      47.710   1.866   6.428  0.00  0.00    +0.000 C 
ATOM     27  N   UNL     1      48.836   2.644   6.403  0.00  0.00    +0.000 N 
ATOM     28  O   UNL     1      47.594   0.880   5.707  0.00  0.00    +0.000 OA
ATOM     29  H   UNL     1      48.883   3.470   6.989  0.00  0.00    +0.000 HD
ATOM     30  H   UNL     1      49.574   2.430   5.749  0.00  0.00    +0.000 HD
ENDBRANCH  23  26
ENDBRANCH  18  20
ENDBRANCH  17  18
ENDBRANCH  16  17
ENDBRANCH   3  16
TORSDOF 7
ENDMDL
MODEL 4
REMARK VINA RESULT:    -7.334      1.671      2.105
REMARK INTER + INTRA:         -11.448
REMARK INTER:                 -10.941
REMARK INTRA:                  -0.507
REMARK UNBOUND:                -1.113
REMARK  Name = 
REMARK  8 active torsions:
REMARK  status: ('A' for Active; 'I' for Inactive)
REMARK    1  A    between atoms: C_1  and  O_2
REMARK    2  A    between atoms: O_2  and  C_3
REMARK    3  A    between atoms: C_5  and  C_6
REMARK    4  A    between atoms: C_6  and  C_7
REMARK    5  A    between atoms: C_7  and  N_8
REMARK    6  A    between atoms: N_8  and  C_9
REMARK    7  A    between atoms: C_12  and  C_13
REMARK    8  A    between atoms: C_19  and  C_20
REMARK                            x       y       z     vdW  Elec       q    Type
REMARK                         _______ _______ _______ _____ _____    ______ ____
ROOT
ATOM      1  C   UNL     1      47.331   4.902  14.269  0.00  0.00    +0.000 A 
ATOM      2  C   UNL     1      46.576   3.936  13.595  0.00  0.00    +0.000 A 
ATOM      3  C   UNL     1      45.759   4.298  12.515  0.00  0.00    +0.000 A 
ATOM      4  C   UNL     1      45.750   5.646  12.116  0.00  0.00    +0.000 A 
ATOM      5  C   UNL     1      46.452   6.648  12.802  0.00  0.00    +0.000 A 
ATOM      6  C   UNL     1      47.267   6.240  13.865  0.00  0.00    +0.000 A 
ENDROOT
BRANCH   5   7
ATOM      7  C   UNL     1      46.241   8.075  12.476  0.00  0.00    +0.000 A 
ATOM      8  C   UNL     1      47.311   8.995  12.571  0.00  0.00    +0.000 A 
ATOM      9  C   UNL     1      47.167  10.328  12.184  0.00  0.00    +0.000 A 
ATOM     10  C   UNL     1      45.950  10.758  11.690  0.00  0.00    +0.000 A 
ATOM     11  F   UNL     1      45.817  12.025  11.279  0.00  0.00    +0.000 F 
ATOM     12  C   UNL     1      44.868   9.891  11.596  0.00  0.00    +0.000 A 
ATOM     13  C   UNL     1      45.011   8.558  11.999  0.00  0.00    +0.000 A 
ENDBRANCH   5   7
BRANCH   1  15
ATOM     14  C   UNL     1      47.493   4.538  16.612  0.00  0.00    +0.000 C 
ATOM     15  O   UNL     1      48.133   4.690  15.355  0.00  0.00    +0.000 OA
ENDBRANCH   1  15
BRANCH   3  16
ATOM     16  C   UNL     1      44.870   3.253  11.854  0.00  0.00    +0.000 C 
BRANCH  16  17
ATOM     17  C   UNL     1      43.574   3.832  11.276  0.00  0.00    +0.000 C 
BRANCH  17  18
ATOM     18  N   UNL     1      43.692   4.282   9.889  0.00  0.00    +0.000 N 
ATOM     19  H   UNL     1      43.743   5.297   9.812  0.00  0.00    +0.000 HD
BRANCH  18  20
ATOM     20  C   UNL     1      44.726   3.659   9.153  0.00  0.00    +0.000 A 
ATOM     21  C   UNL     1      44.836   2.269   9.017  0.00  0.00    +0.000 A 
ATOM     22  C   UNL     1      45.829   1.702   8.223  0.00  0.00    +0.000 A 
ATOM     23  C   UNL     1      46.683   2.548   7.540  0.00  0.00    +0.000 A 
ATOM     24  N   UNL     1      46.610   3.907   7.604  0.00  0.00    +0.000 NA
ATOM     25  C   UNL     1      45.627   4.414   8.393  0.00  0.00    +0.000 A 
BRANCH  23  26
ATOM     26  C   UNL     1      47.730   1.960   6.651  0.00  0.00    +0.000 C 
ATOM     27  N   UNL     1      48.733   2.813   6.278  0.00  0.00    +0.000 N 
ATOM     28  O   UNL     1      47.703   0.794   6.271  0.00  0.00    +0.000 OA
ATOM     29  H   UNL     1      48.705   3.779   6.585  0.00  0.00    +0.000 HD
ATOM     30  H   UNL     1      49.448   2.492   5.642  0.00  0.00    +0.000 HD
ENDBRANCH  23  26
ENDBRANCH  18  20
ENDBRANCH  17  18
ENDBRANCH  16  17
ENDBRANCH   3  16
TORSDOF 7
ENDMDL
MODEL 5
REMARK VINA RESULT:    -7.064      4.639      7.785
REMARK INTER + INTRA:         -11.067
REMARK INTER:                  -9.569
REMARK INTRA:                  -1.498
REMARK UNBOUND:                -1.113
REMARK  Name = 
REMARK  8 active torsions:
REMARK  status: ('A' for Active; 'I' for Inactive)
REMARK    1  A    between atoms: C_1  and  O_2
REMARK    2  A    between atoms: O_2  and  C_3
REMARK    3  A    between atoms: C_5  and  C_6
REMARK    4  A    between atoms: C_6  and  C_7
REMARK    5  A    between atoms: C_7  and  N_8
REMARK    6  A    between atoms: N_8  and  C_9
REMARK    7  A    between atoms: C_12  and  C_13
REMARK    8  A    between atoms: C_19  and  C_20
REMARK                            x       y       z     vdW  Elec       q    Type
REMARK                         _______ _______ _______ _____ _____    ______ ____
ROOT
ATOM      1  C   UNL     1      45.371   9.383  12.080  0.00  0.00    +0.000 A 
ATOM      2  C   UNL     1      46.763   9.502  12.149  0.00  0.00    +0.000 A 
ATOM      3  C   UNL     1      47.580   8.370  12.018  0.00  0.00    +0.000 A 
ATOM      4  C   UNL     1      46.959   7.131  11.785  0.00  0.00    +0.000 A 
ATOM      5  C   UNL     1      45.567   6.968  11.764  0.00  0.00    +0.000 A 
ATOM      6  C   UNL     1      44.789   8.126  11.884  0.00  0.00    +0.000 A 
ENDROOT
BRANCH   5   7
ATOM      7  C   UNL     1      44.965   5.618  11.731  0.00  0.00    +0.000 A 
ATOM      8  C   UNL     1      44.279   5.113  12.860  0.00  0.00    +0.000 A 
ATOM      9  C   UNL     1      43.624   3.881  12.828  0.00  0.00    +0.000 A 
ATOM     10  C   UNL     1      43.640   3.139  11.662  0.00  0.00    +0.000 A 
ATOM     11  F   UNL     1      42.980   1.976  11.612  0.00  0.00    +0.000 F 
ATOM     12  C   UNL     1      44.317   3.590  10.535  0.00  0.00    +0.000 A 
ATOM     13  C   UNL     1      44.986   4.820  10.574  0.00  0.00    +0.000 A 
ENDBRANCH   5   7
BRANCH   1  15
ATOM     14  C   UNL     1      44.650  11.553  11.430  0.00  0.00    +0.000 C 
ATOM     15  O   UNL     1      44.464  10.395  12.229  0.00  0.00    +0.000 OA
ENDBRANCH   1  15
BRANCH   3  16
ATOM     16  C   UNL     1      49.087   8.501  12.191  0.00  0.00    +0.000 C 
BRANCH  16  17
ATOM     17  C   UNL     1      49.677   7.491  13.182  0.00  0.00    +0.000 C 
BRANCH  17  18
ATOM     18  N   UNL     1      49.431   7.824  14.586  0.00  0.00    +0.000 N 
ATOM     19  H   UNL     1      48.916   8.696  14.694  0.00  0.00    +0.000 HD
BRANCH  18  20
ATOM     20  C   UNL     1      48.845   6.784  15.344  0.00  0.00    +0.000 A 
ATOM     21  C   UNL     1      47.946   5.856  14.802  0.00  0.00    +0.000 A 
ATOM     22  C   UNL     1      47.450   4.805  15.568  0.00  0.00    +0.000 A 
ATOM     23  C   UNL     1      47.897   4.678  16.870  0.00  0.00    +0.000 A 
ATOM     24  N   UNL     1      48.793   5.526  17.448  0.00  0.00    +0.000 NA
ATOM     25  C   UNL     1      49.248   6.537  16.662  0.00  0.00    +0.000 A 
BRANCH  23  26
ATOM     26  C   UNL     1      47.407   3.534  17.697  0.00  0.00    +0.000 C 
ATOM     27  N   UNL     1      48.143   3.258  18.817  0.00  0.00    +0.000 N 
ATOM     28  O   UNL     1      46.415   2.874  17.401  0.00  0.00    +0.000 OA
ATOM     29  H   UNL     1      48.975   3.803  19.013  0.00  0.00    +0.000 HD
ATOM     30  H   UNL     1      47.892   2.470  19.395  0.00  0.00    +0.000 HD
ENDBRANCH  23  26
ENDBRANCH  18  20
ENDBRANCH  17  18
ENDBRANCH  16  17
ENDBRANCH   3  16
TORSDOF 7
ENDMDL
MODEL 6
REMARK VINA RESULT:    -7.011      2.453      3.312
REMARK INTER + INTRA:         -10.993
REMARK INTER:                 -10.076
REMARK INTRA:                  -0.917
REMARK UNBOUND:                -1.113
REMARK  Name = 
REMARK  8 active torsions:
REMARK  status: ('A' for Active; 'I' for Inactive)
REMARK    1  A    between atoms: C_1  and  O_2
REMARK    2  A    between atoms: O_2  and  C_3
REMARK    3  A    between atoms: C_5  and  C_6
REMARK    4  A    between atoms: C_6  and  C_7
REMARK    5  A    between atoms: C_7  and  N_8
REMARK    6  A    between atoms: N_8  and  C_9
REMARK    7  A    between atoms: C_12  and  C_13
REMARK    8  A    between atoms: C_19  and  C_20
REMARK                            x       y       z     vdW  Elec       q    Type
REMARK                         _______ _______ _______ _____ _____    ______ ____
ROOT
ATOM      1  C   UNL     1      44.640   8.233  11.449  0.00  0.00    +0.000 A 
ATOM      2  C   UNL     1      44.008   7.029  11.775  0.00  0.00    +0.000 A 
ATOM      3  C   UNL     1      44.684   6.045  12.509  0.00  0.00    +0.000 A 
ATOM      4  C   UNL     1      45.997   6.322  12.930  0.00  0.00    +0.000 A 
ATOM      5  C   UNL     1      46.679   7.495  12.575  0.00  0.00    +0.000 A 
ATOM      6  C   UNL     1      45.961   8.456  11.855  0.00  0.00    +0.000 A 
ENDROOT
BRANCH   5   7
ATOM      7  C   UNL     1      48.123   7.643  12.860  0.00  0.00    +0.000 A 
ATOM      8  C   UNL     1      49.000   8.138  11.866  0.00  0.00    +0.000 A 
ATOM      9  C   UNL     1      50.349   8.374  12.132  0.00  0.00    +0.000 A 
ATOM     10  C   UNL     1      50.839   8.125  13.401  0.00  0.00    +0.000 A 
ATOM     11  F   UNL     1      52.123   8.388  13.674  0.00  0.00    +0.000 F 
ATOM     12  C   UNL     1      50.016   7.623  14.401  0.00  0.00    +0.000 A 
ATOM     13  C   UNL     1      48.666   7.373  14.127  0.00  0.00    +0.000 A 
ENDBRANCH   5   7
BRANCH   1  15
ATOM     14  C   UNL     1      43.775  10.446  11.401  0.00  0.00    +0.000 C 
ATOM     15  O   UNL     1      44.110   9.252  10.710  0.00  0.00    +0.000 OA
ENDBRANCH   1  15
BRANCH   3  16
ATOM     16  C   UNL     1      44.017   4.702  12.772  0.00  0.00    +0.000 C 
BRANCH  16  17
ATOM     17  C   UNL     1      44.538   3.575  11.874  0.00  0.00    +0.000 C 
BRANCH  17  18
ATOM     18  N   UNL     1      43.916   3.535  10.551  0.00  0.00    +0.000 N 
ATOM     19  H   UNL     1      43.358   4.366  10.357  0.00  0.00    +0.000 HD
BRANCH  18  20
ATOM     20  C   UNL     1      44.807   3.257   9.489  0.00  0.00    +0.000 A 
ATOM     21  C   UNL     1      45.147   1.955   9.099  0.00  0.00    +0.000 A 
ATOM     22  C   UNL     1      45.972   1.728   8.000  0.00  0.00    +0.000 A 
ATOM     23  C   UNL     1      46.418   2.820   7.280  0.00  0.00    +0.000 A 
ATOM     24  N   UNL     1      46.099   4.109   7.587  0.00  0.00    +0.000 NA
ATOM     25  C   UNL     1      45.293   4.281   8.668  0.00  0.00    +0.000 A 
BRANCH  23  26
ATOM     26  C   UNL     1      47.272   2.596   6.075  0.00  0.00    +0.000 C 
ATOM     27  N   UNL     1      48.622   2.577   6.303  0.00  0.00    +0.000 N 
ATOM     28  O   UNL     1      46.809   2.442   4.949  0.00  0.00    +0.000 OA
ATOM     29  H   UNL     1      48.970   2.740   7.241  0.00  0.00    +0.000 HD
ATOM     30  H   UNL     1      49.256   2.474   5.526  0.00  0.00    +0.000 HD
ENDBRANCH  23  26
ENDBRANCH  18  20
ENDBRANCH  17  18
ENDBRANCH  16  17
ENDBRANCH   3  16
TORSDOF 7
ENDMDL
MODEL 7
REMARK VINA RESULT:    -6.328      4.417      7.867
REMARK INTER + INTRA:         -10.030
REMARK INTER:                  -9.283
REMARK INTRA:                  -0.747
REMARK UNBOUND:                -1.113
REMARK  Name = 
REMARK  8 active torsions:
REMARK  status: ('A' for Active; 'I' for Inactive)
REMARK    1  A    between atoms: C_1  and  O_2
REMARK    2  A    between atoms: O_2  and  C_3
REMARK    3  A    between atoms: C_5  and  C_6
REMARK    4  A    between atoms: C_6  and  C_7
REMARK    5  A    between atoms: C_7  and  N_8
REMARK    6  A    between atoms: N_8  and  C_9
REMARK    7  A    between atoms: C_12  and  C_13
REMARK    8  A    between atoms: C_19  and  C_20
REMARK                            x       y       z     vdW  Elec       q    Type
REMARK                         _______ _______ _______ _____ _____    ______ ____
ROOT
ATOM      1  C   UNL     1      43.989   3.477  10.670  0.00  0.00    +0.000 A 
ATOM      2  C   UNL     1      44.398   4.767  11.025  0.00  0.00    +0.000 A 
ATOM      3  C   UNL     1      45.338   5.455  10.245  0.00  0.00    +0.000 A 
ATOM      4  C   UNL     1      45.825   4.823   9.088  0.00  0.00    +0.000 A 
ATOM      5  C   UNL     1      45.478   3.511   8.732  0.00  0.00    +0.000 A 
ATOM      6  C   UNL     1      44.526   2.867   9.530  0.00  0.00    +0.000 A 
ENDROOT
BRANCH   5   7
ATOM      7  C   UNL     1      46.179   2.818   7.630  0.00  0.00    +0.000 A 
ATOM      8  C   UNL     1      46.591   1.473   7.780  0.00  0.00    +0.000 A 
ATOM      9  C   UNL     1      47.172   0.764   6.728  0.00  0.00    +0.000 A 
ATOM     10  C   UNL     1      47.344   1.390   5.507  0.00  0.00    +0.000 A 
ATOM     11  F   UNL     1      47.863   0.703   4.483  0.00  0.00    +0.000 F 
ATOM     12  C   UNL     1      46.969   2.715   5.322  0.00  0.00    +0.000 A 
ATOM     13  C   UNL     1      46.400   3.429   6.384  0.00  0.00    +0.000 A 
ENDBRANCH   5   7
BRANCH   1  15
ATOM     14  C   UNL     1      43.324   2.556  12.758  0.00  0.00    +0.000 C 
ATOM     15  O   UNL     1      43.114   2.686  11.360  0.00  0.00    +0.000 OA
ENDBRANCH   1  15
BRANCH   3  16
ATOM     16  C   UNL     1      45.844   6.818  10.697  0.00  0.00    +0.000 C 
BRANCH  16  17
ATOM     17  C   UNL     1      46.684   6.762  11.978  0.00  0.00    +0.000 C 
BRANCH  17  18
ATOM     18  N   UNL     1      47.214   8.060  12.397  0.00  0.00    +0.000 N 
ATOM     19  H   UNL     1      46.802   8.385  13.270  0.00  0.00    +0.000 HD
BRANCH  18  20
ATOM     20  C   UNL     1      48.625   8.134  12.437  0.00  0.00    +0.000 A 
ATOM     21  C   UNL     1      49.441   7.779  11.355  0.00  0.00    +0.000 A 
ATOM     22  C   UNL     1      50.822   7.937  11.414  0.00  0.00    +0.000 A 
ATOM     23  C   UNL     1      51.368   8.491  12.557  0.00  0.00    +0.000 A 
ATOM     24  N   UNL     1      50.631   8.887  13.632  0.00  0.00    +0.000 NA
ATOM     25  C   UNL     1      49.287   8.711  13.528  0.00  0.00    +0.000 A 
BRANCH  23  26
ATOM     26  C   UNL     1      52.846   8.706  12.625  0.00  0.00    +0.000 C 
ATOM     27  N   UNL     1      53.601   7.572  12.755  0.00  0.00    +0.000 N 
ATOM     28  O   UNL     1      53.360   9.819  12.574  0.00  0.00    +0.000 OA
ATOM     29  H   UNL     1      53.140   6.672  12.828  0.00  0.00    +0.000 HD
ATOM     30  H   UNL     1      54.602   7.650  12.852  0.00  0.00    +0.000 HD
ENDBRANCH  23  26
ENDBRANCH  18  20
ENDBRANCH  17  18
ENDBRANCH  16  17
ENDBRANCH   3  16
TORSDOF 7
ENDMDL
MODEL 8
REMARK VINA RESULT:    -6.153      5.000      7.902
REMARK INTER + INTRA:          -9.783
REMARK INTER:                  -8.223
REMARK INTRA:                  -1.560
REMARK UNBOUND:                -1.113
REMARK  Name = 
REMARK  8 active torsions:
REMARK  status: ('A' for Active; 'I' for Inactive)
REMARK    1  A    between atoms: C_1  and  O_2
REMARK    2  A    between atoms: O_2  and  C_3
REMARK    3  A    between atoms: C_5  and  C_6
REMARK    4  A    between atoms: C_6  and  C_7
REMARK    5  A    between atoms: C_7  and  N_8
REMARK    6  A    between atoms: N_8  and  C_9
REMARK    7  A    between atoms: C_12  and  C_13
REMARK    8  A    between atoms: C_19  and  C_20
REMARK                            x       y       z     vdW  Elec       q    Type
REMARK                         _______ _______ _______ _____ _____    ______ ____
ROOT
ATOM      1  C   UNL     1      50.468   8.557  13.105  0.00  0.00    +0.000 A 
ATOM      2  C   UNL     1      50.602   8.795  14.477  0.00  0.00    +0.000 A 
ATOM      3  C   UNL     1      49.743   8.173  15.394  0.00  0.00    +0.000 A 
ATOM      4  C   UNL     1      48.773   7.287  14.893  0.00  0.00    +0.000 A 
ATOM      5  C   UNL     1      48.576   7.068  13.522  0.00  0.00    +0.000 A 
ATOM      6  C   UNL     1      49.467   7.696  12.643  0.00  0.00    +0.000 A 
ENDROOT
BRANCH   5   7
ATOM      7  C   UNL     1      47.410   6.296  13.041  0.00  0.00    +0.000 A 
ATOM      8  C   UNL     1      46.843   6.574  11.775  0.00  0.00    +0.000 A 
ATOM      9  C   UNL     1      45.801   5.805  11.255  0.00  0.00    +0.000 A 
ATOM     10  C   UNL     1      45.316   4.741  11.993  0.00  0.00    +0.000 A 
ATOM     11  F   UNL     1      44.344   3.975  11.482  0.00  0.00    +0.000 F 
ATOM     12  C   UNL     1      45.832   4.445  13.248  0.00  0.00    +0.000 A 
ATOM     13  C   UNL     1      46.868   5.227  13.774  0.00  0.00    +0.000 A 
ENDBRANCH   5   7
BRANCH   1  15
ATOM     14  C   UNL     1      51.525   8.309  10.990  0.00  0.00    +0.000 C 
ATOM     15  O   UNL     1      51.211   9.125  12.109  0.00  0.00    +0.000 OA
ENDBRANCH   1  15
BRANCH   3  16
ATOM     16  C   UNL     1      49.838   8.517  16.874  0.00  0.00    +0.000 C 
BRANCH  16  17
ATOM     17  C   UNL     1      48.566   8.182  17.661  0.00  0.00    +0.000 C 
BRANCH  17  18
ATOM     18  N   UNL     1      48.776   7.235  18.755  0.00  0.00    +0.000 N 
ATOM     19  H   UNL     1      48.031   7.270  19.449  0.00  0.00    +0.000 HD
BRANCH  18  20
ATOM     20  C   UNL     1      49.033   5.907  18.344  0.00  0.00    +0.000 A 
ATOM     21  C   UNL     1      48.121   5.147  17.601  0.00  0.00    +0.000 A 
ATOM     22  C   UNL     1      48.446   3.869  17.155  0.00  0.00    +0.000 A 
ATOM     23  C   UNL     1      49.709   3.381  17.434  0.00  0.00    +0.000 A 
ATOM     24  N   UNL     1      50.654   4.080  18.124  0.00  0.00    +0.000 NA
ATOM     25  C   UNL     1      50.290   5.321  18.540  0.00  0.00    +0.000 A 
BRANCH  23  26
ATOM     26  C   UNL     1      50.092   2.027  16.931  0.00  0.00    +0.000 C 
ATOM     27  N   UNL     1      50.965   1.330  17.721  0.00  0.00    +0.000 N 
ATOM     28  O   UNL     1      49.663   1.561  15.880  0.00  0.00    +0.000 OA
ATOM     29  H   UNL     1      51.325   1.760  18.566  0.00  0.00    +0.000 HD
ATOM     30  H   UNL     1      51.299   0.427  17.417  0.00  0.00    +0.000 HD
ENDBRANCH  23  26
ENDBRANCH  18  20
ENDBRANCH  17  18
ENDBRANCH  16  17
ENDBRANCH   3  16
TORSDOF 7
ENDMDL
MODEL 9
REMARK VINA RESULT:    -5.545      5.271      8.012
REMARK INTER + INTRA:          -8.927
REMARK INTER:                  -7.493
REMARK INTRA:                  -1.434
REMARK UNBOUND:                -1.113
REMARK  Name = 
REMARK  8 active torsions:
REMARK  status: ('A' for Active; 'I' for Inactive)
REMARK    1  A    between atoms: C_1  and  O_2
REMARK    2  A    between atoms: O_2  and  C_3
REMARK    3  A    between atoms: C_5  and  C_6
REMARK    4  A    between atoms: C_6  and  C_7
REMARK    5  A    between atoms: C_7  and  N_8
REMARK    6  A    between atoms: N_8  and  C_9
REMARK    7  A    between atoms: C_12  and  C_13
REMARK    8  A    between atoms: C_19  and  C_20
REMARK                            x       y       z     vdW  Elec       q    Type
REMARK                         _______ _______ _______ _____ _____    ______ ____
ROOT
ATOM      1  C   UNL     1      49.825   8.819  12.136  0.00  0.00    +0.000 A 
ATOM      2  C   UNL     1      49.909   9.589  13.300  0.00  0.00    +0.000 A 
ATOM      3  C   UNL     1      48.951   9.452  14.314  0.00  0.00    +0.000 A 
ATOM      4  C   UNL     1      47.932   8.500  14.135  0.00  0.00    +0.000 A 
ATOM      5  C   UNL     1      47.788   7.750  12.959  0.00  0.00    +0.000 A 
ATOM      6  C   UNL     1      48.775   7.908  11.979  0.00  0.00    +0.000 A 
ENDROOT
BRANCH   5   7
ATOM      7  C   UNL     1      46.583   6.923  12.735  0.00  0.00    +0.000 A 
ATOM      8  C   UNL     1      46.426   5.691  13.413  0.00  0.00    +0.000 A 
ATOM      9  C   UNL     1      45.261   4.932  13.292  0.00  0.00    +0.000 A 
ATOM     10  C   UNL     1      44.232   5.399  12.495  0.00  0.00    +0.000 A 
ATOM     11  F   UNL     1      43.097   4.696  12.407  0.00  0.00    +0.000 F 
ATOM     12  C   UNL     1      44.352   6.595  11.798  0.00  0.00    +0.000 A 
ATOM     13  C   UNL     1      45.528   7.347  11.910  0.00  0.00    +0.000 A 
ENDBRANCH   5   7
BRANCH   1  15
ATOM     14  C   UNL     1      51.986   8.389  11.243  0.00  0.00    +0.000 C 
ATOM     15  O   UNL     1      50.667   8.881  11.061  0.00  0.00    +0.000 OA
ENDBRANCH   1  15
BRANCH   3  16
ATOM     16  C   UNL     1      49.000  10.366  15.531  0.00  0.00    +0.000 C 
BRANCH  16  17
ATOM     17  C   UNL     1      48.232   9.815  16.738  0.00  0.00    +0.000 C 
BRANCH  17  18
ATOM     18  N   UNL     1      49.034   8.958  17.611  0.00  0.00    +0.000 N 
ATOM     19  H   UNL     1      49.127   9.338  18.552  0.00  0.00    +0.000 HD
BRANCH  18  20
ATOM     20  C   UNL     1      48.628   7.604  17.642  0.00  0.00    +0.000 A 
ATOM     21  C   UNL     1      49.140   6.632  16.773  0.00  0.00    +0.000 A 
ATOM     22  C   UNL     1      48.764   5.297  16.888  0.00  0.00    +0.000 A 
ATOM     23  C   UNL     1      47.899   4.947  17.908  0.00  0.00    +0.000 A 
ATOM     24  N   UNL     1      47.390   5.836  18.806  0.00  0.00    +0.000 NA
ATOM     25  C   UNL     1      47.784   7.127  18.653  0.00  0.00    +0.000 A 
BRANCH  23  26
ATOM     26  C   UNL     1      47.515   3.512  18.073  0.00  0.00    +0.000 C 
ATOM     27  N   UNL     1      48.256   2.803  18.980  0.00  0.00    +0.000 N 
ATOM     28  O   UNL     1      46.602   2.990  17.441  0.00  0.00    +0.000 OA
ATOM     29  H   UNL     1      49.024   3.259  19.460  0.00  0.00    +0.000 HD
ATOM     30  H   UNL     1      48.077   1.819  19.107  0.00  0.00    +0.000 HD
ENDBRANCH  23  26
ENDBRANCH  18  20
ENDBRANCH  17  18
ENDBRANCH  16  17
ENDBRANCH   3  16
TORSDOF 7
ENDMDL
