MODEL 1
REMARK VINA RESULT:    -8.215      0.000      0.000
REMARK INTER + INTRA:         -12.075
REMARK INTER:                 -11.096
REMARK INTRA:                  -0.979
REMARK UNBOUND:                -0.979
REMARK  Name = 
REMARK  7 active torsions:
REMARK  status: ('A' for Active; 'I' for Inactive)
REMARK    1  A    between atoms: C_1  and  C_2
REMARK    2  A    between atoms: C_2  and  N_3
REMARK    3  A    between atoms: C_2  and  C_16
REMARK    4  A    between atoms: C_4  and  C_6
REMARK    5  A    between atoms: C_19  and  C_20
REMARK    6  A    between atoms: C_20  and  N_21
REMARK    7  A    between atoms: N_21  and  C_22
REMARK                            x       y       z     vdW  Elec       q    Type
REMARK                         _______ _______ _______ _____ _____    ______ ____
ROOT
ATOM      1  C   UNL     1      42.991   4.898  13.057  0.00  0.00    +0.000 C 
ATOM      2  C   UNL     1      44.394   4.310  12.867  0.00  0.00    +0.000 C 
ENDROOT
BRANCH   2   3
ATOM      3  C   UNL     1      44.859   4.336  11.416  0.00  0.00    +0.000 A 
ATOM      4  C   UNL     1      44.704   3.197  10.609  0.00  0.00    +0.000 A 
ATOM      5  C   UNL     1      45.112   3.198   9.265  0.00  0.00    +0.000 A 
ATOM      6  C   UNL     1      45.700   4.337   8.700  0.00  0.00    +0.000 A 
ATOM      7  C   UNL     1      45.838   5.479   9.498  0.00  0.00    +0.000 A 
ATOM      8  C   UNL     1      45.445   5.473  10.842  0.00  0.00    +0.000 A 
BRANCH   6   9
ATOM      9  C   UNL     1      46.237   4.333   7.286  0.00  0.00    +0.000 C 
BRANCH   9  10
ATOM     10  N   UNL     1      47.372   3.432   7.146  0.00  0.00    +0.000 N 
ATOM     11  H   UNL     1      48.267   3.917   7.116  0.00  0.00    +0.000 HD
BRANCH  10  12
ATOM     12  C   UNL     1      47.311   2.373   6.230  0.00  0.00    +0.000 A 
ATOM     13  C   UNL     1      47.044   2.529   4.868  0.00  0.00    +0.000 A 
ATOM     14  C   UNL     1      46.956   1.405   4.057  0.00  0.00    +0.000 A 
ATOM     15  N   UNL     1      47.079   0.142   4.504  0.00  0.00    +0.000 NA
ATOM     16  C   UNL     1      47.286  -0.002   5.828  0.00  0.00    +0.000 A 
ATOM     17  C   UNL     1      47.402   1.065   6.714  0.00  0.00    +0.000 A 
ENDBRANCH  10  12
ENDBRANCH   9  10
ENDBRANCH   6   9
ENDBRANCH   2   3
BRANCH   2  18
ATOM     18  N   UNL     1      45.361   4.967  13.735  0.00  0.00    +0.000 N 
ATOM     19  C   UNL     1      46.497   4.318  14.162  0.00  0.00    +0.000 C 
ATOM     20  O   UNL     1      46.759   3.169  13.816  0.00  0.00    +0.000 OA
ATOM     21  H   UNL     1      45.081   5.832  14.185  0.00  0.00    +0.000 HD
BRANCH  19  22
ATOM     22  C   UNL     1      47.432   5.078  15.004  0.00  0.00    +0.000 A 
ATOM     23  C   UNL     1      48.133   6.145  14.453  0.00  0.00    +0.000 A 
ATOM     24  S   UNL     1      49.181   6.920  15.552  0.00  0.00    +0.000 S 
ATOM     25  C   UNL     1      48.777   5.826  16.791  0.00  0.00    +0.000 A 
ATOM     26  N   UNL     1      49.375   5.896  18.009  0.00  0.00    +0.000 NA
ATOM     27  C   UNL     1      49.007   4.981  18.839  0.00  0.00    +0.000 A 
ATOM     28  N   UNL     1      48.077   4.013  18.567  0.00  0.00    +0.000 N 
ATOM     29  C   UNL     1      47.403   3.934  17.366  0.00  0.00    +0.000 A 
ATOM     30  O   UNL     1      46.515   3.110  17.182  0.00  0.00    +0.000 OA
ATOM     31  C   UNL     1      47.821   4.911  16.384  0.00  0.00    +0.000 A 
ATOM     32  H   UNL     1      47.812   3.340  19.274  0.00  0.00    +0.000 HD
ENDBRANCH  19  22
ENDBRANCH   2  18
TORSDOF 6
ENDMDL
MODEL 2
REMARK VINA RESULT:    -8.143      1.951      3.122
REMARK INTER + INTRA:         -11.978
REMARK INTER:                 -11.464
REMARK INTRA:                  -0.514
REMARK UNBOUND:                -0.979
REMARK  Name = 
REMARK  7 active torsions:
REMARK  status: ('A' for Active; 'I' for Inactive)
REMARK    1  A    between atoms: C_1  and  C_2
REMARK    2  A    between atoms: C_2  and  N_3
REMARK    3  A    between atoms: C_2  and  C_16
REMARK    4  A    between atoms: C_4  and  C_6
REMARK    5  A    between atoms: C_19  and  C_20
REMARK    6  A    between atoms: C_20  and  N_21
REMARK    7  A    between atoms: N_21  and  C_22
REMARK                            x       y       z     vdW  Elec       q    Type
REMARK                         _______ _______ _______ _____ _____    ______ ____
ROOT
ATOM      1  C   UNL     1      48.085   8.776  12.366  0.00  0.00    +0.000 C 
ATOM      2  C   UNL     1      46.907   8.153  13.125  0.00  0.00    +0.000 C 
ENDROOT
BRANCH   2   3
ATOM      3  C   UNL     1      46.142   7.126  12.299  0.00  0.00    +0.000 A 
ATOM      4  C   UNL     1      44.967   6.550  12.809  0.00  0.00    +0.000 A 
ATOM      5  C   UNL     1      44.235   5.612  12.062  0.00  0.00    +0.000 A 
ATOM      6  C   UNL     1      44.672   5.215  10.792  0.00  0.00    +0.000 A 
ATOM      7  C   UNL     1      45.832   5.803  10.274  0.00  0.00    +0.000 A 
ATOM      8  C   UNL     1      46.570   6.728  11.024  0.00  0.00    +0.000 A 
BRANCH   6   9
ATOM      9  C   UNL     1      43.958   4.136  10.009  0.00  0.00    +0.000 C 
BRANCH   9  10
ATOM     10  N   UNL     1      44.343   4.147   8.605  0.00  0.00    +0.000 N 
ATOM     11  H   UNL     1      43.551   4.238   7.973  0.00  0.00    +0.000 HD
BRANCH  10  12
ATOM     12  C   UNL     1      45.295   3.232   8.137  0.00  0.00    +0.000 A 
ATOM     13  C   UNL     1      45.377   1.903   8.560  0.00  0.00    +0.000 A 
ATOM     14  C   UNL     1      46.392   1.092   8.068  0.00  0.00    +0.000 A 
ATOM     15  N   UNL     1      47.349   1.513   7.221  0.00  0.00    +0.000 NA
ATOM     16  C   UNL     1      47.292   2.810   6.858  0.00  0.00    +0.000 A 
ATOM     17  C   UNL     1      46.305   3.691   7.288  0.00  0.00    +0.000 A 
ENDBRANCH  10  12
ENDBRANCH   9  10
ENDBRANCH   6   9
ENDBRANCH   2   3
BRANCH   2  18
ATOM     18  N   UNL     1      47.342   7.581  14.391  0.00  0.00    +0.000 N 
ATOM     19  C   UNL     1      48.415   6.721  14.459  0.00  0.00    +0.000 C 
ATOM     20  O   UNL     1      49.066   6.414  13.464  0.00  0.00    +0.000 OA
ATOM     21  H   UNL     1      46.716   7.662  15.186  0.00  0.00    +0.000 HD
BRANCH  19  22
ATOM     22  C   UNL     1      48.801   6.227  15.789  0.00  0.00    +0.000 A 
ATOM     23  C   UNL     1      49.811   6.876  16.490  0.00  0.00    +0.000 A 
ATOM     24  S   UNL     1      50.148   6.181  18.010  0.00  0.00    +0.000 S 
ATOM     25  C   UNL     1      48.993   4.956  17.765  0.00  0.00    +0.000 A 
ATOM     26  N   UNL     1      48.811   3.972  18.685  0.00  0.00    +0.000 NA
ATOM     27  C   UNL     1      47.936   3.086  18.354  0.00  0.00    +0.000 A 
ATOM     28  N   UNL     1      47.210   3.106  17.192  0.00  0.00    +0.000 N 
ATOM     29  C   UNL     1      47.319   4.111  16.254  0.00  0.00    +0.000 A 
ATOM     30  O   UNL     1      46.596   4.148  15.266  0.00  0.00    +0.000 OA
ATOM     31  C   UNL     1      48.328   5.103  16.561  0.00  0.00    +0.000 A 
ATOM     32  H   UNL     1      46.517   2.393  17.006  0.00  0.00    +0.000 HD
ENDBRANCH  19  22
ENDBRANCH   2  18
TORSDOF 6
ENDMDL
MODEL 3
REMARK VINA RESULT:    -7.560      2.544      3.706
REMARK INTER + INTRA:         -11.190
REMARK INTER:                 -10.367
REMARK INTRA:                  -0.824
REMARK UNBOUND:                -0.979
REMARK  Name = 
REMARK  7 active torsions:
REMARK  status: ('A' for Active; 'I' for Inactive)
REMARK    1  A    between atoms: C_1  and  C_2
REMARK    2  A    between atoms: C_2  and  N_3
REMARK    3  A    between atoms: C_2  and  C_16
REMARK    4  A    between atoms: C_4  and  C_6
REMARK    5  A    between atoms: C_19  and  C_20
REMARK    6  A    between atoms: C_20  and  N_21
REMARK    7  A    between atoms: N_21  and  C_22
REMARK                            x       y       z     vdW  Elec       q    Type
REMARK                         _______ _______ _______ _____ _____    ______ ____
ROOT
ATOM      1  C   UNL     1      49.229   6.925  12.971  0.00  0.00    +0.000 C 
ATOM      2  C   UNL     1      47.875   6.848  13.684  0.00  0.00    +0.000 C 
ENDROOT
BRANCH   2   3
ATOM      3  C   UNL     1      46.781   6.228  12.822  0.00  0.00    +0.000 A 
ATOM      4  C   UNL     1      46.317   4.932  13.102  0.00  0.00    +0.000 A 
ATOM      5  C   UNL     1      45.301   4.343  12.332  0.00  0.00    +0.000 A 
ATOM      6  C   UNL     1      44.736   5.031  11.251  0.00  0.00    +0.000 A 
ATOM      7  C   UNL     1      45.185   6.330  10.982  0.00  0.00    +0.000 A 
ATOM      8  C   UNL     1      46.208   6.912  11.741  0.00  0.00    +0.000 A 
BRANCH   6   9
ATOM      9  C   UNL     1      43.712   4.383  10.346  0.00  0.00    +0.000 C 
BRANCH   9  10
ATOM     10  N   UNL     1      44.123   4.432   8.950  0.00  0.00    +0.000 N 
ATOM     11  H   UNL     1      43.339   4.500   8.304  0.00  0.00    +0.000 HD
BRANCH  10  12
ATOM     12  C   UNL     1      45.119   3.563   8.486  0.00  0.00    +0.000 A 
ATOM     13  C   UNL     1      46.129   3.934   7.596  0.00  0.00    +0.000 A 
ATOM     14  C   UNL     1      47.039   2.979   7.160  0.00  0.00    +0.000 A 
ATOM     15  N   UNL     1      46.997   1.681   7.514  0.00  0.00    +0.000 NA
ATOM     16  C   UNL     1      45.988   1.322   8.333  0.00  0.00    +0.000 A 
ATOM     17  C   UNL     1      45.041   2.211   8.830  0.00  0.00    +0.000 A 
ENDBRANCH  10  12
ENDBRANCH   9  10
ENDBRANCH   6   9
ENDBRANCH   2   3
BRANCH   2  18
ATOM     18  N   UNL     1      47.990   6.153  14.958  0.00  0.00    +0.000 N 
ATOM     19  C   UNL     1      48.718   6.681  16.000  0.00  0.00    +0.000 C 
ATOM     20  O   UNL     1      49.284   7.767  15.912  0.00  0.00    +0.000 OA
ATOM     21  H   UNL     1      47.699   5.181  14.994  0.00  0.00    +0.000 HD
BRANCH  19  22
ATOM     22  C   UNL     1      48.743   5.922  17.259  0.00  0.00    +0.000 A 
ATOM     23  C   UNL     1      49.189   4.605  17.252  0.00  0.00    +0.000 A 
ATOM     24  S   UNL     1      49.151   3.859  18.784  0.00  0.00    +0.000 S 
ATOM     25  C   UNL     1      48.487   5.250  19.504  0.00  0.00    +0.000 A 
ATOM     26  N   UNL     1      48.152   5.264  20.821  0.00  0.00    +0.000 NA
ATOM     27  C   UNL     1      47.620   6.366  21.225  0.00  0.00    +0.000 A 
ATOM     28  N   UNL     1      47.411   7.466  20.435  0.00  0.00    +0.000 N 
ATOM     29  C   UNL     1      47.784   7.519  19.108  0.00  0.00    +0.000 A 
ATOM     30  O   UNL     1      47.663   8.544  18.448  0.00  0.00    +0.000 OA
ATOM     31  C   UNL     1      48.340   6.285  18.596  0.00  0.00    +0.000 A 
ATOM     32  H   UNL     1      47.014   8.311  20.822  0.00  0.00    +0.000 HD
ENDBRANCH  19  22
ENDBRANCH   2  18
TORSDOF 6
ENDMDL
MODEL 4
REMARK VINA RESULT:    -7.506      3.412      4.788
REMARK INTER + INTRA:         -11.117
REMARK INTER:                  -9.778
REMARK INTRA:                  -1.339
REMARK UNBOUND:                -0.979
REMARK  Name = 
REMARK  7 active torsions:
REMARK  status: ('A' for Active; 'I' for Inactive)
REMARK    1  A    between atoms: C_1  and  C_2
REMARK    2  A    between atoms: C_2  and  N_3
REMARK    3  A    between atoms: C_2  and  C_16
REMARK    4  A    between atoms: C_4  and  C_6
REMARK    5  A    between atoms: C_19  and  C_20
REMARK    6  A    between atoms: C_20  and  N_21
REMARK    7  A    between atoms: N_21  and  C_22
REMARK                            x       y       z     vdW  Elec       q    Type
REMARK                         _______ _______ _______ _____ _____    ______ ____
ROOT
ATOM      1  C   UNL     1      47.282   4.540  15.674  0.00  0.00    +0.000 C 
ATOM      2  C   UNL     1      47.673   5.298  14.399  0.00  0.00    +0.000 C 
ENDROOT
BRANCH   2   3
ATOM      3  C   UNL     1      46.707   5.059  13.245  0.00  0.00    +0.000 A 
ATOM      4  C   UNL     1      45.980   3.859  13.174  0.00  0.00    +0.000 A 
ATOM      5  C   UNL     1      45.074   3.620  12.128  0.00  0.00    +0.000 A 
ATOM      6  C   UNL     1      44.885   4.571  11.117  0.00  0.00    +0.000 A 
ATOM      7  C   UNL     1      45.595   5.776  11.197  0.00  0.00    +0.000 A 
ATOM      8  C   UNL     1      46.509   6.008  12.232  0.00  0.00    +0.000 A 
BRANCH   6   9
ATOM      9  C   UNL     1      43.991   4.298   9.929  0.00  0.00    +0.000 C 
BRANCH   9  10
ATOM     10  N   UNL     1      44.701   4.477   8.671  0.00  0.00    +0.000 N 
ATOM     11  H   UNL     1      44.123   4.885   7.939  0.00  0.00    +0.000 HD
BRANCH  10  12
ATOM     12  C   UNL     1      45.528   3.454   8.186  0.00  0.00    +0.000 A 
ATOM     13  C   UNL     1      45.435   2.118   8.583  0.00  0.00    +0.000 A 
ATOM     14  C   UNL     1      46.339   1.192   8.078  0.00  0.00    +0.000 A 
ATOM     15  N   UNL     1      47.346   1.502   7.241  0.00  0.00    +0.000 NA
ATOM     16  C   UNL     1      47.459   2.802   6.904  0.00  0.00    +0.000 A 
ATOM     17  C   UNL     1      46.593   3.795   7.349  0.00  0.00    +0.000 A 
ENDBRANCH  10  12
ENDBRANCH   9  10
ENDBRANCH   6   9
ENDBRANCH   2   3
BRANCH   2  18
ATOM     18  N   UNL     1      47.830   6.721  14.661  0.00  0.00    +0.000 N 
ATOM     19  C   UNL     1      49.009   7.233  15.153  0.00  0.00    +0.000 C 
ATOM     20  O   UNL     1      49.986   6.522  15.373  0.00  0.00    +0.000 OA
ATOM     21  H   UNL     1      46.993   7.295  14.672  0.00  0.00    +0.000 HD
BRANCH  19  22
ATOM     22  C   UNL     1      49.084   8.689  15.348  0.00  0.00    +0.000 A 
ATOM     23  C   UNL     1      49.283   9.195  16.628  0.00  0.00    +0.000 A 
ATOM     24  S   UNL     1      49.339  10.898  16.690  0.00  0.00    +0.000 S 
ATOM     25  C   UNL     1      49.045  11.023  15.019  0.00  0.00    +0.000 A 
ATOM     26  N   UNL     1      48.915  12.236  14.420  0.00  0.00    +0.000 NA
ATOM     27  C   UNL     1      48.652  12.184  13.160  0.00  0.00    +0.000 A 
ATOM     28  N   UNL     1      48.528  11.026  12.438  0.00  0.00    +0.000 N 
ATOM     29  C   UNL     1      48.705   9.775  12.989  0.00  0.00    +0.000 A 
ATOM     30  O   UNL     1      48.673   8.761  12.301  0.00  0.00    +0.000 OA
ATOM     31  C   UNL     1      48.952   9.781  14.415  0.00  0.00    +0.000 A 
ATOM     32  H   UNL     1      48.348  11.057  11.443  0.00  0.00    +0.000 HD
ENDBRANCH  19  22
ENDBRANCH   2  18
TORSDOF 6
ENDMDL
MODEL 5
REMARK VINA RESULT:    -7.427      2.479      3.813
REMARK INTER + INTRA:         -11.012
REMARK INTER:                  -9.832
REMARK INTRA:                  -1.179
REMARK UNBOUND:                -0.979
REMARK  Name = 
REMARK  7 active torsions:
REMARK  status: ('A' for Active; 'I' for Inactive)
REMARK    1  A    between atoms: C_1  and  C_2
REMARK    2  A    between atoms: C_2  and  N_3
REMARK    3  A    between atoms: C_2  and  C_16
REMARK    4  A    between atoms: C_4  and  C_6
REMARK    5  A    between atoms: C_19  and  C_20
REMARK    6  A    between atoms: C_20  and  N_21
REMARK    7  A    between atoms: N_21  and  C_22
REMARK                            x       y       z     vdW  Elec       q    Type
REMARK                         _______ _______ _______ _____ _____    ______ ____
ROOT
ATOM      1  C   UNL     1      49.502   7.257  12.943  0.00  0.00    +0.000 C 
ATOM      2  C   UNL     1      48.095   7.494  13.502  0.00  0.00    +0.000 C 
ENDROOT
BRANCH   2   3
ATOM      3  C   UNL     1      47.020   6.705  12.765  0.00  0.00    +0.000 A 
ATOM      4  C   UNL     1      46.266   7.322  11.752  0.00  0.00    +0.000 A 
ATOM      5  C   UNL     1      45.279   6.613  11.048  0.00  0.00    +0.000 A 
ATOM      6  C   UNL     1      45.010   5.273  11.353  0.00  0.00    +0.000 A 
ATOM      7  C   UNL     1      45.773   4.651  12.349  0.00  0.00    +0.000 A 
ATOM      8  C   UNL     1      46.747   5.362  13.061  0.00  0.00    +0.000 A 
BRANCH   6   9
ATOM      9  C   UNL     1      43.887   4.517  10.679  0.00  0.00    +0.000 C 
BRANCH   9  10
ATOM     10  N   UNL     1      44.059   4.475   9.234  0.00  0.00    +0.000 N 
ATOM     11  H   UNL     1      43.179   4.416   8.727  0.00  0.00    +0.000 HD
BRANCH  10  12
ATOM     12  C   UNL     1      45.051   3.659   8.674  0.00  0.00    +0.000 A 
ATOM     13  C   UNL     1      46.013   4.108   7.765  0.00  0.00    +0.000 A 
ATOM     14  C   UNL     1      46.920   3.202   7.231  0.00  0.00    +0.000 A 
ATOM     15  N   UNL     1      46.920   1.884   7.504  0.00  0.00    +0.000 NA
ATOM     16  C   UNL     1      45.957   1.452   8.342  0.00  0.00    +0.000 A 
ATOM     17  C   UNL     1      45.015   2.287   8.935  0.00  0.00    +0.000 A 
ENDBRANCH  10  12
ENDBRANCH   9  10
ENDBRANCH   6   9
ENDBRANCH   2   3
BRANCH   2  18
ATOM     18  N   UNL     1      48.046   7.230  14.933  0.00  0.00    +0.000 N 
ATOM     19  C   UNL     1      48.510   8.148  15.848  0.00  0.00    +0.000 C 
ATOM     20  O   UNL     1      48.965   9.235  15.504  0.00  0.00    +0.000 OA
ATOM     21  H   UNL     1      47.858   6.278  15.231  0.00  0.00    +0.000 HD
BRANCH  19  22
ATOM     22  C   UNL     1      48.382   7.805  17.272  0.00  0.00    +0.000 A 
ATOM     23  C   UNL     1      48.049   8.800  18.185  0.00  0.00    +0.000 A 
ATOM     24  S   UNL     1      47.946   8.248  19.795  0.00  0.00    +0.000 S 
ATOM     25  C   UNL     1      48.395   6.671  19.339  0.00  0.00    +0.000 A 
ATOM     26  N   UNL     1      48.551   5.692  20.269  0.00  0.00    +0.000 NA
ATOM     27  C   UNL     1      48.935   4.558  19.791  0.00  0.00    +0.000 A 
ATOM     28  N   UNL     1      49.155   4.308  18.462  0.00  0.00    +0.000 N 
ATOM     29  C   UNL     1      48.957   5.252  17.477  0.00  0.00    +0.000 A 
ATOM     30  O   UNL     1      49.080   4.976  16.289  0.00  0.00    +0.000 OA
ATOM     31  C   UNL     1      48.575   6.558  17.971  0.00  0.00    +0.000 A 
ATOM     32  H   UNL     1      49.428   3.386  18.150  0.00  0.00    +0.000 HD
ENDBRANCH  19  22
ENDBRANCH   2  18
TORSDOF 6
ENDMDL
MODEL 6
REMARK VINA RESULT:    -7.326      2.733      4.002
REMARK INTER + INTRA:         -10.875
REMARK INTER:                  -9.690
REMARK INTRA:                  -1.185
REMARK UNBOUND:                -0.979
REMARK  Name = 
REMARK  7 active torsions:
REMARK  status: ('A' for Active; 'I' for Inactive)
REMARK    1  A    between atoms: C_1  and  C_2
REMARK    2  A    between atoms: C_2  and  N_3
REMARK    3  A    between atoms: C_2  and  C_16
REMARK    4  A    between atoms: C_4  and  C_6
REMARK    5  A    between atoms: C_19  and  C_20
REMARK    6  A    between atoms: C_20  and  N_21
REMARK    7  A    between atoms: N_21  and  C_22
REMARK                            x       y       z     vdW  Elec       q    Type
REMARK                         _______ _______ _______ _____ _____    ______ ____
ROOT
ATOM      1  C   UNL     1      49.174   7.653  12.630  0.00  0.00    +0.000 C 
ATOM      2  C   UNL     1      48.039   7.186  13.549  0.00  0.00    +0.000 C 
ENDROOT
BRANCH   2   3
ATOM      3  C   UNL     1      46.923   6.469  12.799  0.00  0.00    +0.000 A 
ATOM      4  C   UNL     1      46.500   5.197  13.219  0.00  0.00    +0.000 A 
ATOM      5  C   UNL     1      45.463   4.520  12.555  0.00  0.00    +0.000 A 
ATOM      6  C   UNL     1      44.836   5.095  11.442  0.00  0.00    +0.000 A 
ATOM      7  C   UNL     1      45.244   6.371  11.034  0.00  0.00    +0.000 A 
ATOM      8  C   UNL     1      46.287   7.040  11.688  0.00  0.00    +0.000 A 
BRANCH   6   9
ATOM      9  C   UNL     1      43.788   4.348  10.649  0.00  0.00    +0.000 C 
BRANCH   9  10
ATOM     10  N   UNL     1      44.057   4.400   9.220  0.00  0.00    +0.000 N 
ATOM     11  H   UNL     1      43.213   4.471   8.655  0.00  0.00    +0.000 HD
BRANCH  10  12
ATOM     12  C   UNL     1      45.002   3.531   8.656  0.00  0.00    +0.000 A 
ATOM     13  C   UNL     1      45.919   3.905   7.672  0.00  0.00    +0.000 A 
ATOM     14  C   UNL     1      46.780   2.950   7.145  0.00  0.00    +0.000 A 
ATOM     15  N   UNL     1      46.771   1.651   7.496  0.00  0.00    +0.000 NA
ATOM     16  C   UNL     1      45.848   1.290   8.410  0.00  0.00    +0.000 A 
ATOM     17  C   UNL     1      44.956   2.179   9.002  0.00  0.00    +0.000 A 
ENDBRANCH  10  12
ENDBRANCH   9  10
ENDBRANCH   6   9
ENDBRANCH   2   3
BRANCH   2  18
ATOM     18  N   UNL     1      48.548   6.362  14.636  0.00  0.00    +0.000 N 
ATOM     19  C   UNL     1      48.842   6.903  15.868  0.00  0.00    +0.000 C 
ATOM     20  O   UNL     1      48.671   8.094  16.113  0.00  0.00    +0.000 OA
ATOM     21  H   UNL     1      48.877   5.430  14.409  0.00  0.00    +0.000 HD
BRANCH  19  22
ATOM     22  C   UNL     1      49.314   5.983  16.913  0.00  0.00    +0.000 A 
ATOM     23  C   UNL     1      48.384   5.300  17.689  0.00  0.00    +0.000 A 
ATOM     24  S   UNL     1      49.085   4.278  18.861  0.00  0.00    +0.000 S 
ATOM     25  C   UNL     1      50.656   4.752  18.410  0.00  0.00    +0.000 A 
ATOM     26  N   UNL     1      51.746   4.279  19.071  0.00  0.00    +0.000 NA
ATOM     27  C   UNL     1      52.870   4.752  18.654  0.00  0.00    +0.000 A 
ATOM     28  N   UNL     1      53.005   5.640  17.620  0.00  0.00    +0.000 N 
ATOM     29  C   UNL     1      51.935   6.106  16.885  0.00  0.00    +0.000 A 
ATOM     30  O   UNL     1      52.094   6.833  15.911  0.00  0.00    +0.000 OA
ATOM     31  C   UNL     1      50.646   5.641  17.349  0.00  0.00    +0.000 A 
ATOM     32  H   UNL     1      53.920   5.951  17.325  0.00  0.00    +0.000 HD
ENDBRANCH  19  22
ENDBRANCH   2  18
TORSDOF 6
ENDMDL
MODEL 7
REMARK VINA RESULT:    -7.317      2.834      3.733
REMARK INTER + INTRA:         -10.862
REMARK INTER:                  -9.817
REMARK INTRA:                  -1.045
REMARK UNBOUND:                -0.979
REMARK  Name = 
REMARK  7 active torsions:
REMARK  status: ('A' for Active; 'I' for Inactive)
REMARK    1  A    between atoms: C_1  and  C_2
REMARK    2  A    between atoms: C_2  and  N_3
REMARK    3  A    between atoms: C_2  and  C_16
REMARK    4  A    between atoms: C_4  and  C_6
REMARK    5  A    between atoms: C_19  and  C_20
REMARK    6  A    between atoms: C_20  and  N_21
REMARK    7  A    between atoms: N_21  and  C_22
REMARK                            x       y       z     vdW  Elec       q    Type
REMARK                         _______ _______ _______ _____ _____    ______ ____
ROOT
ATOM      1  C   UNL     1      47.379   3.959  15.731  0.00  0.00    +0.000 C 
ATOM      2  C   UNL     1      47.691   4.951  14.604  0.00  0.00    +0.000 C 
ENDROOT
BRANCH   2   3
ATOM      3  C   UNL     1      46.752   4.813  13.412  0.00  0.00    +0.000 A 
ATOM      4  C   UNL     1      46.005   3.635  13.239  0.00  0.00    +0.000 A 
ATOM      5  C   UNL     1      45.122   3.487  12.157  0.00  0.00    +0.000 A 
ATOM      6  C   UNL     1      44.978   4.509  11.210  0.00  0.00    +0.000 A 
ATOM      7  C   UNL     1      45.708   5.691  11.391  0.00  0.00    +0.000 A 
ATOM      8  C   UNL     1      46.599   5.833  12.462  0.00  0.00    +0.000 A 
BRANCH   6   9
ATOM      9  C   UNL     1      44.111   4.337   9.983  0.00  0.00    +0.000 C 
BRANCH   9  10
ATOM     10  N   UNL     1      44.858   4.586   8.759  0.00  0.00    +0.000 N 
ATOM     11  H   UNL     1      44.301   5.030   8.032  0.00  0.00    +0.000 HD
BRANCH  10  12
ATOM     12  C   UNL     1      45.706   3.594   8.247  0.00  0.00    +0.000 A 
ATOM     13  C   UNL     1      46.697   3.829   7.291  0.00  0.00    +0.000 A 
ATOM     14  C   UNL     1      47.449   2.764   6.813  0.00  0.00    +0.000 A 
ATOM     15  N   UNL     1      47.265   1.484   7.186  0.00  0.00    +0.000 NA
ATOM     16  C   UNL     1      46.273   1.260   8.070  0.00  0.00    +0.000 A 
ATOM     17  C   UNL     1      45.478   2.265   8.612  0.00  0.00    +0.000 A 
ENDBRANCH  10  12
ENDBRANCH   9  10
ENDBRANCH   6   9
ENDBRANCH   2   3
BRANCH   2  18
ATOM     18  N   UNL     1      47.706   6.319  15.098  0.00  0.00    +0.000 N 
ATOM     19  C   UNL     1      48.843   6.871  15.645  0.00  0.00    +0.000 C 
ATOM     20  O   UNL     1      49.897   6.246  15.723  0.00  0.00    +0.000 OA
ATOM     21  H   UNL     1      46.814   6.787  15.222  0.00  0.00    +0.000 HD
BRANCH  19  22
ATOM     22  C   UNL     1      48.770   8.274  16.081  0.00  0.00    +0.000 A 
ATOM     23  C   UNL     1      49.205   9.277  15.222  0.00  0.00    +0.000 A 
ATOM     24  S   UNL     1      49.063  10.847  15.872  0.00  0.00    +0.000 S 
ATOM     25  C   UNL     1      48.465  10.241  17.345  0.00  0.00    +0.000 A 
ATOM     26  N   UNL     1      48.186  11.073  18.382  0.00  0.00    +0.000 NA
ATOM     27  C   UNL     1      47.781  10.477  19.451  0.00  0.00    +0.000 A 
ATOM     28  N   UNL     1      47.609   9.123  19.570  0.00  0.00    +0.000 N 
ATOM     29  C   UNL     1      47.827   8.244  18.530  0.00  0.00    +0.000 A 
ATOM     30  O   UNL     1      47.583   7.048  18.639  0.00  0.00    +0.000 OA
ATOM     31  C   UNL     1      48.332   8.863  17.323  0.00  0.00    +0.000 A 
ATOM     32  H   UNL     1      47.261   8.722  20.430  0.00  0.00    +0.000 HD
ENDBRANCH  19  22
ENDBRANCH   2  18
TORSDOF 6
ENDMDL
MODEL 8
REMARK VINA RESULT:    -7.035      2.681      4.290
REMARK INTER + INTRA:         -10.481
REMARK INTER:                  -9.139
REMARK INTRA:                  -1.342
REMARK UNBOUND:                -0.979
REMARK  Name = 
REMARK  7 active torsions:
REMARK  status: ('A' for Active; 'I' for Inactive)
REMARK    1  A    between atoms: C_1  and  C_2
REMARK    2  A    between atoms: C_2  and  N_3
REMARK    3  A    between atoms: C_2  and  C_16
REMARK    4  A    between atoms: C_4  and  C_6
REMARK    5  A    between atoms: C_19  and  C_20
REMARK    6  A    between atoms: C_20  and  N_21
REMARK    7  A    between atoms: N_21  and  C_22
REMARK                            x       y       z     vdW  Elec       q    Type
REMARK                         _______ _______ _______ _____ _____    ______ ____
ROOT
ATOM      1  C   UNL     1      49.877   8.108  11.483  0.00  0.00    +0.000 C 
ATOM      2  C   UNL     1      49.059   7.812  12.745  0.00  0.00    +0.000 C 
ENDROOT
BRANCH   2   3
ATOM      3  C   UNL     1      47.776   7.042  12.456  0.00  0.00    +0.000 A 
ATOM      4  C   UNL     1      47.519   5.831  13.121  0.00  0.00    +0.000 A 
ATOM      5  C   UNL     1      46.338   5.109  12.883  0.00  0.00    +0.000 A 
ATOM      6  C   UNL     1      45.392   5.573  11.961  0.00  0.00    +0.000 A 
ATOM      7  C   UNL     1      45.638   6.790  11.312  0.00  0.00    +0.000 A 
ATOM      8  C   UNL     1      46.822   7.503  11.538  0.00  0.00    +0.000 A 
BRANCH   6   9
ATOM      9  C   UNL     1      44.161   4.767  11.614  0.00  0.00    +0.000 C 
BRANCH   9  10
ATOM     10  N   UNL     1      43.925   4.740  10.177  0.00  0.00    +0.000 N 
ATOM     11  H   UNL     1      42.937   4.760   9.933  0.00  0.00    +0.000 HD
BRANCH  10  12
ATOM     12  C   UNL     1      44.654   3.857   9.368  0.00  0.00    +0.000 A 
ATOM     13  C   UNL     1      44.704   2.475   9.565  0.00  0.00    +0.000 A 
ATOM     14  C   UNL     1      45.500   1.697   8.734  0.00  0.00    +0.000 A 
ATOM     15  N   UNL     1      46.273   2.193   7.750  0.00  0.00    +0.000 NA
ATOM     16  C   UNL     1      46.257   3.532   7.601  0.00  0.00    +0.000 A 
ATOM     17  C   UNL     1      45.482   4.388   8.376  0.00  0.00    +0.000 A 
ENDBRANCH  10  12
ENDBRANCH   9  10
ENDBRANCH   6   9
ENDBRANCH   2   3
BRANCH   2  18
ATOM     18  N   UNL     1      49.864   7.124  13.744  0.00  0.00    +0.000 N 
ATOM     19  C   UNL     1      50.128   7.695  14.969  0.00  0.00    +0.000 C 
ATOM     20  O   UNL     1      49.681   8.795  15.284  0.00  0.00    +0.000 OA
ATOM     21  H   UNL     1      50.398   6.314  13.446  0.00  0.00    +0.000 HD
BRANCH  19  22
ATOM     22  C   UNL     1      50.918   6.905  15.925  0.00  0.00    +0.000 A 
ATOM     23  C   UNL     1      52.285   7.137  16.034  0.00  0.00    +0.000 A 
ATOM     24  S   UNL     1      53.061   6.140  17.178  0.00  0.00    +0.000 S 
ATOM     25  C   UNL     1      51.611   5.324  17.531  0.00  0.00    +0.000 A 
ATOM     26  N   UNL     1      51.586   4.288  18.411  0.00  0.00    +0.000 NA
ATOM     27  C   UNL     1      50.431   3.734  18.552  0.00  0.00    +0.000 A 
ATOM     28  N   UNL     1      49.291   4.137  17.907  0.00  0.00    +0.000 N 
ATOM     29  C   UNL     1      49.254   5.215  17.049  0.00  0.00    +0.000 A 
ATOM     30  O   UNL     1      48.203   5.605  16.553  0.00  0.00    +0.000 OA
ATOM     31  C   UNL     1      50.540   5.838  16.820  0.00  0.00    +0.000 A 
ATOM     32  H   UNL     1      48.409   3.675  18.085  0.00  0.00    +0.000 HD
ENDBRANCH  19  22
ENDBRANCH   2  18
TORSDOF 6
ENDMDL
MODEL 9
REMARK VINA RESULT:    -7.008      3.180      4.948
REMARK INTER + INTRA:         -10.445
REMARK INTER:                  -9.178
REMARK INTRA:                  -1.266
REMARK UNBOUND:                -0.979
REMARK  Name = 
REMARK  7 active torsions:
REMARK  status: ('A' for Active; 'I' for Inactive)
REMARK    1  A    between atoms: C_1  and  C_2
REMARK    2  A    between atoms: C_2  and  N_3
REMARK    3  A    between atoms: C_2  and  C_16
REMARK    4  A    between atoms: C_4  and  C_6
REMARK    5  A    between atoms: C_19  and  C_20
REMARK    6  A    between atoms: C_20  and  N_21
REMARK    7  A    between atoms: N_21  and  C_22
REMARK                            x       y       z     vdW  Elec       q    Type
REMARK                         _______ _______ _______ _____ _____    ______ ____
ROOT
ATOM      1  C   UNL     1      47.570   3.585  16.504  0.00  0.00    +0.000 C 
ATOM      2  C   UNL     1      48.027   4.946  15.967  0.00  0.00    +0.000 C 
ENDROOT
BRANCH   2   3
ATOM      3  C   UNL     1      47.409   5.293  14.618  0.00  0.00    +0.000 A 
ATOM      4  C   UNL     1      46.331   4.538  14.125  0.00  0.00    +0.000 A 
ATOM      5  C   UNL     1      45.734   4.844  12.891  0.00  0.00    +0.000 A 
ATOM      6  C   UNL     1      46.213   5.905  12.112  0.00  0.00    +0.000 A 
ATOM      7  C   UNL     1      47.275   6.670  12.611  0.00  0.00    +0.000 A 
ATOM      8  C   UNL     1      47.879   6.355  13.834  0.00  0.00    +0.000 A 
BRANCH   6   9
ATOM      9  C   UNL     1      45.654   6.194  10.737  0.00  0.00    +0.000 C 
BRANCH   9  10
ATOM     10  N   UNL     1      44.721   5.162  10.310  0.00  0.00    +0.000 N 
ATOM     11  H   UNL     1      44.163   4.785  11.073  0.00  0.00    +0.000 HD
BRANCH  10  12
ATOM     12  C   UNL     1      45.144   4.166   9.419  0.00  0.00    +0.000 A 
ATOM     13  C   UNL     1      44.956   2.798   9.628  0.00  0.00    +0.000 A 
ATOM     14  C   UNL     1      45.460   1.892   8.704  0.00  0.00    +0.000 A 
ATOM     15  N   UNL     1      46.164   2.242   7.611  0.00  0.00    +0.000 NA
ATOM     16  C   UNL     1      46.384   3.561   7.445  0.00  0.00    +0.000 A 
ATOM     17  C   UNL     1      45.907   4.540   8.310  0.00  0.00    +0.000 A 
ENDBRANCH  10  12
ENDBRANCH   9  10
ENDBRANCH   6   9
ENDBRANCH   2   3
BRANCH   2  18
ATOM     18  N   UNL     1      47.783   6.003  16.938  0.00  0.00    +0.000 N 
ATOM     19  C   UNL     1      48.754   6.390  17.835  0.00  0.00    +0.000 C 
ATOM     20  O   UNL     1      49.871   5.880  17.845  0.00  0.00    +0.000 OA
ATOM     21  H   UNL     1      46.824   6.303  17.079  0.00  0.00    +0.000 HD
BRANCH  19  22
ATOM     22  C   UNL     1      48.425   7.492  18.750  0.00  0.00    +0.000 A 
ATOM     23  C   UNL     1      48.340   7.242  20.115  0.00  0.00    +0.000 A 
ATOM     24  S   UNL     1      47.944   8.617  21.042  0.00  0.00    +0.000 S 
ATOM     25  C   UNL     1      47.819   9.586  19.649  0.00  0.00    +0.000 A 
ATOM     26  N   UNL     1      47.448  10.891  19.735  0.00  0.00    +0.000 NA
ATOM     27  C   UNL     1      47.352  11.495  18.601  0.00  0.00    +0.000 A 
ATOM     28  N   UNL     1      47.616  10.917  17.386  0.00  0.00    +0.000 N 
ATOM     29  C   UNL     1      48.048   9.614  17.252  0.00  0.00    +0.000 A 
ATOM     30  O   UNL     1      48.358   9.150  16.161  0.00  0.00    +0.000 OA
ATOM     31  C   UNL     1      48.122   8.880  18.497  0.00  0.00    +0.000 A 
ATOM     32  H   UNL     1      47.548  11.457  16.534  0.00  0.00    +0.000 HD
ENDBRANCH  19  22
ENDBRANCH   2  18
TORSDOF 6
ENDMDL
