MODEL 1
REMARK VINA RESULT:    -7.651      0.000      0.000
REMARK INTER + INTRA:          -9.769
REMARK INTER:                  -9.440
REMARK INTRA:                  -0.328
REMARK UNBOUND:                -0.328
REMARK  Name = 
REMARK  4 active torsions:
REMARK  status: ('A' for Active; 'I' for Inactive)
REMARK    1  A    between atoms: C_2  and  C_4
REMARK    2  A    between atoms: C_8  and  C_9
REMARK    3  A    between atoms: C_9  and  N_10
REMARK    4  A    between atoms: C_15  and  C_16
REMARK                            x       y       z     vdW  Elec       q    Type
REMARK                         _______ _______ _______ _____ _____    ______ ____
ROOT
ATOM      1  N   UNL     1      45.134   3.006  12.333  0.00  0.00    +0.000 N 
ATOM      2  C   UNL     1      44.890   3.414  11.020  0.00  0.00    +0.000 A 
ATOM      3  N   UNL     1      43.965   4.354  10.788  0.00  0.00    +0.000 NA
ATOM      4  C   UNL     1      43.717   4.675   9.511  0.00  0.00    +0.000 A 
ATOM      5  C   UNL     1      44.383   4.116   8.451  0.00  0.00    +0.000 A 
ATOM      6  C   UNL     1      45.337   3.168   8.760  0.00  0.00    +0.000 A 
ATOM      7  N   UNL     1      45.562   2.787  10.042  0.00  0.00    +0.000 NA
ATOM      8  H   UNL     1      44.623   2.135  12.439  0.00  0.00    +0.000 HD
ENDROOT
BRANCH   6   9
ATOM      9  C   UNL     1      46.141   2.504   7.715  0.00  0.00    +0.000 A 
ATOM     10  C   UNL     1      46.520   3.147   6.522  0.00  0.00    +0.000 A 
ATOM     11  C   UNL     1      47.233   2.468   5.535  0.00  0.00    +0.000 A 
ATOM     12  C   UNL     1      47.567   1.145   5.766  0.00  0.00    +0.000 A 
ATOM     13  N   UNL     1      47.253   0.487   6.896  0.00  0.00    +0.000 NA
ATOM     14  C   UNL     1      46.561   1.179   7.839  0.00  0.00    +0.000 A 
ENDBRANCH   6   9
BRANCH   1  15
ATOM     15  C   UNL     1      44.706   3.992  13.325  0.00  0.00    +0.000 C 
BRANCH  15  20
ATOM     16  C   UNL     1      45.997   7.452  12.955  0.00  0.00    +0.000 A 
ATOM     17  C   UNL     1      47.337   7.363  13.295  0.00  0.00    +0.000 A 
ATOM     18  C   UNL     1      47.834   6.128  13.687  0.00  0.00    +0.000 A 
ATOM     19  C   UNL     1      46.980   5.028  13.717  0.00  0.00    +0.000 A 
ATOM     20  C   UNL     1      45.637   5.196  13.370  0.00  0.00    +0.000 A 
ATOM     21  N   UNL     1      45.125   6.405  13.000  0.00  0.00    +0.000 NA
BRANCH  16  23
ATOM     22  N   UNL     1      46.045   9.877  12.704  0.00  0.00    +0.000 NA
ATOM     23  C   UNL     1      45.425   8.762  12.475  0.00  0.00    +0.000 C 
ATOM     24  N   UNL     1      44.235   8.771  11.798  0.00  0.00    +0.000 N 
ATOM     25  H   UNL     1      45.524  10.640  12.265  0.00  0.00    +0.000 HD
ATOM     26  H   UNL     1      43.666   9.601  11.900  0.00  0.00    +0.000 HD
ATOM     27  H   UNL     1      43.709   7.905  11.900  0.00  0.00    +0.000 HD
ENDBRANCH  16  23
ENDBRANCH  15  20
ENDBRANCH   1  15
TORSDOF 4
ENDMDL
MODEL 2
REMARK VINA RESULT:    -7.448      4.429      9.260
REMARK INTER + INTRA:          -9.518
REMARK INTER:                  -9.071
REMARK INTRA:                  -0.447
REMARK UNBOUND:                -0.328
REMARK  Name = 
REMARK  4 active torsions:
REMARK  status: ('A' for Active; 'I' for Inactive)
REMARK    1  A    between atoms: C_2  and  C_4
REMARK    2  A    between atoms: C_8  and  C_9
REMARK    3  A    between atoms: C_9  and  N_10
REMARK    4  A    between atoms: C_15  and  C_16
REMARK                            x       y       z     vdW  Elec       q    Type
REMARK                         _______ _______ _______ _____ _____    ______ ____
ROOT
ATOM      1  N   UNL     1      46.409   4.537  14.965  0.00  0.00    +0.000 N 
ATOM      2  C   UNL     1      47.306   4.016  15.898  0.00  0.00    +0.000 A 
ATOM      3  N   UNL     1      47.967   2.887  15.613  0.00  0.00    +0.000 NA
ATOM      4  C   UNL     1      48.772   2.385  16.558  0.00  0.00    +0.000 A 
ATOM      5  C   UNL     1      48.972   2.986  17.774  0.00  0.00    +0.000 A 
ATOM      6  C   UNL     1      48.275   4.157  17.998  0.00  0.00    +0.000 A 
ATOM      7  N   UNL     1      47.411   4.650  17.077  0.00  0.00    +0.000 NA
ATOM      8  H   UNL     1      45.492   4.246  15.287  0.00  0.00    +0.000 HD
ENDROOT
BRANCH   6   9
ATOM      9  C   UNL     1      48.416   4.916  19.256  0.00  0.00    +0.000 A 
ATOM     10  C   UNL     1      48.796   4.316  20.471  0.00  0.00    +0.000 A 
ATOM     11  C   UNL     1      48.864   5.058  21.650  0.00  0.00    +0.000 A 
ATOM     12  C   UNL     1      48.556   6.407  21.589  0.00  0.00    +0.000 A 
ATOM     13  N   UNL     1      48.210   7.038  20.454  0.00  0.00    +0.000 NA
ATOM     14  C   UNL     1      48.157   6.286  19.323  0.00  0.00    +0.000 A 
ENDBRANCH   6   9
BRANCH   1  15
ATOM     15  C   UNL     1      46.664   4.064  13.604  0.00  0.00    +0.000 C 
BRANCH  15  20
ATOM     16  C   UNL     1      44.352   3.580  10.741  0.00  0.00    +0.000 A 
ATOM     17  C   UNL     1      43.202   4.267  11.101  0.00  0.00    +0.000 A 
ATOM     18  C   UNL     1      43.172   4.892  12.340  0.00  0.00    +0.000 A 
ATOM     19  C   UNL     1      44.289   4.816  13.169  0.00  0.00    +0.000 A 
ATOM     20  C   UNL     1      45.408   4.095  12.744  0.00  0.00    +0.000 A 
ATOM     21  N   UNL     1      45.451   3.460  11.538  0.00  0.00    +0.000 NA
BRANCH  16  23
ATOM     22  N   UNL     1      44.673   1.658   9.277  0.00  0.00    +0.000 NA
ATOM     23  C   UNL     1      44.448   2.929   9.385  0.00  0.00    +0.000 C 
ATOM     24  N   UNL     1      44.305   3.693   8.258  0.00  0.00    +0.000 N 
ATOM     25  H   UNL     1      44.659   1.403   8.287  0.00  0.00    +0.000 HD
ATOM     26  H   UNL     1      44.808   3.384   7.438  0.00  0.00    +0.000 HD
ATOM     27  H   UNL     1      44.397   4.692   8.437  0.00  0.00    +0.000 HD
ENDBRANCH  16  23
ENDBRANCH  15  20
ENDBRANCH   1  15
TORSDOF 4
ENDMDL
MODEL 3
REMARK VINA RESULT:    -7.107      4.307      6.966
REMARK INTER + INTRA:          -9.096
REMARK INTER:                  -8.494
REMARK INTRA:                  -0.602
REMARK UNBOUND:                -0.328
REMARK  Name = 
REMARK  4 active torsions:
REMARK  status: ('A' for Active; 'I' for Inactive)
REMARK    1  A    between atoms: C_2  and  C_4
REMARK    2  A    between atoms: C_8  and  C_9
REMARK    3  A    between atoms: C_9  and  N_10
REMARK    4  A    between atoms: C_15  and  C_16
REMARK                            x       y       z     vdW  Elec       q    Type
REMARK                         _______ _______ _______ _____ _____    ______ ____
ROOT
ATOM      1  N   UNL     1      48.328   6.266  16.055  0.00  0.00    +0.000 N 
ATOM      2  C   UNL     1      48.086   6.444  14.692  0.00  0.00    +0.000 A 
ATOM      3  N   UNL     1      48.776   7.373  14.019  0.00  0.00    +0.000 NA
ATOM      4  C   UNL     1      48.472   7.556  12.727  0.00  0.00    +0.000 A 
ATOM      5  C   UNL     1      47.522   6.821  12.067  0.00  0.00    +0.000 A 
ATOM      6  C   UNL     1      46.859   5.867  12.813  0.00  0.00    +0.000 A 
ATOM      7  N   UNL     1      47.112   5.706  14.136  0.00  0.00    +0.000 NA
ATOM      8  H   UNL     1      47.580   6.766  16.526  0.00  0.00    +0.000 HD
ENDROOT
BRANCH   6   9
ATOM      9  C   UNL     1      45.828   4.993  12.219  0.00  0.00    +0.000 A 
ATOM     10  C   UNL     1      45.312   5.194  10.925  0.00  0.00    +0.000 A 
ATOM     11  C   UNL     1      44.299   4.379  10.421  0.00  0.00    +0.000 A 
ATOM     12  C   UNL     1      43.822   3.358  11.227  0.00  0.00    +0.000 A 
ATOM     13  N   UNL     1      44.294   3.105  12.460  0.00  0.00    +0.000 NA
ATOM     14  C   UNL     1      45.283   3.916  12.919  0.00  0.00    +0.000 A 
ENDBRANCH   6   9
BRANCH   1  15
ATOM     15  C   UNL     1      49.639   6.768  16.471  0.00  0.00    +0.000 C 
BRANCH  15  20
ATOM     16  C   UNL     1      50.917   3.435  17.488  0.00  0.00    +0.000 A 
ATOM     17  C   UNL     1      51.868   3.708  18.460  0.00  0.00    +0.000 A 
ATOM     18  C   UNL     1      52.120   5.036  18.777  0.00  0.00    +0.000 A 
ATOM     19  C   UNL     1      51.411   6.039  18.121  0.00  0.00    +0.000 A 
ATOM     20  C   UNL     1      50.476   5.689  17.144  0.00  0.00    +0.000 A 
ATOM     21  N   UNL     1      50.226   4.392  16.805  0.00  0.00    +0.000 NA
BRANCH  16  23
ATOM     22  N   UNL     1      49.668   1.739  16.262  0.00  0.00    +0.000 NA
ATOM     23  C   UNL     1      50.575   2.008  17.148  0.00  0.00    +0.000 C 
ATOM     24  N   UNL     1      51.224   0.987  17.788  0.00  0.00    +0.000 N 
ATOM     25  H   UNL     1      49.614   0.725  16.143  0.00  0.00    +0.000 HD
ATOM     26  H   UNL     1      50.704   0.128  17.909  0.00  0.00    +0.000 HD
ATOM     27  H   UNL     1      51.710   1.288  18.632  0.00  0.00    +0.000 HD
ENDBRANCH  16  23
ENDBRANCH  15  20
ENDBRANCH   1  15
TORSDOF 4
ENDMDL
MODEL 4
REMARK VINA RESULT:    -7.032      4.575      9.003
REMARK INTER + INTRA:          -9.005
REMARK INTER:                  -8.550
REMARK INTRA:                  -0.455
REMARK UNBOUND:                -0.328
REMARK  Name = 
REMARK  4 active torsions:
REMARK  status: ('A' for Active; 'I' for Inactive)
REMARK    1  A    between atoms: C_2  and  C_4
REMARK    2  A    between atoms: C_8  and  C_9
REMARK    3  A    between atoms: C_9  and  N_10
REMARK    4  A    between atoms: C_15  and  C_16
REMARK                            x       y       z     vdW  Elec       q    Type
REMARK                         _______ _______ _______ _____ _____    ______ ____
ROOT
ATOM      1  N   UNL     1      46.538   4.635  15.098  0.00  0.00    +0.000 N 
ATOM      2  C   UNL     1      47.364   4.132  16.105  0.00  0.00    +0.000 A 
ATOM      3  N   UNL     1      48.083   3.027  15.872  0.00  0.00    +0.000 NA
ATOM      4  C   UNL     1      48.817   2.541  16.882  0.00  0.00    +0.000 A 
ATOM      5  C   UNL     1      48.887   3.136  18.115  0.00  0.00    +0.000 A 
ATOM      6  C   UNL     1      48.136   4.282  18.284  0.00  0.00    +0.000 A 
ATOM      7  N   UNL     1      47.343   4.757  17.293  0.00  0.00    +0.000 NA
ATOM      8  H   UNL     1      45.605   4.312  15.334  0.00  0.00    +0.000 HD
ENDROOT
BRANCH   6   9
ATOM      9  C   UNL     1      48.139   5.033  19.555  0.00  0.00    +0.000 A 
ATOM     10  C   UNL     1      48.792   4.570  20.713  0.00  0.00    +0.000 A 
ATOM     11  C   UNL     1      48.725   5.282  21.910  0.00  0.00    +0.000 A 
ATOM     12  C   UNL     1      48.005   6.465  21.924  0.00  0.00    +0.000 A 
ATOM     13  N   UNL     1      47.382   6.968  20.844  0.00  0.00    +0.000 NA
ATOM     14  C   UNL     1      47.471   6.250  19.693  0.00  0.00    +0.000 A 
ENDBRANCH   6   9
BRANCH   1  15
ATOM     15  C   UNL     1      46.929   4.183  13.762  0.00  0.00    +0.000 C 
BRANCH  15  20
ATOM     16  C   UNL     1      44.418   5.949  11.675  0.00  0.00    +0.000 A 
ATOM     17  C   UNL     1      43.770   4.940  10.980  0.00  0.00    +0.000 A 
ATOM     18  C   UNL     1      44.188   3.631  11.182  0.00  0.00    +0.000 A 
ATOM     19  C   UNL     1      45.228   3.378  12.073  0.00  0.00    +0.000 A 
ATOM     20  C   UNL     1      45.842   4.448  12.730  0.00  0.00    +0.000 A 
ATOM     21  N   UNL     1      45.458   5.741  12.532  0.00  0.00    +0.000 NA
BRANCH  16  23
ATOM     22  N   UNL     1      44.721   8.356  11.918  0.00  0.00    +0.000 NA
ATOM     23  C   UNL     1      43.966   7.379  11.526  0.00  0.00    +0.000 C 
ATOM     24  N   UNL     1      42.741   7.645  10.976  0.00  0.00    +0.000 N 
ATOM     25  H   UNL     1      44.260   9.240  11.693  0.00  0.00    +0.000 HD
ATOM     26  H   UNL     1      42.277   8.484  11.296  0.00  0.00    +0.000 HD
ATOM     27  H   UNL     1      42.129   6.830  10.948  0.00  0.00    +0.000 HD
ENDBRANCH  16  23
ENDBRANCH  15  20
ENDBRANCH   1  15
TORSDOF 4
ENDMDL
MODEL 5
REMARK VINA RESULT:    -6.902      4.583      8.708
REMARK INTER + INTRA:          -8.844
REMARK INTER:                  -8.406
REMARK INTRA:                  -0.438
REMARK UNBOUND:                -0.328
REMARK  Name = 
REMARK  4 active torsions:
REMARK  status: ('A' for Active; 'I' for Inactive)
REMARK    1  A    between atoms: C_2  and  C_4
REMARK    2  A    between atoms: C_8  and  C_9
REMARK    3  A    between atoms: C_9  and  N_10
REMARK    4  A    between atoms: C_15  and  C_16
REMARK                            x       y       z     vdW  Elec       q    Type
REMARK                         _______ _______ _______ _____ _____    ______ ____
ROOT
ATOM      1  N   UNL     1      47.209   5.123  15.044  0.00  0.00    +0.000 N 
ATOM      2  C   UNL     1      47.653   4.452  16.185  0.00  0.00    +0.000 A 
ATOM      3  N   UNL     1      46.870   3.522  16.745  0.00  0.00    +0.000 NA
ATOM      4  C   UNL     1      47.304   2.944  17.873  0.00  0.00    +0.000 A 
ATOM      5  C   UNL     1      48.513   3.235  18.450  0.00  0.00    +0.000 A 
ATOM      6  C   UNL     1      49.281   4.188  17.813  0.00  0.00    +0.000 A 
ATOM      7  N   UNL     1      48.834   4.827  16.703  0.00  0.00    +0.000 NA
ATOM      8  H   UNL     1      46.862   6.016  15.380  0.00  0.00    +0.000 HD
ENDROOT
BRANCH   6   9
ATOM      9  C   UNL     1      50.612   4.579  18.318  0.00  0.00    +0.000 A 
ATOM     10  C   UNL     1      50.853   4.895  19.668  0.00  0.00    +0.000 A 
ATOM     11  C   UNL     1      52.113   5.313  20.095  0.00  0.00    +0.000 A 
ATOM     12  C   UNL     1      53.125   5.398  19.153  0.00  0.00    +0.000 A 
ATOM     13  N   UNL     1      52.959   5.086  17.856  0.00  0.00    +0.000 NA
ATOM     14  C   UNL     1      51.719   4.679  17.474  0.00  0.00    +0.000 A 
ENDBRANCH   6   9
BRANCH   1  15
ATOM     15  C   UNL     1      46.169   4.391  14.321  0.00  0.00    +0.000 C 
BRANCH  15  20
ATOM     16  C   UNL     1      45.149   4.606  10.759  0.00  0.00    +0.000 A 
ATOM     17  C   UNL     1      45.752   5.763  10.292  0.00  0.00    +0.000 A 
ATOM     18  C   UNL     1      46.501   6.519  11.185  0.00  0.00    +0.000 A 
ATOM     19  C   UNL     1      46.627   6.088  12.503  0.00  0.00    +0.000 A 
ATOM     20  C   UNL     1      45.981   4.916  12.905  0.00  0.00    +0.000 A 
ATOM     21  N   UNL     1      45.226   4.170  12.049  0.00  0.00    +0.000 NA
BRANCH  16  23
ATOM     22  N   UNL     1      44.028   2.526  10.158  0.00  0.00    +0.000 NA
ATOM     23  C   UNL     1      44.368   3.728   9.815  0.00  0.00    +0.000 C 
ATOM     24  N   UNL     1      44.023   4.207   8.579  0.00  0.00    +0.000 N 
ATOM     25  H   UNL     1      43.472   2.113   9.406  0.00  0.00    +0.000 HD
ATOM     26  H   UNL     1      43.942   3.523   7.839  0.00  0.00    +0.000 HD
ATOM     27  H   UNL     1      44.551   5.036   8.309  0.00  0.00    +0.000 HD
ENDBRANCH  16  23
ENDBRANCH  15  20
ENDBRANCH   1  15
TORSDOF 4
ENDMDL
MODEL 6
REMARK VINA RESULT:    -6.339      4.757      8.589
REMARK INTER + INTRA:          -8.149
REMARK INTER:                  -7.734
REMARK INTRA:                  -0.415
REMARK UNBOUND:                -0.328
REMARK  Name = 
REMARK  4 active torsions:
REMARK  status: ('A' for Active; 'I' for Inactive)
REMARK    1  A    between atoms: C_2  and  C_4
REMARK    2  A    between atoms: C_8  and  C_9
REMARK    3  A    between atoms: C_9  and  N_10
REMARK    4  A    between atoms: C_15  and  C_16
REMARK                            x       y       z     vdW  Elec       q    Type
REMARK                         _______ _______ _______ _____ _____    ______ ____
ROOT
ATOM      1  N   UNL     1      49.527   7.308  14.764  0.00  0.00    +0.000 N 
ATOM      2  C   UNL     1      49.474   6.690  16.015  0.00  0.00    +0.000 A 
ATOM      3  N   UNL     1      48.631   7.159  16.942  0.00  0.00    +0.000 NA
ATOM      4  C   UNL     1      48.653   6.579  18.150  0.00  0.00    +0.000 A 
ATOM      5  C   UNL     1      49.466   5.520  18.461  0.00  0.00    +0.000 A 
ATOM      6  C   UNL     1      50.299   5.073  17.455  0.00  0.00    +0.000 A 
ATOM      7  N   UNL     1      50.333   5.683  16.245  0.00  0.00    +0.000 NA
ATOM      8  H   UNL     1      50.342   7.912  14.801  0.00  0.00    +0.000 HD
ENDROOT
BRANCH   6   9
ATOM      9  C   UNL     1      51.209   3.927  17.651  0.00  0.00    +0.000 A 
ATOM     10  C   UNL     1      50.842   2.602  17.351  0.00  0.00    +0.000 A 
ATOM     11  C   UNL     1      51.711   1.541  17.602  0.00  0.00    +0.000 A 
ATOM     12  C   UNL     1      52.952   1.829  18.145  0.00  0.00    +0.000 A 
ATOM     13  N   UNL     1      53.366   3.077  18.429  0.00  0.00    +0.000 NA
ATOM     14  C   UNL     1      52.495   4.088  18.169  0.00  0.00    +0.000 A 
ENDBRANCH   6   9
BRANCH   1  15
ATOM     15  C   UNL     1      48.318   8.071  14.454  0.00  0.00    +0.000 C 
BRANCH  15  20
ATOM     16  C   UNL     1      46.433   5.219  13.010  0.00  0.00    +0.000 A 
ATOM     17  C   UNL     1      45.696   5.775  11.976  0.00  0.00    +0.000 A 
ATOM     18  C   UNL     1      45.798   7.142  11.759  0.00  0.00    +0.000 A 
ATOM     19  C   UNL     1      46.637   7.900  12.573  0.00  0.00    +0.000 A 
ATOM     20  C   UNL     1      47.341   7.272  13.603  0.00  0.00    +0.000 A 
ATOM     21  N   UNL     1      47.240   5.933  13.845  0.00  0.00    +0.000 NA
BRANCH  16  23
ATOM     22  N   UNL     1      47.228   3.170  14.066  0.00  0.00    +0.000 NA
ATOM     23  C   UNL     1      46.391   3.731  13.251  0.00  0.00    +0.000 C 
ATOM     24  N   UNL     1      45.464   2.967  12.595  0.00  0.00    +0.000 N 
ATOM     25  H   UNL     1      47.011   2.173  14.126  0.00  0.00    +0.000 HD
ATOM     26  H   UNL     1      45.728   2.011  12.397  0.00  0.00    +0.000 HD
ATOM     27  H   UNL     1      45.043   3.444  11.799  0.00  0.00    +0.000 HD
ENDBRANCH  16  23
ENDBRANCH  15  20
ENDBRANCH   1  15
TORSDOF 4
ENDMDL
MODEL 7
REMARK VINA RESULT:    -6.318      3.613      8.493
REMARK INTER + INTRA:          -8.123
REMARK INTER:                  -7.656
REMARK INTRA:                  -0.467
REMARK UNBOUND:                -0.328
REMARK  Name = 
REMARK  4 active torsions:
REMARK  status: ('A' for Active; 'I' for Inactive)
REMARK    1  A    between atoms: C_2  and  C_4
REMARK    2  A    between atoms: C_8  and  C_9
REMARK    3  A    between atoms: C_9  and  N_10
REMARK    4  A    between atoms: C_15  and  C_16
REMARK                            x       y       z     vdW  Elec       q    Type
REMARK                         _______ _______ _______ _____ _____    ______ ____
ROOT
ATOM      1  N   UNL     1      47.676   5.866  13.069  0.00  0.00    +0.000 N 
ATOM      2  C   UNL     1      48.032   6.687  14.140  0.00  0.00    +0.000 A 
ATOM      3  N   UNL     1      47.818   8.005  14.055  0.00  0.00    +0.000 NA
ATOM      4  C   UNL     1      48.230   8.767  15.077  0.00  0.00    +0.000 A 
ATOM      5  C   UNL     1      48.822   8.258  16.204  0.00  0.00    +0.000 A 
ATOM      6  C   UNL     1      48.997   6.889  16.237  0.00  0.00    +0.000 A 
ATOM      7  N   UNL     1      48.640   6.108  15.188  0.00  0.00    +0.000 NA
ATOM      8  H   UNL     1      48.541   5.694  12.567  0.00  0.00    +0.000 HD
ENDROOT
BRANCH   6   9
ATOM      9  C   UNL     1      49.602   6.211  17.401  0.00  0.00    +0.000 A 
ATOM     10  C   UNL     1      50.123   4.905  17.335  0.00  0.00    +0.000 A 
ATOM     11  C   UNL     1      50.636   4.278  18.470  0.00  0.00    +0.000 A 
ATOM     12  C   UNL     1      50.628   4.982  19.663  0.00  0.00    +0.000 A 
ATOM     13  N   UNL     1      50.166   6.239  19.780  0.00  0.00    +0.000 NA
ATOM     14  C   UNL     1      49.676   6.821  18.653  0.00  0.00    +0.000 A 
ENDBRANCH   6   9
BRANCH   1  15
ATOM     15  C   UNL     1      46.671   6.474  12.196  0.00  0.00    +0.000 C 
BRANCH  15  20
ATOM     16  C   UNL     1      44.377   3.984  10.675  0.00  0.00    +0.000 A 
ATOM     17  C   UNL     1      43.251   4.006  11.485  0.00  0.00    +0.000 A 
ATOM     18  C   UNL     1      43.253   4.850  12.587  0.00  0.00    +0.000 A 
ATOM     19  C   UNL     1      44.370   5.644  12.836  0.00  0.00    +0.000 A 
ATOM     20  C   UNL     1      45.473   5.560  11.982  0.00  0.00    +0.000 A 
ATOM     21  N   UNL     1      45.498   4.724  10.905  0.00  0.00    +0.000 NA
BRANCH  16  23
ATOM     22  N   UNL     1      44.474   1.831   9.536  0.00  0.00    +0.000 NA
ATOM     23  C   UNL     1      44.400   3.121   9.440  0.00  0.00    +0.000 C 
ATOM     24  N   UNL     1      44.350   3.709   8.205  0.00  0.00    +0.000 N 
ATOM     25  H   UNL     1      44.434   1.427   8.598  0.00  0.00    +0.000 HD
ATOM     26  H   UNL     1      44.816   3.218   7.454  0.00  0.00    +0.000 HD
ATOM     27  H   UNL     1      44.559   4.707   8.227  0.00  0.00    +0.000 HD
ENDBRANCH  16  23
ENDBRANCH  15  20
ENDBRANCH   1  15
TORSDOF 4
ENDMDL
MODEL 8
REMARK VINA RESULT:    -6.291      4.046      7.361
REMARK INTER + INTRA:          -8.090
REMARK INTER:                  -7.661
REMARK INTRA:                  -0.430
REMARK UNBOUND:                -0.328
REMARK  Name = 
REMARK  4 active torsions:
REMARK  status: ('A' for Active; 'I' for Inactive)
REMARK    1  A    between atoms: C_2  and  C_4
REMARK    2  A    between atoms: C_8  and  C_9
REMARK    3  A    between atoms: C_9  and  N_10
REMARK    4  A    between atoms: C_15  and  C_16
REMARK                            x       y       z     vdW  Elec       q    Type
REMARK                         _______ _______ _______ _____ _____    ______ ____
ROOT
ATOM      1  N   UNL     1      47.283   5.567  14.548  0.00  0.00    +0.000 N 
ATOM      2  C   UNL     1      46.347   5.787  13.536  0.00  0.00    +0.000 A 
ATOM      3  N   UNL     1      45.712   4.742  12.992  0.00  0.00    +0.000 NA
ATOM      4  C   UNL     1      44.867   4.987  11.982  0.00  0.00    +0.000 A 
ATOM      5  C   UNL     1      44.603   6.248  11.511  0.00  0.00    +0.000 A 
ATOM      6  C   UNL     1      45.277   7.283  12.127  0.00  0.00    +0.000 A 
ATOM      7  N   UNL     1      46.180   7.050  13.112  0.00  0.00    +0.000 NA
ATOM      8  H   UNL     1      48.186   5.611  14.088  0.00  0.00    +0.000 HD
ENDROOT
BRANCH   6   9
ATOM      9  C   UNL     1      45.069   8.690  11.731  0.00  0.00    +0.000 A 
ATOM     10  C   UNL     1      43.977   9.109  10.948  0.00  0.00    +0.000 A 
ATOM     11  C   UNL     1      43.846  10.438  10.548  0.00  0.00    +0.000 A 
ATOM     12  C   UNL     1      44.817  11.339  10.954  0.00  0.00    +0.000 A 
ATOM     13  N   UNL     1      45.868  11.001  11.722  0.00  0.00    +0.000 NA
ATOM     14  C   UNL     1      45.963   9.698  12.096  0.00  0.00    +0.000 A 
ENDBRANCH   6   9
BRANCH   1  15
ATOM     15  C   UNL     1      47.097   4.284  15.226  0.00  0.00    +0.000 C 
BRANCH  15  20
ATOM     16  C   UNL     1      49.708   3.328  17.685  0.00  0.00    +0.000 A 
ATOM     17  C   UNL     1      49.292   3.901  18.876  0.00  0.00    +0.000 A 
ATOM     18  C   UNL     1      48.125   4.653  18.871  0.00  0.00    +0.000 A 
ATOM     19  C   UNL     1      47.414   4.797  17.682  0.00  0.00    +0.000 A 
ATOM     20  C   UNL     1      47.900   4.199  16.517  0.00  0.00    +0.000 A 
ATOM     21  N   UNL     1      49.054   3.472  16.497  0.00  0.00    +0.000 NA
BRANCH  16  23
ATOM     22  N   UNL     1      52.013   2.815  18.292  0.00  0.00    +0.000 NA
ATOM     23  C   UNL     1      50.942   2.462  17.654  0.00  0.00    +0.000 C 
ATOM     24  N   UNL     1      50.930   1.296  16.937  0.00  0.00    +0.000 N 
ATOM     25  H   UNL     1      52.717   2.082  18.185  0.00  0.00    +0.000 HD
ATOM     26  H   UNL     1      51.815   0.996  16.550  0.00  0.00    +0.000 HD
ATOM     27  H   UNL     1      50.159   1.241  16.273  0.00  0.00    +0.000 HD
ENDBRANCH  16  23
ENDBRANCH  15  20
ENDBRANCH   1  15
TORSDOF 4
ENDMDL
MODEL 9
REMARK VINA RESULT:    -6.205      4.229      8.435
REMARK INTER + INTRA:          -7.984
REMARK INTER:                  -7.509
REMARK INTRA:                  -0.475
REMARK UNBOUND:                -0.328
REMARK  Name = 
REMARK  4 active torsions:
REMARK  status: ('A' for Active; 'I' for Inactive)
REMARK    1  A    between atoms: C_2  and  C_4
REMARK    2  A    between atoms: C_8  and  C_9
REMARK    3  A    between atoms: C_9  and  N_10
REMARK    4  A    between atoms: C_15  and  C_16
REMARK                            x       y       z     vdW  Elec       q    Type
REMARK                         _______ _______ _______ _____ _____    ______ ____
ROOT
ATOM      1  N   UNL     1      47.130   5.153  14.496  0.00  0.00    +0.000 N 
ATOM      2  C   UNL     1      47.543   4.645  15.729  0.00  0.00    +0.000 A 
ATOM      3  N   UNL     1      46.987   3.519  16.193  0.00  0.00    +0.000 NA
ATOM      4  C   UNL     1      47.365   3.096  17.406  0.00  0.00    +0.000 A 
ATOM      5  C   UNL     1      48.307   3.738  18.167  0.00  0.00    +0.000 A 
ATOM      6  C   UNL     1      48.855   4.883  17.624  0.00  0.00    +0.000 A 
ATOM      7  N   UNL     1      48.444   5.359  16.422  0.00  0.00    +0.000 NA
ATOM      8  H   UNL     1      46.477   5.897  14.721  0.00  0.00    +0.000 HD
ENDROOT
BRANCH   6   9
ATOM      9  C   UNL     1      49.895   5.658  18.329  0.00  0.00    +0.000 A 
ATOM     10  C   UNL     1      50.022   7.054  18.203  0.00  0.00    +0.000 A 
ATOM     11  C   UNL     1      51.052   7.743  18.842  0.00  0.00    +0.000 A 
ATOM     12  C   UNL     1      51.941   7.015  19.615  0.00  0.00    +0.000 A 
ATOM     13  N   UNL     1      51.854   5.685  19.791  0.00  0.00    +0.000 NA
ATOM     14  C   UNL     1      50.837   5.045  19.156  0.00  0.00    +0.000 A 
ENDBRANCH   6   9
BRANCH   1  15
ATOM     15  C   UNL     1      46.504   4.142  13.643  0.00  0.00    +0.000 C 
BRANCH  15  20
ATOM     16  C   UNL     1      44.343   6.595  11.887  0.00  0.00    +0.000 A 
ATOM     17  C   UNL     1      43.308   5.836  11.361  0.00  0.00    +0.000 A 
ATOM     18  C   UNL     1      43.332   4.463  11.567  0.00  0.00    +0.000 A 
ATOM     19  C   UNL     1      44.379   3.901  12.294  0.00  0.00    +0.000 A 
ATOM     20  C   UNL     1      45.393   4.729  12.784  0.00  0.00    +0.000 A 
ATOM     21  N   UNL     1      45.397   6.076  12.577  0.00  0.00    +0.000 NA
BRANCH  16  23
ATOM     22  N   UNL     1      45.067   8.843  12.493  0.00  0.00    +0.000 NA
ATOM     23  C   UNL     1      44.333   8.094  11.731  0.00  0.00    +0.000 C 
ATOM     24  N   UNL     1      43.533   8.668  10.780  0.00  0.00    +0.000 N 
ATOM     25  H   UNL     1      44.954   9.817  12.204  0.00  0.00    +0.000 HD
ATOM     26  H   UNL     1      43.187   9.596  10.983  0.00  0.00    +0.000 HD
ATOM     27  H   UNL     1      42.816   8.037  10.425  0.00  0.00    +0.000 HD
ENDBRANCH  16  23
ENDBRANCH  15  20
ENDBRANCH   1  15
TORSDOF 4
ENDMDL
