MODEL 1
REMARK VINA RESULT:    -7.868      0.000      0.000
REMARK INTER + INTRA:          -9.719
REMARK INTER:                  -9.248
REMARK INTRA:                  -0.471
REMARK UNBOUND:                -0.471
REMARK  Name = 
REMARK  4 active torsions:
REMARK  status: ('A' for Active; 'I' for Inactive)
REMARK    1  A    between atoms: C_1  and  C_2
REMARK    2  A    between atoms: N_8  and  C_9
REMARK    3  A    between atoms: C_9  and  C_10
REMARK    4  A    between atoms: C_14  and  C_15
REMARK                            x       y       z     vdW  Elec       q    Type
REMARK                         _______ _______ _______ _____ _____    ______ ____
ROOT
ATOM      1  C   UNL     1      43.762   5.403  11.698  0.00  0.00    +0.000 C 
ATOM      2  C   UNL     1      42.341   5.956  11.683  0.00  0.00    +0.000 C 
ATOM      3  C   UNL     1      42.889   5.359  12.935  0.00  0.00    +0.000 C 
ENDROOT
BRANCH   1  11
ATOM      4  C   UNL     1      49.427   7.494  11.357  0.00  0.00    +0.000 C 
ATOM      5  C   UNL     1      48.301   6.866  12.119  0.00  0.00    +0.000 A 
ATOM      6  C   UNL     1      48.500   6.305  13.356  0.00  0.00    +0.000 A 
ATOM      7  C   UNL     1      47.383   5.746  13.923  0.00  0.00    +0.000 A 
ATOM      8 CL   UNL     1      47.464   5.036  15.484  0.00  0.00    +0.000 Cl
ATOM      9  N   UNL     1      46.166   5.706  13.360  0.00  0.00    +0.000 NA
ATOM     10  C   UNL     1      46.058   6.298  12.171  0.00  0.00    +0.000 A 
ATOM     11  N   UNL     1      44.826   6.400  11.522  0.00  0.00    +0.000 N 
ATOM     12  N   UNL     1      47.088   6.872  11.526  0.00  0.00    +0.000 NA
ATOM     13  H   UNL     1      45.023   6.739  10.587  0.00  0.00    +0.000 HD
ENDBRANCH   1  11
BRANCH   1  14
ATOM     14  C   UNL     1      44.018   4.093  10.972  0.00  0.00    +0.000 A 
ATOM     15  C   UNL     1      43.401   2.907  11.344  0.00  0.00    +0.000 A 
ATOM     16  N   UNL     1      43.580   1.738  10.694  0.00  0.00    +0.000 NA
ATOM     17  N   UNL     1      44.412   1.695   9.609  0.00  0.00    +0.000 NA
ATOM     18  C   UNL     1      45.069   2.806   9.204  0.00  0.00    +0.000 A 
ATOM     19  C   UNL     1      44.886   4.010   9.876  0.00  0.00    +0.000 A 
BRANCH  18  20
ATOM     20  C   UNL     1      45.953   2.663   8.031  0.00  0.00    +0.000 A 
ATOM     21  C   UNL     1      46.648   1.464   7.790  0.00  0.00    +0.000 A 
ATOM     22  C   UNL     1      47.487   1.318   6.680  0.00  0.00    +0.000 A 
ATOM     23  C   UNL     1      47.651   2.372   5.787  0.00  0.00    +0.000 A 
ATOM     24  C   UNL     1      46.977   3.570   6.001  0.00  0.00    +0.000 A 
ATOM     25  C   UNL     1      46.139   3.713   7.111  0.00  0.00    +0.000 A 
ENDBRANCH  18  20
ENDBRANCH   1  14
TORSDOF 3
ENDMDL
MODEL 2
REMARK VINA RESULT:    -7.552      3.117      4.117
REMARK INTER + INTRA:          -9.347
REMARK INTER:                  -9.939
REMARK INTRA:                   0.592
REMARK UNBOUND:                -0.471
REMARK  Name = 
REMARK  4 active torsions:
REMARK  status: ('A' for Active; 'I' for Inactive)
REMARK    1  A    between atoms: C_1  and  C_2
REMARK    2  A    between atoms: N_8  and  C_9
REMARK    3  A    between atoms: C_9  and  C_10
REMARK    4  A    between atoms: C_14  and  C_15
REMARK                            x       y       z     vdW  Elec       q    Type
REMARK                         _______ _______ _______ _____ _____    ______ ____
ROOT
ATOM      1  C   UNL     1      44.799   6.670  11.569  0.00  0.00    +0.000 C 
ATOM      2  C   UNL     1      45.535   6.748  12.902  0.00  0.00    +0.000 C 
ATOM      3  C   UNL     1      46.244   7.120  11.644  0.00  0.00    +0.000 C 
ENDROOT
BRANCH   1  11
ATOM      4  C   UNL     1      41.862  11.479   9.375  0.00  0.00    +0.000 C 
ATOM      5  C   UNL     1      42.992  10.868  10.144  0.00  0.00    +0.000 A 
ATOM      6  C   UNL     1      44.078  11.611  10.531  0.00  0.00    +0.000 A 
ATOM      7  C   UNL     1      45.045  10.911  11.207  0.00  0.00    +0.000 A 
ATOM      8 CL   UNL     1      46.451  11.710  11.787  0.00  0.00    +0.000 Cl
ATOM      9  N   UNL     1      44.999   9.600  11.488  0.00  0.00    +0.000 NA
ATOM     10  C   UNL     1      43.895   8.963  11.099  0.00  0.00    +0.000 A 
ATOM     11  N   UNL     1      43.688   7.618  11.409  0.00  0.00    +0.000 N 
ATOM     12  N   UNL     1      42.890   9.552  10.429  0.00  0.00    +0.000 NA
ATOM     13  H   UNL     1      42.874   7.325  10.881  0.00  0.00    +0.000 HD
ENDBRANCH   1  11
BRANCH   1  14
ATOM     14  C   UNL     1      44.521   5.291  10.995  0.00  0.00    +0.000 A 
ATOM     15  C   UNL     1      43.483   4.492  11.456  0.00  0.00    +0.000 A 
ATOM     16  N   UNL     1      43.189   3.281  10.939  0.00  0.00    +0.000 NA
ATOM     17  N   UNL     1      43.945   2.791   9.909  0.00  0.00    +0.000 NA
ATOM     18  C   UNL     1      44.990   3.502   9.425  0.00  0.00    +0.000 A 
ATOM     19  C   UNL     1      45.293   4.749   9.960  0.00  0.00    +0.000 A 
BRANCH  18  20
ATOM     20  C   UNL     1      45.752   2.890   8.320  0.00  0.00    +0.000 A 
ATOM     21  C   UNL     1      46.108   3.639   7.184  0.00  0.00    +0.000 A 
ATOM     22  C   UNL     1      46.832   3.068   6.132  0.00  0.00    +0.000 A 
ATOM     23  C   UNL     1      47.215   1.732   6.193  0.00  0.00    +0.000 A 
ATOM     24  C   UNL     1      46.876   0.967   7.305  0.00  0.00    +0.000 A 
ATOM     25  C   UNL     1      46.152   1.540   8.355  0.00  0.00    +0.000 A 
ENDBRANCH  18  20
ENDBRANCH   1  14
TORSDOF 3
ENDMDL
MODEL 3
REMARK VINA RESULT:    -7.215      2.254      3.099
REMARK INTER + INTRA:          -8.951
REMARK INTER:                  -8.833
REMARK INTRA:                  -0.118
REMARK UNBOUND:                -0.471
REMARK  Name = 
REMARK  4 active torsions:
REMARK  status: ('A' for Active; 'I' for Inactive)
REMARK    1  A    between atoms: C_1  and  C_2
REMARK    2  A    between atoms: N_8  and  C_9
REMARK    3  A    between atoms: C_9  and  C_10
REMARK    4  A    between atoms: C_14  and  C_15
REMARK                            x       y       z     vdW  Elec       q    Type
REMARK                         _______ _______ _______ _____ _____    ______ ____
ROOT
ATOM      1  C   UNL     1      45.731   5.292  13.090  0.00  0.00    +0.000 C 
ATOM      2  C   UNL     1      46.174   4.641  14.396  0.00  0.00    +0.000 C 
ATOM      3  C   UNL     1      47.197   5.054  13.392  0.00  0.00    +0.000 C 
ENDROOT
BRANCH   1  11
ATOM      4  C   UNL     1      44.292  10.954  11.529  0.00  0.00    +0.000 C 
ATOM      5  C   UNL     1      45.298   9.910  11.905  0.00  0.00    +0.000 A 
ATOM      6  C   UNL     1      46.645  10.133  11.774  0.00  0.00    +0.000 A 
ATOM      7  C   UNL     1      47.443   9.078  12.134  0.00  0.00    +0.000 A 
ATOM      8 CL   UNL     1      49.153   9.216  12.059  0.00  0.00    +0.000 Cl
ATOM      9  N   UNL     1      47.004   7.890  12.575  0.00  0.00    +0.000 NA
ATOM     10  C   UNL     1      45.682   7.769  12.697  0.00  0.00    +0.000 A 
ATOM     11  N   UNL     1      45.106   6.614  13.227  0.00  0.00    +0.000 N 
ATOM     12  N   UNL     1      44.811   8.739  12.369  0.00  0.00    +0.000 NA
ATOM     13  H   UNL     1      44.107   6.696  13.072  0.00  0.00    +0.000 HD
ENDBRANCH   1  11
BRANCH   1  14
ATOM     14  C   UNL     1      45.075   4.404  12.046  0.00  0.00    +0.000 A 
ATOM     15  C   UNL     1      43.786   3.911  12.196  0.00  0.00    +0.000 A 
ATOM     16  N   UNL     1      43.165   3.154  11.268  0.00  0.00    +0.000 NA
ATOM     17  N   UNL     1      43.824   2.837  10.111  0.00  0.00    +0.000 NA
ATOM     18  C   UNL     1      45.092   3.260   9.906  0.00  0.00    +0.000 A 
ATOM     19  C   UNL     1      45.732   4.039  10.864  0.00  0.00    +0.000 A 
BRANCH  18  20
ATOM     20  C   UNL     1      45.726   2.863   8.634  0.00  0.00    +0.000 A 
ATOM     21  C   UNL     1      45.947   3.803   7.611  0.00  0.00    +0.000 A 
ATOM     22  C   UNL     1      46.548   3.436   6.402  0.00  0.00    +0.000 A 
ATOM     23  C   UNL     1      46.938   2.118   6.189  0.00  0.00    +0.000 A 
ATOM     24  C   UNL     1      46.731   1.167   7.183  0.00  0.00    +0.000 A 
ATOM     25  C   UNL     1      46.130   1.536   8.391  0.00  0.00    +0.000 A 
ENDBRANCH  18  20
ENDBRANCH   1  14
TORSDOF 3
ENDMDL
MODEL 4
REMARK VINA RESULT:    -7.074      3.722      5.130
REMARK INTER + INTRA:          -8.786
REMARK INTER:                  -8.257
REMARK INTRA:                  -0.528
REMARK UNBOUND:                -0.471
REMARK  Name = 
REMARK  4 active torsions:
REMARK  status: ('A' for Active; 'I' for Inactive)
REMARK    1  A    between atoms: C_1  and  C_2
REMARK    2  A    between atoms: N_8  and  C_9
REMARK    3  A    between atoms: C_9  and  C_10
REMARK    4  A    between atoms: C_14  and  C_15
REMARK                            x       y       z     vdW  Elec       q    Type
REMARK                         _______ _______ _______ _____ _____    ______ ____
ROOT
ATOM      1  C   UNL     1      45.171   8.062  11.951  0.00  0.00    +0.000 C 
ATOM      2  C   UNL     1      46.249   7.985  13.027  0.00  0.00    +0.000 C 
ATOM      3  C   UNL     1      46.625   8.344  11.629  0.00  0.00    +0.000 C 
ENDROOT
BRANCH   1  11
ATOM      4  C   UNL     1      40.358  11.466  10.604  0.00  0.00    +0.000 C 
ATOM      5  C   UNL     1      41.734  10.958  10.303  0.00  0.00    +0.000 A 
ATOM      6  C   UNL     1      42.326  11.175   9.084  0.00  0.00    +0.000 A 
ATOM      7  C   UNL     1      43.577  10.629   8.944  0.00  0.00    +0.000 A 
ATOM      8 CL   UNL     1      44.461  10.845   7.488  0.00  0.00    +0.000 Cl
ATOM      9  N   UNL     1      44.221   9.917   9.881  0.00  0.00    +0.000 NA
ATOM     10  C   UNL     1      43.583   9.778  11.043  0.00  0.00    +0.000 A 
ATOM     11  N   UNL     1      44.184   9.134  12.126  0.00  0.00    +0.000 N 
ATOM     12  N   UNL     1      42.356  10.270  11.284  0.00  0.00    +0.000 NA
ATOM     13  H   UNL     1      43.459   9.017  12.826  0.00  0.00    +0.000 HD
ENDBRANCH   1  11
BRANCH   1  14
ATOM     14  C   UNL     1      44.581   6.755  11.449  0.00  0.00    +0.000 A 
ATOM     15  C   UNL     1      43.322   6.314  11.834  0.00  0.00    +0.000 A 
ATOM     16  N   UNL     1      42.758   5.178  11.374  0.00  0.00    +0.000 NA
ATOM     17  N   UNL     1      43.446   4.401  10.483  0.00  0.00    +0.000 NA
ATOM     18  C   UNL     1      44.689   4.753  10.082  0.00  0.00    +0.000 A 
ATOM     19  C   UNL     1      45.271   5.923  10.559  0.00  0.00    +0.000 A 
BRANCH  18  20
ATOM     20  C   UNL     1      45.358   3.849   9.127  0.00  0.00    +0.000 A 
ATOM     21  C   UNL     1      45.313   2.453   9.297  0.00  0.00    +0.000 A 
ATOM     22  C   UNL     1      45.944   1.589   8.397  0.00  0.00    +0.000 A 
ATOM     23  C   UNL     1      46.637   2.103   7.305  0.00  0.00    +0.000 A 
ATOM     24  C   UNL     1      46.698   3.479   7.112  0.00  0.00    +0.000 A 
ATOM     25  C   UNL     1      46.067   4.342   8.015  0.00  0.00    +0.000 A 
ENDBRANCH  18  20
ENDBRANCH   1  14
TORSDOF 3
ENDMDL
MODEL 5
REMARK VINA RESULT:    -6.776      2.886      5.307
REMARK INTER + INTRA:          -8.435
REMARK INTER:                  -7.864
REMARK INTRA:                  -0.571
REMARK UNBOUND:                -0.471
REMARK  Name = 
REMARK  4 active torsions:
REMARK  status: ('A' for Active; 'I' for Inactive)
REMARK    1  A    between atoms: C_1  and  C_2
REMARK    2  A    between atoms: N_8  and  C_9
REMARK    3  A    between atoms: C_9  and  C_10
REMARK    4  A    between atoms: C_14  and  C_15
REMARK                            x       y       z     vdW  Elec       q    Type
REMARK                         _______ _______ _______ _____ _____    ______ ____
ROOT
ATOM      1  C   UNL     1      48.926   8.176  12.563  0.00  0.00    +0.000 C 
ATOM      2  C   UNL     1      49.830   8.638  11.425  0.00  0.00    +0.000 C 
ATOM      3  C   UNL     1      49.367   9.621  12.447  0.00  0.00    +0.000 C 
ENDROOT
BRANCH   1  11
ATOM      4  C   UNL     1      49.251   4.606  17.433  0.00  0.00    +0.000 C 
ATOM      5  C   UNL     1      49.097   5.955  16.800  0.00  0.00    +0.000 A 
ATOM      6  C   UNL     1      48.710   7.049  17.531  0.00  0.00    +0.000 A 
ATOM      7  C   UNL     1      48.588   8.210  16.812  0.00  0.00    +0.000 A 
ATOM      8 CL   UNL     1      48.144   9.674  17.595  0.00  0.00    +0.000 Cl
ATOM      9  N   UNL     1      48.802   8.331  15.494  0.00  0.00    +0.000 NA
ATOM     10  C   UNL     1      49.201   7.225  14.867  0.00  0.00    +0.000 A 
ATOM     11  N   UNL     1      49.541   7.241  13.514  0.00  0.00    +0.000 N 
ATOM     12  N   UNL     1      49.350   6.036  15.475  0.00  0.00    +0.000 NA
ATOM     13  H   UNL     1      49.655   6.273  13.237  0.00  0.00    +0.000 HD
ENDBRANCH   1  11
BRANCH   1  14
ATOM     14  C   UNL     1      47.479   7.854  12.229  0.00  0.00    +0.000 A 
ATOM     15  C   UNL     1      46.437   8.717  12.540  0.00  0.00    +0.000 A 
ATOM     16  N   UNL     1      45.148   8.474  12.221  0.00  0.00    +0.000 NA
ATOM     17  N   UNL     1      44.827   7.321  11.559  0.00  0.00    +0.000 NA
ATOM     18  C   UNL     1      45.786   6.420  11.246  0.00  0.00    +0.000 A 
ATOM     19  C   UNL     1      47.114   6.669  11.577  0.00  0.00    +0.000 A 
BRANCH  18  20
ATOM     20  C   UNL     1      45.346   5.201  10.541  0.00  0.00    +0.000 A 
ATOM     21  C   UNL     1      45.605   5.024   9.170  0.00  0.00    +0.000 A 
ATOM     22  C   UNL     1      45.192   3.871   8.493  0.00  0.00    +0.000 A 
ATOM     23  C   UNL     1      44.508   2.870   9.174  0.00  0.00    +0.000 A 
ATOM     24  C   UNL     1      44.237   3.019  10.531  0.00  0.00    +0.000 A 
ATOM     25  C   UNL     1      44.650   4.172  11.205  0.00  0.00    +0.000 A 
ENDBRANCH  18  20
ENDBRANCH   1  14
TORSDOF 3
ENDMDL
MODEL 6
REMARK VINA RESULT:    -6.445      5.653      8.830
REMARK INTER + INTRA:          -8.045
REMARK INTER:                  -7.398
REMARK INTRA:                  -0.647
REMARK UNBOUND:                -0.471
REMARK  Name = 
REMARK  4 active torsions:
REMARK  status: ('A' for Active; 'I' for Inactive)
REMARK    1  A    between atoms: C_1  and  C_2
REMARK    2  A    between atoms: N_8  and  C_9
REMARK    3  A    between atoms: C_9  and  C_10
REMARK    4  A    between atoms: C_14  and  C_15
REMARK                            x       y       z     vdW  Elec       q    Type
REMARK                         _______ _______ _______ _____ _____    ______ ____
ROOT
ATOM      1  C   UNL     1      48.494   5.367  17.657  0.00  0.00    +0.000 C 
ATOM      2  C   UNL     1      47.686   5.448  18.947  0.00  0.00    +0.000 C 
ATOM      3  C   UNL     1      49.036   6.078  18.880  0.00  0.00    +0.000 C 
ENDROOT
BRANCH   1  11
ATOM      4  C   UNL     1      48.117   7.342  11.953  0.00  0.00    +0.000 C 
ATOM      5  C   UNL     1      48.812   7.276  13.278  0.00  0.00    +0.000 A 
ATOM      6  C   UNL     1      50.089   7.751  13.441  0.00  0.00    +0.000 A 
ATOM      7  C   UNL     1      50.606   7.600  14.702  0.00  0.00    +0.000 A 
ATOM      8 CL   UNL     1      52.181   8.177  15.071  0.00  0.00    +0.000 Cl
ATOM      9  N   UNL     1      49.969   7.031  15.736  0.00  0.00    +0.000 NA
ATOM     10  C   UNL     1      48.723   6.622  15.497  0.00  0.00    +0.000 A 
ATOM     11  N   UNL     1      47.927   6.093  16.513  0.00  0.00    +0.000 N 
ATOM     12  N   UNL     1      48.124   6.719  14.298  0.00  0.00    +0.000 NA
ATOM     13  H   UNL     1      47.100   5.717  16.061  0.00  0.00    +0.000 HD
ENDBRANCH   1  11
BRANCH   1  14
ATOM     14  C   UNL     1      49.110   4.026  17.292  0.00  0.00    +0.000 A 
ATOM     15  C   UNL     1      48.446   3.095  16.506  0.00  0.00    +0.000 A 
ATOM     16  N   UNL     1      48.983   1.914  16.136  0.00  0.00    +0.000 NA
ATOM     17  N   UNL     1      50.248   1.594  16.548  0.00  0.00    +0.000 NA
ATOM     18  C   UNL     1      50.946   2.441  17.339  0.00  0.00    +0.000 A 
ATOM     19  C   UNL     1      50.390   3.657  17.722  0.00  0.00    +0.000 A 
BRANCH  18  20
ATOM     20  C   UNL     1      52.298   2.009  17.743  0.00  0.00    +0.000 A 
ATOM     21  C   UNL     1      53.250   2.938  18.201  0.00  0.00    +0.000 A 
ATOM     22  C   UNL     1      54.533   2.537  18.586  0.00  0.00    +0.000 A 
ATOM     23  C   UNL     1      54.894   1.194  18.520  0.00  0.00    +0.000 A 
ATOM     24  C   UNL     1      53.973   0.254  18.070  0.00  0.00    +0.000 A 
ATOM     25  C   UNL     1      52.690   0.657  17.684  0.00  0.00    +0.000 A 
ENDBRANCH  18  20
ENDBRANCH   1  14
TORSDOF 3
ENDMDL
MODEL 7
REMARK VINA RESULT:    -6.357      4.171      6.528
REMARK INTER + INTRA:          -7.942
REMARK INTER:                  -7.295
REMARK INTRA:                  -0.647
REMARK UNBOUND:                -0.471
REMARK  Name = 
REMARK  4 active torsions:
REMARK  status: ('A' for Active; 'I' for Inactive)
REMARK    1  A    between atoms: C_1  and  C_2
REMARK    2  A    between atoms: N_8  and  C_9
REMARK    3  A    between atoms: C_9  and  C_10
REMARK    4  A    between atoms: C_14  and  C_15
REMARK                            x       y       z     vdW  Elec       q    Type
REMARK                         _______ _______ _______ _____ _____    ______ ____
ROOT
ATOM      1  C   UNL     1      48.360   5.536  17.844  0.00  0.00    +0.000 C 
ATOM      2  C   UNL     1      47.233   5.824  18.830  0.00  0.00    +0.000 C 
ATOM      3  C   UNL     1      48.331   4.889  19.214  0.00  0.00    +0.000 C 
ENDROOT
BRANCH   1  11
ATOM      4  C   UNL     1      52.802   8.547  15.057  0.00  0.00    +0.000 C 
ATOM      5  C   UNL     1      52.319   7.442  15.945  0.00  0.00    +0.000 A 
ATOM      6  C   UNL     1      53.149   6.420  16.331  0.00  0.00    +0.000 A 
ATOM      7  C   UNL     1      52.562   5.467  17.124  0.00  0.00    +0.000 A 
ATOM      8 CL   UNL     1      53.480   4.142  17.717  0.00  0.00    +0.000 Cl
ATOM      9  N   UNL     1      51.279   5.470  17.517  0.00  0.00    +0.000 NA
ATOM     10  C   UNL     1      50.553   6.514  17.118  0.00  0.00    +0.000 A 
ATOM     11  N   UNL     1      49.231   6.677  17.533  0.00  0.00    +0.000 N 
ATOM     12  N   UNL     1      51.029   7.499  16.338  0.00  0.00    +0.000 NA
ATOM     13  H   UNL     1      48.851   7.440  16.984  0.00  0.00    +0.000 HD
ENDBRANCH   1  11
BRANCH   1  14
ATOM     14  C   UNL     1      48.042   4.657  16.646  0.00  0.00    +0.000 A 
ATOM     15  C   UNL     1      48.307   3.295  16.635  0.00  0.00    +0.000 A 
ATOM     16  N   UNL     1      47.999   2.484  15.601  0.00  0.00    +0.000 NA
ATOM     17  N   UNL     1      47.399   3.012  14.491  0.00  0.00    +0.000 NA
ATOM     18  C   UNL     1      47.135   4.337  14.419  0.00  0.00    +0.000 A 
ATOM     19  C   UNL     1      47.454   5.172  15.484  0.00  0.00    +0.000 A 
BRANCH  18  20
ATOM     20  C   UNL     1      46.494   4.818  13.180  0.00  0.00    +0.000 A 
ATOM     21  C   UNL     1      45.593   4.007  12.468  0.00  0.00    +0.000 A 
ATOM     22  C   UNL     1      44.980   4.455  11.293  0.00  0.00    +0.000 A 
ATOM     23  C   UNL     1      45.258   5.727  10.802  0.00  0.00    +0.000 A 
ATOM     24  C   UNL     1      46.147   6.551  11.486  0.00  0.00    +0.000 A 
ATOM     25  C   UNL     1      46.758   6.101  12.660  0.00  0.00    +0.000 A 
ENDBRANCH  18  20
ENDBRANCH   1  14
TORSDOF 3
ENDMDL
MODEL 8
REMARK VINA RESULT:    -6.219      4.670      7.190
REMARK INTER + INTRA:          -7.780
REMARK INTER:                  -7.703
REMARK INTRA:                  -0.077
REMARK UNBOUND:                -0.471
REMARK  Name = 
REMARK  4 active torsions:
REMARK  status: ('A' for Active; 'I' for Inactive)
REMARK    1  A    between atoms: C_1  and  C_2
REMARK    2  A    between atoms: N_8  and  C_9
REMARK    3  A    between atoms: C_9  and  C_10
REMARK    4  A    between atoms: C_14  and  C_15
REMARK                            x       y       z     vdW  Elec       q    Type
REMARK                         _______ _______ _______ _____ _____    ______ ____
ROOT
ATOM      1  C   UNL     1      47.773   4.232  17.565  0.00  0.00    +0.000 C 
ATOM      2  C   UNL     1      47.331   2.772  17.571  0.00  0.00    +0.000 C 
ATOM      3  C   UNL     1      48.754   3.115  17.860  0.00  0.00    +0.000 C 
ENDROOT
BRANCH   1  11
ATOM      4  C   UNL     1      47.173   9.091  21.115  0.00  0.00    +0.000 C 
ATOM      5  C   UNL     1      47.951   7.908  20.626  0.00  0.00    +0.000 A 
ATOM      6  C   UNL     1      49.273   7.738  20.950  0.00  0.00    +0.000 A 
ATOM      7  C   UNL     1      49.862   6.623  20.410  0.00  0.00    +0.000 A 
ATOM      8 CL   UNL     1      51.504   6.255  20.752  0.00  0.00    +0.000 Cl
ATOM      9  N   UNL     1      49.251   5.736  19.610  0.00  0.00    +0.000 NA
ATOM     10  C   UNL     1      47.961   5.964  19.370  0.00  0.00    +0.000 A 
ATOM     11  N   UNL     1      47.193   5.068  18.624  0.00  0.00    +0.000 N 
ATOM     12  N   UNL     1      47.289   7.027  19.846  0.00  0.00    +0.000 NA
ATOM     13  H   UNL     1      46.307   5.528  18.449  0.00  0.00    +0.000 HD
ENDBRANCH   1  11
BRANCH   1  14
ATOM     14  C   UNL     1      47.886   4.930  16.220  0.00  0.00    +0.000 A 
ATOM     15  C   UNL     1      48.853   5.891  15.964  0.00  0.00    +0.000 A 
ATOM     16  N   UNL     1      49.001   6.498  14.768  0.00  0.00    +0.000 NA
ATOM     17  N   UNL     1      48.161   6.168  13.740  0.00  0.00    +0.000 NA
ATOM     18  C   UNL     1      47.176   5.259  13.924  0.00  0.00    +0.000 A 
ATOM     19  C   UNL     1      47.023   4.635  15.157  0.00  0.00    +0.000 A 
BRANCH  18  20
ATOM     20  C   UNL     1      46.313   4.974  12.762  0.00  0.00    +0.000 A 
ATOM     21  C   UNL     1      46.157   5.913  11.726  0.00  0.00    +0.000 A 
ATOM     22  C   UNL     1      45.342   5.650  10.621  0.00  0.00    +0.000 A 
ATOM     23  C   UNL     1      44.660   4.441  10.528  0.00  0.00    +0.000 A 
ATOM     24  C   UNL     1      44.795   3.493  11.538  0.00  0.00    +0.000 A 
ATOM     25  C   UNL     1      45.610   3.758  12.643  0.00  0.00    +0.000 A 
ENDBRANCH  18  20
ENDBRANCH   1  14
TORSDOF 3
ENDMDL
MODEL 9
REMARK VINA RESULT:    -6.174      5.066      7.522
REMARK INTER + INTRA:          -7.727
REMARK INTER:                  -7.356
REMARK INTRA:                  -0.371
REMARK UNBOUND:                -0.471
REMARK  Name = 
REMARK  4 active torsions:
REMARK  status: ('A' for Active; 'I' for Inactive)
REMARK    1  A    between atoms: C_1  and  C_2
REMARK    2  A    between atoms: N_8  and  C_9
REMARK    3  A    between atoms: C_9  and  C_10
REMARK    4  A    between atoms: C_14  and  C_15
REMARK                            x       y       z     vdW  Elec       q    Type
REMARK                         _______ _______ _______ _____ _____    ______ ____
ROOT
ATOM      1  C   UNL     1      43.732  10.899  10.580  0.00  0.00    +0.000 C 
ATOM      2  C   UNL     1      44.449  11.563   9.409  0.00  0.00    +0.000 C 
ATOM      3  C   UNL     1      43.294  10.655   9.151  0.00  0.00    +0.000 C 
ENDROOT
BRANCH   1  11
ATOM      4  C   UNL     1      39.715  12.549  14.789  0.00  0.00    +0.000 C 
ATOM      5  C   UNL     1      40.051  11.997  13.437  0.00  0.00    +0.000 A 
ATOM      6  C   UNL     1      39.099  11.401  12.650  0.00  0.00    +0.000 A 
ATOM      7  C   UNL     1      39.559  10.921  11.450  0.00  0.00    +0.000 A 
ATOM      8 CL   UNL     1      38.479  10.179  10.339  0.00  0.00    +0.000 Cl
ATOM      9  N   UNL     1      40.830  10.986  11.026  0.00  0.00    +0.000 NA
ATOM     10  C   UNL     1      41.682  11.605  11.843  0.00  0.00    +0.000 A 
ATOM     11  N   UNL     1      43.013  11.814  11.477  0.00  0.00    +0.000 N 
ATOM     12  N   UNL     1      41.337  12.108  13.040  0.00  0.00    +0.000 NA
ATOM     13  H   UNL     1      43.487  12.152  12.306  0.00  0.00    +0.000 HD
ENDBRANCH   1  11
BRANCH   1  14
ATOM     14  C   UNL     1      44.450   9.769  11.298  0.00  0.00    +0.000 A 
ATOM     15  C   UNL     1      45.476  10.000  12.204  0.00  0.00    +0.000 A 
ATOM     16  N   UNL     1      46.105   9.019  12.885  0.00  0.00    +0.000 NA
ATOM     17  N   UNL     1      45.731   7.719  12.684  0.00  0.00    +0.000 NA
ATOM     18  C   UNL     1      44.756   7.414  11.796  0.00  0.00    +0.000 A 
ATOM     19  C   UNL     1      44.110   8.426  11.094  0.00  0.00    +0.000 A 
BRANCH  18  20
ATOM     20  C   UNL     1      44.426   5.985  11.638  0.00  0.00    +0.000 A 
ATOM     21  C   UNL     1      43.568   5.335  12.544  0.00  0.00    +0.000 A 
ATOM     22  C   UNL     1      43.249   3.981  12.402  0.00  0.00    +0.000 A 
ATOM     23  C   UNL     1      43.784   3.244  11.350  0.00  0.00    +0.000 A 
ATOM     24  C   UNL     1      44.636   3.861  10.439  0.00  0.00    +0.000 A 
ATOM     25  C   UNL     1      44.954   5.215  10.583  0.00  0.00    +0.000 A 
ENDBRANCH  18  20
ENDBRANCH   1  14
TORSDOF 3
ENDMDL
