MODEL 1
REMARK VINA RESULT:    -7.478      0.000      0.000
REMARK INTER + INTRA:         -11.061
REMARK INTER:                 -10.101
REMARK INTRA:                  -0.960
REMARK UNBOUND:                -0.960
REMARK  Name = 
REMARK  7 active torsions:
REMARK  status: ('A' for Active; 'I' for Inactive)
REMARK    1  A    between atoms: C_1  and  N_2
REMARK    2  A    between atoms: C_4  and  C_5
REMARK    3  A    between atoms: N_7  and  C_8
REMARK    4  A    between atoms: C_8  and  C_9
REMARK    5  A    between atoms: C_12  and  N_13
REMARK    6  A    between atoms: N_13  and  C_14
REMARK    7  A    between atoms: C_14  and  C_15
REMARK                            x       y       z     vdW  Elec       q    Type
REMARK                         _______ _______ _______ _____ _____    ______ ____
ROOT
ATOM      1  C   UNL     1      48.301   6.532  14.107  0.00  0.00    +0.000 C 
ENDROOT
BRANCH   1   2
ATOM      2  C   UNL     1      47.268   5.806  13.295  0.00  0.00    +0.000 A 
ATOM      3  C   UNL     1      46.850   4.527  13.677  0.00  0.00    +0.000 A 
ATOM      4  C   UNL     1      45.896   3.836  12.924  0.00  0.00    +0.000 A 
ATOM      5  C   UNL     1      45.320   4.409  11.791  0.00  0.00    +0.000 A 
ATOM      6  C   UNL     1      45.740   5.692  11.418  0.00  0.00    +0.000 A 
ATOM      7  C   UNL     1      46.702   6.386  12.156  0.00  0.00    +0.000 A 
BRANCH   5   8
ATOM      8  N   UNL     1      44.457   3.740  10.943  0.00  0.00    +0.000 N 
ATOM      9  H   UNL     1      44.445   2.733  11.063  0.00  0.00    +0.000 HD
BRANCH   8  10
ATOM     10  C   UNL     1      44.072   4.247   9.639  0.00  0.00    +0.000 C 
BRANCH  10  11
ATOM     11  C   UNL     1      44.795   3.438   8.556  0.00  0.00    +0.000 C 
ATOM     12  C   UNL     1      45.283   2.091   9.103  0.00  0.00    +0.000 C 
ATOM     13  C   UNL     1      46.079   1.346   8.039  0.00  0.00    +0.000 C 
ATOM     14  O   UNL     1      47.169   2.140   7.572  0.00  0.00    +0.000 OA
ATOM     15  C   UNL     1      46.732   3.354   6.965  0.00  0.00    +0.000 C 
ATOM     16  C   UNL     1      45.984   4.215   7.968  0.00  0.00    +0.000 C 
ENDBRANCH  10  11
ENDBRANCH   8  10
ENDBRANCH   5   8
ENDBRANCH   1   2
BRANCH   1  19
ATOM     17  C   UNL     1      49.102   6.289  16.387  0.00  0.00    +0.000 C 
ATOM     18  O   UNL     1      50.239   6.127  15.960  0.00  0.00    +0.000 OA
ATOM     19  N   UNL     1      48.045   6.503  15.525  0.00  0.00    +0.000 N 
ATOM     20  H   UNL     1      47.121   6.645  15.921  0.00  0.00    +0.000 HD
BRANCH  17  24
ATOM     21  C   UNL     1      48.586   4.618  20.918  0.00  0.00    +0.000 C 
ATOM     22  N   UNL     1      48.545   5.540  19.809  0.00  0.00    +0.000 N 
ATOM     23  N   UNL     1      48.950   5.168  18.574  0.00  0.00    +0.000 NA
ATOM     24  C   UNL     1      48.764   6.282  17.822  0.00  0.00    +0.000 A 
ATOM     25  C   UNL     1      48.239   7.359  18.603  0.00  0.00    +0.000 A 
ATOM     26  C   UNL     1      47.836   8.686  18.495  0.00  0.00    +0.000 A 
ATOM     27 CL   UNL     1      47.889   9.542  17.037  0.00  0.00    +0.000 Cl
ATOM     28  N   UNL     1      47.373   9.375  19.552  0.00  0.00    +0.000 NA
ATOM     29  C   UNL     1      47.313   8.733  20.725  0.00  0.00    +0.000 A 
ATOM     30  N   UNL     1      47.662   7.463  20.979  0.00  0.00    +0.000 NA
ATOM     31  C   UNL     1      48.119   6.830  19.878  0.00  0.00    +0.000 A 
ENDBRANCH  17  24
ENDBRANCH   1  19
TORSDOF 6
ENDMDL
MODEL 2
REMARK VINA RESULT:    -7.464      2.343      3.147
REMARK INTER + INTRA:         -11.042
REMARK INTER:                 -10.082
REMARK INTRA:                  -0.960
REMARK UNBOUND:                -0.960
REMARK  Name = 
REMARK  7 active torsions:
REMARK  status: ('A' for Active; 'I' for Inactive)
REMARK    1  A    between atoms: C_1  and  N_2
REMARK    2  A    between atoms: C_4  and  C_5
REMARK    3  A    between atoms: N_7  and  C_8
REMARK    4  A    between atoms: C_8  and  C_9
REMARK    5  A    between atoms: C_12  and  N_13
REMARK    6  A    between atoms: N_13  and  C_14
REMARK    7  A    between atoms: C_14  and  C_15
REMARK                            x       y       z     vdW  Elec       q    Type
REMARK                         _______ _______ _______ _____ _____    ______ ____
ROOT
ATOM      1  C   UNL     1      47.016   7.794  13.215  0.00  0.00    +0.000 C 
ENDROOT
BRANCH   1   2
ATOM      2  C   UNL     1      46.271   6.802  12.371  0.00  0.00    +0.000 A 
ATOM      3  C   UNL     1      46.609   6.637  11.024  0.00  0.00    +0.000 A 
ATOM      4  C   UNL     1      45.917   5.724  10.223  0.00  0.00    +0.000 A 
ATOM      5  C   UNL     1      44.890   4.939  10.749  0.00  0.00    +0.000 A 
ATOM      6  C   UNL     1      44.561   5.107  12.100  0.00  0.00    +0.000 A 
ATOM      7  C   UNL     1      45.238   6.026  12.905  0.00  0.00    +0.000 A 
BRANCH   5   8
ATOM      8  N   UNL     1      44.096   4.100   9.989  0.00  0.00    +0.000 N 
ATOM      9  H   UNL     1      43.110   4.337   9.992  0.00  0.00    +0.000 HD
BRANCH   8  10
ATOM     10  C   UNL     1      44.435   2.715   9.720  0.00  0.00    +0.000 C 
BRANCH  10  11
ATOM     11  C   UNL     1      45.630   2.671   8.762  0.00  0.00    +0.000 C 
ATOM     12  C   UNL     1      45.369   3.516   7.510  0.00  0.00    +0.000 C 
ATOM     13  C   UNL     1      46.529   3.381   6.531  0.00  0.00    +0.000 C 
ATOM     14  O   UNL     1      46.753   2.014   6.194  0.00  0.00    +0.000 OA
ATOM     15  C   UNL     1      47.100   1.227   7.331  0.00  0.00    +0.000 C 
ATOM     16  C   UNL     1      45.971   1.230   8.349  0.00  0.00    +0.000 C 
ENDBRANCH  10  11
ENDBRANCH   8  10
ENDBRANCH   5   8
ENDBRANCH   1   2
BRANCH   1  19
ATOM     17  C   UNL     1      48.713   6.903  14.707  0.00  0.00    +0.000 C 
ATOM     18  O   UNL     1      49.541   7.002  13.809  0.00  0.00    +0.000 OA
ATOM     19  N   UNL     1      47.401   7.280  14.505  0.00  0.00    +0.000 N 
ATOM     20  H   UNL     1      46.751   7.194  15.280  0.00  0.00    +0.000 HD
BRANCH  17  24
ATOM     21  C   UNL     1      50.615   6.777  19.173  0.00  0.00    +0.000 C 
ATOM     22  N   UNL     1      49.869   6.352  18.015  0.00  0.00    +0.000 N 
ATOM     23  N   UNL     1      49.807   7.118  16.902  0.00  0.00    +0.000 NA
ATOM     24  C   UNL     1      49.033   6.396  16.053  0.00  0.00    +0.000 A 
ATOM     25  C   UNL     1      48.610   5.167  16.649  0.00  0.00    +0.000 A 
ATOM     26  C   UNL     1      47.858   4.028  16.377  0.00  0.00    +0.000 A 
ATOM     27 CL   UNL     1      47.078   3.779  14.897  0.00  0.00    +0.000 Cl
ATOM     28  N   UNL     1      47.706   3.045  17.281  0.00  0.00    +0.000 NA
ATOM     29  C   UNL     1      48.310   3.203  18.466  0.00  0.00    +0.000 A 
ATOM     30  N   UNL     1      49.063   4.238  18.867  0.00  0.00    +0.000 NA
ATOM     31  C   UNL     1      49.173   5.187  17.915  0.00  0.00    +0.000 A 
ENDBRANCH  17  24
ENDBRANCH   1  19
TORSDOF 6
ENDMDL
MODEL 3
REMARK VINA RESULT:    -7.259      3.216      4.503
REMARK INTER + INTRA:         -10.766
REMARK INTER:                  -9.811
REMARK INTRA:                  -0.954
REMARK UNBOUND:                -0.960
REMARK  Name = 
REMARK  7 active torsions:
REMARK  status: ('A' for Active; 'I' for Inactive)
REMARK    1  A    between atoms: C_1  and  N_2
REMARK    2  A    between atoms: C_4  and  C_5
REMARK    3  A    between atoms: N_7  and  C_8
REMARK    4  A    between atoms: C_8  and  C_9
REMARK    5  A    between atoms: C_12  and  N_13
REMARK    6  A    between atoms: N_13  and  C_14
REMARK    7  A    between atoms: C_14  and  C_15
REMARK                            x       y       z     vdW  Elec       q    Type
REMARK                         _______ _______ _______ _____ _____    ______ ____
ROOT
ATOM      1  C   UNL     1      46.899   5.229  14.243  0.00  0.00    +0.000 C 
ENDROOT
BRANCH   1   2
ATOM      2  C   UNL     1      46.198   4.761  13.001  0.00  0.00    +0.000 A 
ATOM      3  C   UNL     1      45.770   3.434  12.898  0.00  0.00    +0.000 A 
ATOM      4  C   UNL     1      45.124   2.981  11.744  0.00  0.00    +0.000 A 
ATOM      5  C   UNL     1      44.871   3.844  10.676  0.00  0.00    +0.000 A 
ATOM      6  C   UNL     1      45.299   5.172  10.789  0.00  0.00    +0.000 A 
ATOM      7  C   UNL     1      45.956   5.630  11.934  0.00  0.00    +0.000 A 
BRANCH   5   8
ATOM      8  N   UNL     1      44.338   3.436   9.468  0.00  0.00    +0.000 N 
ATOM      9  H   UNL     1      43.993   2.482   9.459  0.00  0.00    +0.000 HD
BRANCH   8  10
ATOM     10  C   UNL     1      44.746   3.995   8.192  0.00  0.00    +0.000 C 
BRANCH  10  11
ATOM     11  C   UNL     1      45.591   2.959   7.441  0.00  0.00    +0.000 C 
ATOM     12  C   UNL     1      45.942   1.771   8.343  0.00  0.00    +0.000 C 
ATOM     13  C   UNL     1      46.859   0.802   7.608  0.00  0.00    +0.000 C 
ATOM     14  O   UNL     1      48.034   1.465   7.147  0.00  0.00    +0.000 OA
ATOM     15  C   UNL     1      47.738   2.511   6.224  0.00  0.00    +0.000 C 
ATOM     16  C   UNL     1      46.882   3.580   6.883  0.00  0.00    +0.000 C 
ENDBRANCH  10  11
ENDBRANCH   8  10
ENDBRANCH   5   8
ENDBRANCH   1   2
BRANCH   1  19
ATOM     17  C   UNL     1      48.434   7.032  14.786  0.00  0.00    +0.000 C 
ATOM     18  O   UNL     1      49.191   6.218  15.302  0.00  0.00    +0.000 OA
ATOM     19  N   UNL     1      47.242   6.629  14.219  0.00  0.00    +0.000 N 
ATOM     20  H   UNL     1      46.650   7.333  13.790  0.00  0.00    +0.000 HD
BRANCH  17  24
ATOM     21  C   UNL     1      49.168  11.590  16.291  0.00  0.00    +0.000 C 
ATOM     22  N   UNL     1      49.045  10.474  15.387  0.00  0.00    +0.000 N 
ATOM     23  N   UNL     1      48.749   9.235  15.840  0.00  0.00    +0.000 NA
ATOM     24  C   UNL     1      48.720   8.475  14.715  0.00  0.00    +0.000 A 
ATOM     25  C   UNL     1      49.002   9.256  13.550  0.00  0.00    +0.000 A 
ATOM     26  C   UNL     1      49.128   9.143  12.170  0.00  0.00    +0.000 A 
ATOM     27 CL   UNL     1      48.919   7.679  11.349  0.00  0.00    +0.000 Cl
ATOM     28  N   UNL     1      49.424  10.201  11.395  0.00  0.00    +0.000 NA
ATOM     29  C   UNL     1      49.596  11.380  12.007  0.00  0.00    +0.000 A 
ATOM     30  N   UNL     1      49.505  11.640  13.319  0.00  0.00    +0.000 NA
ATOM     31  C   UNL     1      49.207  10.537  14.037  0.00  0.00    +0.000 A 
ENDBRANCH  17  24
ENDBRANCH   1  19
TORSDOF 6
ENDMDL
MODEL 4
REMARK VINA RESULT:    -7.210      1.373      2.227
REMARK INTER + INTRA:         -10.699
REMARK INTER:                  -9.844
REMARK INTRA:                  -0.856
REMARK UNBOUND:                -0.960
REMARK  Name = 
REMARK  7 active torsions:
REMARK  status: ('A' for Active; 'I' for Inactive)
REMARK    1  A    between atoms: C_1  and  N_2
REMARK    2  A    between atoms: C_4  and  C_5
REMARK    3  A    between atoms: N_7  and  C_8
REMARK    4  A    between atoms: C_8  and  C_9
REMARK    5  A    between atoms: C_12  and  N_13
REMARK    6  A    between atoms: N_13  and  C_14
REMARK    7  A    between atoms: C_14  and  C_15
REMARK                            x       y       z     vdW  Elec       q    Type
REMARK                         _______ _______ _______ _____ _____    ______ ____
ROOT
ATOM      1  C   UNL     1      47.561   7.063  13.699  0.00  0.00    +0.000 C 
ENDROOT
BRANCH   1   2
ATOM      2  C   UNL     1      46.687   6.241  12.798  0.00  0.00    +0.000 A 
ATOM      3  C   UNL     1      46.337   6.721  11.532  0.00  0.00    +0.000 A 
ATOM      4  C   UNL     1      45.516   5.970  10.687  0.00  0.00    +0.000 A 
ATOM      5  C   UNL     1      45.042   4.715  11.072  0.00  0.00    +0.000 A 
ATOM      6  C   UNL     1      45.401   4.239  12.339  0.00  0.00    +0.000 A 
ATOM      7  C   UNL     1      46.210   4.988  13.196  0.00  0.00    +0.000 A 
BRANCH   5   8
ATOM      8  N   UNL     1      44.141   3.973  10.333  0.00  0.00    +0.000 N 
ATOM      9  H   UNL     1      43.168   4.212  10.490  0.00  0.00    +0.000 HD
BRANCH   8  10
ATOM     10  C   UNL     1      44.415   2.625   9.868  0.00  0.00    +0.000 C 
BRANCH  10  11
ATOM     11  C   UNL     1      45.611   2.661   8.910  0.00  0.00    +0.000 C 
ATOM     12  C   UNL     1      45.354   3.616   7.738  0.00  0.00    +0.000 C 
ATOM     13  C   UNL     1      46.514   3.564   6.751  0.00  0.00    +0.000 C 
ATOM     14  O   UNL     1      46.733   2.231   6.295  0.00  0.00    +0.000 OA
ATOM     15  C   UNL     1      47.076   1.345   7.357  0.00  0.00    +0.000 C 
ATOM     16  C   UNL     1      45.946   1.262   8.370  0.00  0.00    +0.000 C 
ENDBRANCH  10  11
ENDBRANCH   8  10
ENDBRANCH   5   8
ENDBRANCH   1   2
BRANCH   1  19
ATOM     17  C   UNL     1      48.915   6.979  15.713  0.00  0.00    +0.000 C 
ATOM     18  O   UNL     1      49.200   8.161  15.560  0.00  0.00    +0.000 OA
ATOM     19  N   UNL     1      48.087   6.328  14.821  0.00  0.00    +0.000 N 
ATOM     20  H   UNL     1      47.866   5.352  14.993  0.00  0.00    +0.000 HD
BRANCH  17  24
ATOM     21  C   UNL     1      51.353   3.507  18.077  0.00  0.00    +0.000 C 
ATOM     22  N   UNL     1      50.485   4.639  17.869  0.00  0.00    +0.000 N 
ATOM     23  N   UNL     1      50.254   5.127  16.629  0.00  0.00    +0.000 NA
ATOM     24  C   UNL     1      49.406   6.165  16.839  0.00  0.00    +0.000 A 
ATOM     25  C   UNL     1      49.108   6.322  18.229  0.00  0.00    +0.000 A 
ATOM     26  C   UNL     1      48.369   7.116  19.100  0.00  0.00    +0.000 A 
ATOM     27 CL   UNL     1      47.408   8.403  18.572  0.00  0.00    +0.000 Cl
ATOM     28  N   UNL     1      48.371   6.905  20.428  0.00  0.00    +0.000 NA
ATOM     29  C   UNL     1      49.118   5.894  20.887  0.00  0.00    +0.000 A 
ATOM     30  N   UNL     1      49.876   5.049  20.173  0.00  0.00    +0.000 NA
ATOM     31  C   UNL     1      49.830   5.316  18.851  0.00  0.00    +0.000 A 
ENDBRANCH  17  24
ENDBRANCH   1  19
TORSDOF 6
ENDMDL
MODEL 5
REMARK VINA RESULT:    -7.158      1.859      2.735
REMARK INTER + INTRA:         -10.629
REMARK INTER:                  -9.854
REMARK INTRA:                  -0.775
REMARK UNBOUND:                -0.960
REMARK  Name = 
REMARK  7 active torsions:
REMARK  status: ('A' for Active; 'I' for Inactive)
REMARK    1  A    between atoms: C_1  and  N_2
REMARK    2  A    between atoms: C_4  and  C_5
REMARK    3  A    between atoms: N_7  and  C_8
REMARK    4  A    between atoms: C_8  and  C_9
REMARK    5  A    between atoms: C_12  and  N_13
REMARK    6  A    between atoms: N_13  and  C_14
REMARK    7  A    between atoms: C_14  and  C_15
REMARK                            x       y       z     vdW  Elec       q    Type
REMARK                         _______ _______ _______ _____ _____    ______ ____
ROOT
ATOM      1  C   UNL     1      46.561   4.348  14.733  0.00  0.00    +0.000 C 
ENDROOT
BRANCH   1   2
ATOM      2  C   UNL     1      46.155   4.523  13.299  0.00  0.00    +0.000 A 
ATOM      3  C   UNL     1      45.505   3.485  12.624  0.00  0.00    +0.000 A 
ATOM      4  C   UNL     1      45.130   3.631  11.285  0.00  0.00    +0.000 A 
ATOM      5  C   UNL     1      45.372   4.819  10.595  0.00  0.00    +0.000 A 
ATOM      6  C   UNL     1      46.019   5.855  11.279  0.00  0.00    +0.000 A 
ATOM      7  C   UNL     1      46.410   5.715  12.613  0.00  0.00    +0.000 A 
BRANCH   5   8
ATOM      8  N   UNL     1      45.128   4.989   9.245  0.00  0.00    +0.000 N 
ATOM      9  H   UNL     1      44.822   5.920   8.986  0.00  0.00    +0.000 HD
BRANCH   8  10
ATOM     10  C   UNL     1      44.730   3.903   8.368  0.00  0.00    +0.000 C 
BRANCH  10  11
ATOM     11  C   UNL     1      45.977   3.113   7.955  0.00  0.00    +0.000 C 
ATOM     12  C   UNL     1      46.319   3.348   6.479  0.00  0.00    +0.000 C 
ATOM     13  C   UNL     1      47.502   2.482   6.067  0.00  0.00    +0.000 C 
ATOM     14  O   UNL     1      47.237   1.104   6.323  0.00  0.00    +0.000 OA
ATOM     15  C   UNL     1      47.018   0.844   7.707  0.00  0.00    +0.000 C 
ATOM     16  C   UNL     1      45.803   1.607   8.209  0.00  0.00    +0.000 C 
ENDBRANCH  10  11
ENDBRANCH   8  10
ENDBRANCH   5   8
ENDBRANCH   1   2
BRANCH   1  19
ATOM     17  C   UNL     1      48.401   5.063  16.149  0.00  0.00    +0.000 C 
ATOM     18  O   UNL     1      48.516   3.916  16.562  0.00  0.00    +0.000 OA
ATOM     19  N   UNL     1      47.437   5.387  15.215  0.00  0.00    +0.000 N 
ATOM     20  H   UNL     1      47.385   6.347  14.889  0.00  0.00    +0.000 HD
BRANCH  17  24
ATOM     21  C   UNL     1      51.980   8.344  16.038  0.00  0.00    +0.000 C 
ATOM     22  N   UNL     1      50.836   7.615  16.528  0.00  0.00    +0.000 N 
ATOM     23  N   UNL     1      50.296   6.599  15.816  0.00  0.00    +0.000 NA
ATOM     24  C   UNL     1      49.264   6.175  16.587  0.00  0.00    +0.000 A 
ATOM     25  C   UNL     1      49.163   6.938  17.792  0.00  0.00    +0.000 A 
ATOM     26  C   UNL     1      48.402   7.045  18.952  0.00  0.00    +0.000 A 
ATOM     27 CL   UNL     1      47.089   6.032  19.281  0.00  0.00    +0.000 Cl
ATOM     28  N   UNL     1      48.668   7.968  19.892  0.00  0.00    +0.000 NA
ATOM     29  C   UNL     1      49.702   8.790  19.671  0.00  0.00    +0.000 A 
ATOM     30  N   UNL     1      50.520   8.804  18.609  0.00  0.00    +0.000 NA
ATOM     31  C   UNL     1      50.197   7.856  17.705  0.00  0.00    +0.000 A 
ENDBRANCH  17  24
ENDBRANCH   1  19
TORSDOF 6
ENDMDL
MODEL 6
REMARK VINA RESULT:    -7.115      1.413      2.417
REMARK INTER + INTRA:         -10.571
REMARK INTER:                  -9.724
REMARK INTRA:                  -0.847
REMARK UNBOUND:                -0.960
REMARK  Name = 
REMARK  7 active torsions:
REMARK  status: ('A' for Active; 'I' for Inactive)
REMARK    1  A    between atoms: C_1  and  N_2
REMARK    2  A    between atoms: C_4  and  C_5
REMARK    3  A    between atoms: N_7  and  C_8
REMARK    4  A    between atoms: C_8  and  C_9
REMARK    5  A    between atoms: C_12  and  N_13
REMARK    6  A    between atoms: N_13  and  C_14
REMARK    7  A    between atoms: C_14  and  C_15
REMARK                            x       y       z     vdW  Elec       q    Type
REMARK                         _______ _______ _______ _____ _____    ______ ____
ROOT
ATOM      1  C   UNL     1      48.437   6.544  13.968  0.00  0.00    +0.000 C 
ENDROOT
BRANCH   1   2
ATOM      2  C   UNL     1      47.337   5.879  13.193  0.00  0.00    +0.000 A 
ATOM      3  C   UNL     1      46.834   4.644  13.613  0.00  0.00    +0.000 A 
ATOM      4  C   UNL     1      45.816   4.008  12.895  0.00  0.00    +0.000 A 
ATOM      5  C   UNL     1      45.263   4.597  11.757  0.00  0.00    +0.000 A 
ATOM      6  C   UNL     1      45.769   5.836  11.346  0.00  0.00    +0.000 A 
ATOM      7  C   UNL     1      46.794   6.472  12.049  0.00  0.00    +0.000 A 
BRANCH   5   8
ATOM      8  N   UNL     1      44.336   3.974  10.942  0.00  0.00    +0.000 N 
ATOM      9  H   UNL     1      43.935   3.127  11.329  0.00  0.00    +0.000 HD
BRANCH   8  10
ATOM     10  C   UNL     1      44.349   4.087   9.495  0.00  0.00    +0.000 C 
BRANCH  10  11
ATOM     11  C   UNL     1      45.543   3.301   8.943  0.00  0.00    +0.000 C 
ATOM     12  C   UNL     1      46.053   3.913   7.633  0.00  0.00    +0.000 C 
ATOM     13  C   UNL     1      47.176   3.063   7.054  0.00  0.00    +0.000 C 
ATOM     14  O   UNL     1      46.747   1.716   6.863  0.00  0.00    +0.000 OA
ATOM     15  C   UNL     1      46.365   1.091   8.086  0.00  0.00    +0.000 C 
ATOM     16  C   UNL     1      45.190   1.822   8.717  0.00  0.00    +0.000 C 
ENDBRANCH  10  11
ENDBRANCH   8  10
ENDBRANCH   5   8
ENDBRANCH   1   2
BRANCH   1  19
ATOM     17  C   UNL     1      49.034   6.592  16.322  0.00  0.00    +0.000 C 
ATOM     18  O   UNL     1      50.147   6.166  16.038  0.00  0.00    +0.000 OA
ATOM     19  N   UNL     1      48.091   6.818  15.340  0.00  0.00    +0.000 N 
ATOM     20  H   UNL     1      47.185   7.184  15.617  0.00  0.00    +0.000 HD
BRANCH  17  24
ATOM     21  C   UNL     1      47.321   9.164  20.068  0.00  0.00    +0.000 C 
ATOM     22  N   UNL     1      47.853   8.040  19.337  0.00  0.00    +0.000 N 
ATOM     23  N   UNL     1      48.142   8.136  18.019  0.00  0.00    +0.000 NA
ATOM     24  C   UNL     1      48.611   6.904  17.698  0.00  0.00    +0.000 A 
ATOM     25  C   UNL     1      48.610   6.033  18.833  0.00  0.00    +0.000 A 
ATOM     26  C   UNL     1      48.932   4.732  19.206  0.00  0.00    +0.000 A 
ATOM     27 CL   UNL     1      49.561   3.598  18.120  0.00  0.00    +0.000 Cl
ATOM     28  N   UNL     1      48.763   4.293  20.465  0.00  0.00    +0.000 NA
ATOM     29  C   UNL     1      48.269   5.160  21.357  0.00  0.00    +0.000 A 
ATOM     30  N   UNL     1      47.917   6.437  21.145  0.00  0.00    +0.000 NA
ATOM     31  C   UNL     1      48.110   6.812  19.864  0.00  0.00    +0.000 A 
ENDBRANCH  17  24
ENDBRANCH   1  19
TORSDOF 6
ENDMDL
MODEL 7
REMARK VINA RESULT:    -7.102      2.353      2.867
REMARK INTER + INTRA:         -10.554
REMARK INTER:                  -9.565
REMARK INTRA:                  -0.989
REMARK UNBOUND:                -0.960
REMARK  Name = 
REMARK  7 active torsions:
REMARK  status: ('A' for Active; 'I' for Inactive)
REMARK    1  A    between atoms: C_1  and  N_2
REMARK    2  A    between atoms: C_4  and  C_5
REMARK    3  A    between atoms: N_7  and  C_8
REMARK    4  A    between atoms: C_8  and  C_9
REMARK    5  A    between atoms: C_12  and  N_13
REMARK    6  A    between atoms: N_13  and  C_14
REMARK    7  A    between atoms: C_14  and  C_15
REMARK                            x       y       z     vdW  Elec       q    Type
REMARK                         _______ _______ _______ _____ _____    ______ ____
ROOT
ATOM      1  C   UNL     1      48.051   8.528  14.165  0.00  0.00    +0.000 C 
ENDROOT
BRANCH   1   2
ATOM      2  C   UNL     1      47.094   7.867  13.218  0.00  0.00    +0.000 A 
ATOM      3  C   UNL     1      47.423   6.640  12.634  0.00  0.00    +0.000 A 
ATOM      4  C   UNL     1      46.545   6.016  11.742  0.00  0.00    +0.000 A 
ATOM      5  C   UNL     1      45.311   6.589  11.429  0.00  0.00    +0.000 A 
ATOM      6  C   UNL     1      44.987   7.815  12.021  0.00  0.00    +0.000 A 
ATOM      7  C   UNL     1      45.863   8.452  12.904  0.00  0.00    +0.000 A 
BRANCH   5   8
ATOM      8  N   UNL     1      44.449   6.083  10.475  0.00  0.00    +0.000 N 
ATOM      9  H   UNL     1      43.953   6.786   9.938  0.00  0.00    +0.000 HD
BRANCH   8  10
ATOM     10  C   UNL     1      43.815   4.782  10.588  0.00  0.00    +0.000 C 
BRANCH  10  11
ATOM     11  C   UNL     1      44.266   3.904   9.416  0.00  0.00    +0.000 C 
ATOM     12  C   UNL     1      44.639   2.494   9.890  0.00  0.00    +0.000 C 
ATOM     13  C   UNL     1      45.174   1.669   8.726  0.00  0.00    +0.000 C 
ATOM     14  O   UNL     1      46.285   2.319   8.111  0.00  0.00    +0.000 OA
ATOM     15  C   UNL     1      45.935   3.591   7.570  0.00  0.00    +0.000 C 
ATOM     16  C   UNL     1      45.455   4.526   8.668  0.00  0.00    +0.000 C 
ENDBRANCH  10  11
ENDBRANCH   8  10
ENDBRANCH   5   8
ENDBRANCH   1   2
BRANCH   1  19
ATOM     17  C   UNL     1      49.401   7.047  15.537  0.00  0.00    +0.000 C 
ATOM     18  O   UNL     1      50.242   7.004  14.646  0.00  0.00    +0.000 OA
ATOM     19  N   UNL     1      48.251   7.795  15.389  0.00  0.00    +0.000 N 
ATOM     20  H   UNL     1      47.587   7.814  16.157  0.00  0.00    +0.000 HD
BRANCH  17  24
ATOM     21  C   UNL     1      50.992   6.018  20.008  0.00  0.00    +0.000 C 
ATOM     22  N   UNL     1      50.241   5.891  18.784  0.00  0.00    +0.000 N 
ATOM     23  N   UNL     1      50.394   6.778  17.774  0.00  0.00    +0.000 NA
ATOM     24  C   UNL     1      49.539   6.333  16.818  0.00  0.00    +0.000 A 
ATOM     25  C   UNL     1      48.848   5.155  17.243  0.00  0.00    +0.000 A 
ATOM     26  C   UNL     1      47.901   4.233  16.808  0.00  0.00    +0.000 A 
ATOM     27 CL   UNL     1      47.170   4.321  15.286  0.00  0.00    +0.000 Cl
ATOM     28  N   UNL     1      47.508   3.204  17.578  0.00  0.00    +0.000 NA
ATOM     29  C   UNL     1      48.065   3.096  18.791  0.00  0.00    +0.000 A 
ATOM     30  N   UNL     1      48.985   3.902  19.341  0.00  0.00    +0.000 NA
ATOM     31  C   UNL     1      49.334   4.913  18.518  0.00  0.00    +0.000 A 
ENDBRANCH  17  24
ENDBRANCH   1  19
TORSDOF 6
ENDMDL
MODEL 8
REMARK VINA RESULT:    -7.082      2.853      3.699
REMARK INTER + INTRA:         -10.527
REMARK INTER:                  -9.752
REMARK INTRA:                  -0.775
REMARK UNBOUND:                -0.960
REMARK  Name = 
REMARK  7 active torsions:
REMARK  status: ('A' for Active; 'I' for Inactive)
REMARK    1  A    between atoms: C_1  and  N_2
REMARK    2  A    between atoms: C_4  and  C_5
REMARK    3  A    between atoms: N_7  and  C_8
REMARK    4  A    between atoms: C_8  and  C_9
REMARK    5  A    between atoms: C_12  and  N_13
REMARK    6  A    between atoms: N_13  and  C_14
REMARK    7  A    between atoms: C_14  and  C_15
REMARK                            x       y       z     vdW  Elec       q    Type
REMARK                         _______ _______ _______ _____ _____    ______ ____
ROOT
ATOM      1  C   UNL     1      46.468   4.413  14.591  0.00  0.00    +0.000 C 
ENDROOT
BRANCH   1   2
ATOM      2  C   UNL     1      46.081   4.547  13.147  0.00  0.00    +0.000 A 
ATOM      3  C   UNL     1      45.421   3.498  12.499  0.00  0.00    +0.000 A 
ATOM      4  C   UNL     1      45.064   3.605  11.152  0.00  0.00    +0.000 A 
ATOM      5  C   UNL     1      45.335   4.765  10.426  0.00  0.00    +0.000 A 
ATOM      6  C   UNL     1      45.992   5.813  11.083  0.00  0.00    +0.000 A 
ATOM      7  C   UNL     1      46.364   5.710  12.425  0.00  0.00    +0.000 A 
BRANCH   5   8
ATOM      8  N   UNL     1      45.109   4.894   9.068  0.00  0.00    +0.000 N 
ATOM      9  H   UNL     1      44.781   5.809   8.780  0.00  0.00    +0.000 HD
BRANCH   8  10
ATOM     10  C   UNL     1      44.759   3.775   8.212  0.00  0.00    +0.000 C 
BRANCH  10  11
ATOM     11  C   UNL     1      46.040   3.042   7.800  0.00  0.00    +0.000 C 
ATOM     12  C   UNL     1      46.340   3.245   6.310  0.00  0.00    +0.000 C 
ATOM     13  C   UNL     1      47.562   2.431   5.902  0.00  0.00    +0.000 C 
ATOM     14  O   UNL     1      47.379   1.051   6.210  0.00  0.00    +0.000 OA
ATOM     15  C   UNL     1      47.201   0.827   7.606  0.00  0.00    +0.000 C 
ATOM     16  C   UNL     1      45.955   1.538   8.108  0.00  0.00    +0.000 C 
ENDBRANCH  10  11
ENDBRANCH   8  10
ENDBRANCH   5   8
ENDBRANCH   1   2
BRANCH   1  19
ATOM     17  C   UNL     1      48.053   5.176  16.265  0.00  0.00    +0.000 C 
ATOM     18  O   UNL     1      47.524   4.439  17.089  0.00  0.00    +0.000 OA
ATOM     19  N   UNL     1      47.590   5.235  14.966  0.00  0.00    +0.000 N 
ATOM     20  H   UNL     1      48.066   5.849  14.313  0.00  0.00    +0.000 HD
BRANCH  17  24
ATOM     21  C   UNL     1      50.709   9.219  16.700  0.00  0.00    +0.000 C 
ATOM     22  N   UNL     1      50.366   7.819  16.763  0.00  0.00    +0.000 N 
ATOM     23  N   UNL     1      49.151   7.378  16.368  0.00  0.00    +0.000 NA
ATOM     24  C   UNL     1      49.209   6.037  16.571  0.00  0.00    +0.000 A 
ATOM     25  C   UNL     1      50.478   5.644  17.101  0.00  0.00    +0.000 A 
ATOM     26  C   UNL     1      51.182   4.519  17.517  0.00  0.00    +0.000 A 
ATOM     27 CL   UNL     1      50.524   2.962  17.475  0.00  0.00    +0.000 Cl
ATOM     28  N   UNL     1      52.442   4.601  17.979  0.00  0.00    +0.000 NA
ATOM     29  C   UNL     1      53.000   5.817  18.027  0.00  0.00    +0.000 A 
ATOM     30  N   UNL     1      52.449   6.983  17.661  0.00  0.00    +0.000 NA
ATOM     31  C   UNL     1      51.187   6.830  17.209  0.00  0.00    +0.000 A 
ENDBRANCH  17  24
ENDBRANCH   1  19
TORSDOF 6
ENDMDL
MODEL 9
REMARK VINA RESULT:    -6.869      2.495      3.390
REMARK INTER + INTRA:         -10.239
REMARK INTER:                  -9.504
REMARK INTRA:                  -0.735
REMARK UNBOUND:                -0.960
REMARK  Name = 
REMARK  7 active torsions:
REMARK  status: ('A' for Active; 'I' for Inactive)
REMARK    1  A    between atoms: C_1  and  N_2
REMARK    2  A    between atoms: C_4  and  C_5
REMARK    3  A    between atoms: N_7  and  C_8
REMARK    4  A    between atoms: C_8  and  C_9
REMARK    5  A    between atoms: C_12  and  N_13
REMARK    6  A    between atoms: N_13  and  C_14
REMARK    7  A    between atoms: C_14  and  C_15
REMARK                            x       y       z     vdW  Elec       q    Type
REMARK                         _______ _______ _______ _____ _____    ______ ____
ROOT
ATOM      1  C   UNL     1      46.794   7.048  13.286  0.00  0.00    +0.000 C 
ENDROOT
BRANCH   1   2
ATOM      2  C   UNL     1      46.121   6.072  12.366  0.00  0.00    +0.000 A 
ATOM      3  C   UNL     1      46.094   6.312  10.989  0.00  0.00    +0.000 A 
ATOM      4  C   UNL     1      45.463   5.416  10.121  0.00  0.00    +0.000 A 
ATOM      5  C   UNL     1      44.865   4.250  10.602  0.00  0.00    +0.000 A 
ATOM      6  C   UNL     1      44.901   4.014  11.981  0.00  0.00    +0.000 A 
ATOM      7  C   UNL     1      45.518   4.910  12.857  0.00  0.00    +0.000 A 
BRANCH   5   8
ATOM      8  N   UNL     1      44.131   3.382   9.815  0.00  0.00    +0.000 N 
ATOM      9  H   UNL     1      43.126   3.468   9.917  0.00  0.00    +0.000 HD
BRANCH   8  10
ATOM     10  C   UNL     1      44.635   2.095   9.371  0.00  0.00    +0.000 C 
BRANCH  10  11
ATOM     11  C   UNL     1      45.849   2.321   8.463  0.00  0.00    +0.000 C 
ATOM     12  C   UNL     1      45.486   3.201   7.261  0.00  0.00    +0.000 C 
ATOM     13  C   UNL     1      46.680   3.334   6.324  0.00  0.00    +0.000 C 
ATOM     14  O   UNL     1      47.143   2.051   5.905  0.00  0.00    +0.000 OA
ATOM     15  C   UNL     1      47.583   1.251   7.000  0.00  0.00    +0.000 C 
ATOM     16  C   UNL     1      46.440   0.992   7.968  0.00  0.00    +0.000 C 
ENDBRANCH  10  11
ENDBRANCH   8  10
ENDBRANCH   5   8
ENDBRANCH   1   2
BRANCH   1  19
ATOM     17  C   UNL     1      48.422   7.234  15.079  0.00  0.00    +0.000 C 
ATOM     18  O   UNL     1      48.313   8.454  15.038  0.00  0.00    +0.000 OA
ATOM     19  N   UNL     1      47.691   6.429  14.229  0.00  0.00    +0.000 N 
ATOM     20  H   UNL     1      47.801   5.423  14.305  0.00  0.00    +0.000 HD
BRANCH  17  24
ATOM     21  C   UNL     1      49.786   4.247  18.656  0.00  0.00    +0.000 C 
ATOM     22  N   UNL     1      49.900   5.211  17.590  0.00  0.00    +0.000 N 
ATOM     23  N   UNL     1      48.808   5.653  16.926  0.00  0.00    +0.000 NA
ATOM     24  C   UNL     1      49.310   6.529  16.020  0.00  0.00    +0.000 A 
ATOM     25  C   UNL     1      50.733   6.631  16.124  0.00  0.00    +0.000 A 
ATOM     26  C   UNL     1      51.821   7.286  15.558  0.00  0.00    +0.000 A 
ATOM     27 CL   UNL     1      51.662   8.399  14.294  0.00  0.00    +0.000 Cl
ATOM     28  N   UNL     1      53.078   7.075  15.985  0.00  0.00    +0.000 NA
ATOM     29  C   UNL     1      53.247   6.202  16.987  0.00  0.00    +0.000 A 
ATOM     30  N   UNL     1      52.300   5.501  17.627  0.00  0.00    +0.000 NA
ATOM     31  C   UNL     1      51.065   5.759  17.149  0.00  0.00    +0.000 A 
ENDBRANCH  17  24
ENDBRANCH   1  19
TORSDOF 6
ENDMDL
