MODEL 1
REMARK VINA RESULT:    -7.593      0.000      0.000
REMARK INTER + INTRA:         -10.318
REMARK INTER:                  -9.590
REMARK INTRA:                  -0.728
REMARK UNBOUND:                -0.728
REMARK  Name = 
REMARK  5 active torsions:
REMARK  status: ('A' for Active; 'I' for Inactive)
REMARK    1  A    between atoms: N_1  and  C_2
REMARK    2  A    between atoms: C_7  and  C_8
REMARK    3  A    between atoms: C_8  and  C_9
REMARK    4  A    between atoms: C_9  and  C_10
REMARK    5  A    between atoms: C_14  and  C_15
REMARK                            x       y       z     vdW  Elec       q    Type
REMARK                         _______ _______ _______ _____ _____    ______ ____
ROOT
ATOM      1  C   UNL     1      45.155   4.895  10.911  0.00  0.00    +0.000 A 
ATOM      2  C   UNL     1      43.957   4.321  11.334  0.00  0.00    +0.000 A 
ATOM      3  C   UNL     1      43.795   4.035  12.683  0.00  0.00    +0.000 A 
ATOM      4  N   UNL     1      44.731   4.273  13.628  0.00  0.00    +0.000 NA
ATOM      5  C   UNL     1      45.899   4.830  13.228  0.00  0.00    +0.000 A 
ATOM      6  C   UNL     1      46.138   5.131  11.883  0.00  0.00    +0.000 A 
ENDROOT
BRANCH   5   7
ATOM      7  C   UNL     1      46.895   5.082  14.282  0.00  0.00    +0.000 A 
ATOM      8  C   UNL     1      46.978   4.299  15.446  0.00  0.00    +0.000 A 
ATOM      9  C   UNL     1      47.924   4.584  16.429  0.00  0.00    +0.000 A 
ATOM     10  C   UNL     1      48.777   5.651  16.229  0.00  0.00    +0.000 A 
ATOM     11  N   UNL     1      48.750   6.430  15.129  0.00  0.00    +0.000 NA
ATOM     12  C   UNL     1      47.819   6.121  14.186  0.00  0.00    +0.000 A 
ENDBRANCH   5   7
BRANCH   1  13
ATOM     13  C   UNL     1      45.486   5.186   9.462  0.00  0.00    +0.000 C 
BRANCH  13  14
ATOM     14  C   UNL     1      44.822   4.272   8.428  0.00  0.00    +0.000 C 
BRANCH  14  20
ATOM     15  C   UNL     1      45.636   1.845   8.441  0.00  0.00    +0.000 A 
ATOM     16  N   UNL     1      46.477   0.865   8.057  0.00  0.00    +0.000 NA
ATOM     17  C   UNL     1      47.439   1.176   7.162  0.00  0.00    +0.000 A 
ATOM     18  C   UNL     1      47.586   2.428   6.598  0.00  0.00    +0.000 A 
ATOM     19  C   UNL     1      46.712   3.429   7.004  0.00  0.00    +0.000 A 
ATOM     20  C   UNL     1      45.729   3.156   7.967  0.00  0.00    +0.000 A 
BRANCH  15  21
ATOM     21  N   UNL     1      44.640   1.443   9.325  0.00  0.00    +0.000 N 
ATOM     22  H   UNL     1      43.817   1.990   9.080  0.00  0.00    +0.000 HD
ATOM     23  H   UNL     1      44.454   0.451   9.252  0.00  0.00    +0.000 HD
ENDBRANCH  15  21
ENDBRANCH  14  20
ENDBRANCH  13  14
ENDBRANCH   1  13
TORSDOF 5
ENDMDL
MODEL 2
REMARK VINA RESULT:    -7.505      1.610      6.730
REMARK INTER + INTRA:         -10.207
REMARK INTER:                  -9.354
REMARK INTRA:                  -0.853
REMARK UNBOUND:                -0.728
REMARK  Name = 
REMARK  5 active torsions:
REMARK  status: ('A' for Active; 'I' for Inactive)
REMARK    1  A    between atoms: N_1  and  C_2
REMARK    2  A    between atoms: C_7  and  C_8
REMARK    3  A    between atoms: C_8  and  C_9
REMARK    4  A    between atoms: C_9  and  C_10
REMARK    5  A    between atoms: C_14  and  C_15
REMARK                            x       y       z     vdW  Elec       q    Type
REMARK                         _______ _______ _______ _____ _____    ______ ____
ROOT
ATOM      1  C   UNL     1      44.453   5.017  10.776  0.00  0.00    +0.000 A 
ATOM      2  C   UNL     1      43.655   4.081  11.435  0.00  0.00    +0.000 A 
ATOM      3  C   UNL     1      43.638   2.774  10.968  0.00  0.00    +0.000 A 
ATOM      4  N   UNL     1      44.345   2.338   9.903  0.00  0.00    +0.000 NA
ATOM      5  C   UNL     1      45.123   3.238   9.255  0.00  0.00    +0.000 A 
ATOM      6  C   UNL     1      45.178   4.576   9.660  0.00  0.00    +0.000 A 
ENDROOT
BRANCH   5   7
ATOM      7  C   UNL     1      45.885   2.730   8.103  0.00  0.00    +0.000 A 
ATOM      8  C   UNL     1      46.159   3.517   6.972  0.00  0.00    +0.000 A 
ATOM      9  C   UNL     1      46.867   2.991   5.893  0.00  0.00    +0.000 A 
ATOM     10  C   UNL     1      47.295   1.679   5.966  0.00  0.00    +0.000 A 
ATOM     11  N   UNL     1      47.071   0.881   7.029  0.00  0.00    +0.000 NA
ATOM     12  C   UNL     1      46.381   1.427   8.067  0.00  0.00    +0.000 A 
ENDBRANCH   5   7
BRANCH   1  13
ATOM     13  C   UNL     1      44.504   6.486  11.138  0.00  0.00    +0.000 C 
BRANCH  13  14
ATOM     14  C   UNL     1      44.988   6.809  12.554  0.00  0.00    +0.000 C 
BRANCH  14  20
ATOM     15  C   UNL     1      47.206   6.049  13.582  0.00  0.00    +0.000 A 
ATOM     16  N   UNL     1      48.546   6.104  13.705  0.00  0.00    +0.000 NA
ATOM     17  C   UNL     1      49.219   6.945  12.890  0.00  0.00    +0.000 A 
ATOM     18  C   UNL     1      48.616   7.721  11.922  0.00  0.00    +0.000 A 
ATOM     19  C   UNL     1      47.232   7.655  11.807  0.00  0.00    +0.000 A 
ATOM     20  C   UNL     1      46.494   6.829  12.666  0.00  0.00    +0.000 A 
BRANCH  15  21
ATOM     21  N   UNL     1      46.583   5.127  14.416  0.00  0.00    +0.000 N 
ATOM     22  H   UNL     1      46.228   5.663  15.204  0.00  0.00    +0.000 HD
ATOM     23  H   UNL     1      45.835   4.639  13.939  0.00  0.00    +0.000 HD
ENDBRANCH  15  21
ENDBRANCH  14  20
ENDBRANCH  13  14
ENDBRANCH   1  13
TORSDOF 5
ENDMDL
MODEL 3
REMARK VINA RESULT:    -7.342      1.492      2.271
REMARK INTER + INTRA:         -10.001
REMARK INTER:                  -9.285
REMARK INTRA:                  -0.716
REMARK UNBOUND:                -0.728
REMARK  Name = 
REMARK  5 active torsions:
REMARK  status: ('A' for Active; 'I' for Inactive)
REMARK    1  A    between atoms: N_1  and  C_2
REMARK    2  A    between atoms: C_7  and  C_8
REMARK    3  A    between atoms: C_8  and  C_9
REMARK    4  A    between atoms: C_9  and  C_10
REMARK    5  A    between atoms: C_14  and  C_15
REMARK                            x       y       z     vdW  Elec       q    Type
REMARK                         _______ _______ _______ _____ _____    ______ ____
ROOT
ATOM      1  C   UNL     1      44.335   3.758  10.520  0.00  0.00    +0.000 A 
ATOM      2  C   UNL     1      43.307   3.640  11.454  0.00  0.00    +0.000 A 
ATOM      3  C   UNL     1      43.458   4.252  12.691  0.00  0.00    +0.000 A 
ATOM      4  N   UNL     1      44.548   4.958  13.062  0.00  0.00    +0.000 NA
ATOM      5  C   UNL     1      45.553   5.079  12.162  0.00  0.00    +0.000 A 
ATOM      6  C   UNL     1      45.476   4.478  10.901  0.00  0.00    +0.000 A 
ENDROOT
BRANCH   5   7
ATOM      7  C   UNL     1      46.723   5.860  12.594  0.00  0.00    +0.000 A 
ATOM      8  C   UNL     1      47.289   6.874  11.802  0.00  0.00    +0.000 A 
ATOM      9  C   UNL     1      48.410   7.577  12.239  0.00  0.00    +0.000 A 
ATOM     10  C   UNL     1      48.948   7.254  13.470  0.00  0.00    +0.000 A 
ATOM     11  N   UNL     1      48.441   6.299  14.276  0.00  0.00    +0.000 NA
ATOM     12  C   UNL     1      47.344   5.636  13.822  0.00  0.00    +0.000 A 
ENDBRANCH   5   7
BRANCH   1  13
ATOM     13  C   UNL     1      44.327   3.080   9.166  0.00  0.00    +0.000 C 
BRANCH  13  14
ATOM     14  C   UNL     1      45.315   1.923   8.991  0.00  0.00    +0.000 C 
BRANCH  14  20
ATOM     15  C   UNL     1      46.905   1.009   7.205  0.00  0.00    +0.000 A 
ATOM     16  N   UNL     1      47.690   1.150   6.120  0.00  0.00    +0.000 NA
ATOM     17  C   UNL     1      47.739   2.365   5.532  0.00  0.00    +0.000 A 
ATOM     18  C   UNL     1      47.006   3.454   5.960  0.00  0.00    +0.000 A 
ATOM     19  C   UNL     1      46.201   3.294   7.081  0.00  0.00    +0.000 A 
ATOM     20  C   UNL     1      46.161   2.060   7.747  0.00  0.00    +0.000 A 
BRANCH  15  21
ATOM     21  N   UNL     1      46.864  -0.279   7.728  0.00  0.00    +0.000 N 
ATOM     22  H   UNL     1      47.247  -0.884   7.006  0.00  0.00    +0.000 HD
ATOM     23  H   UNL     1      47.397  -0.350   8.585  0.00  0.00    +0.000 HD
ENDBRANCH  15  21
ENDBRANCH  14  20
ENDBRANCH  13  14
ENDBRANCH   1  13
TORSDOF 5
ENDMDL
MODEL 4
REMARK VINA RESULT:    -6.987      2.689      7.014
REMARK INTER + INTRA:          -9.552
REMARK INTER:                  -8.877
REMARK INTRA:                  -0.675
REMARK UNBOUND:                -0.728
REMARK  Name = 
REMARK  5 active torsions:
REMARK  status: ('A' for Active; 'I' for Inactive)
REMARK    1  A    between atoms: N_1  and  C_2
REMARK    2  A    between atoms: C_7  and  C_8
REMARK    3  A    between atoms: C_8  and  C_9
REMARK    4  A    between atoms: C_9  and  C_10
REMARK    5  A    between atoms: C_14  and  C_15
REMARK                            x       y       z     vdW  Elec       q    Type
REMARK                         _______ _______ _______ _____ _____    ______ ____
ROOT
ATOM      1  C   UNL     1      44.119   5.049  11.030  0.00  0.00    +0.000 A 
ATOM      2  C   UNL     1      43.331   4.097  11.676  0.00  0.00    +0.000 A 
ATOM      3  C   UNL     1      43.354   2.789  11.213  0.00  0.00    +0.000 A 
ATOM      4  N   UNL     1      44.091   2.366  10.163  0.00  0.00    +0.000 NA
ATOM      5  C   UNL     1      44.860   3.282   9.527  0.00  0.00    +0.000 A 
ATOM      6  C   UNL     1      44.876   4.623   9.929  0.00  0.00    +0.000 A 
ENDROOT
BRANCH   5   7
ATOM      7  C   UNL     1      45.655   2.790   8.391  0.00  0.00    +0.000 A 
ATOM      8  C   UNL     1      46.159   1.479   8.333  0.00  0.00    +0.000 A 
ATOM      9  C   UNL     1      46.926   1.058   7.249  0.00  0.00    +0.000 A 
ATOM     10  C   UNL     1      47.174   1.960   6.232  0.00  0.00    +0.000 A 
ATOM     11  N   UNL     1      46.709   3.225   6.229  0.00  0.00    +0.000 NA
ATOM     12  C   UNL     1      45.960   3.602   7.300  0.00  0.00    +0.000 A 
ENDBRANCH   5   7
BRANCH   1  13
ATOM     13  C   UNL     1      44.129   6.520  11.388  0.00  0.00    +0.000 C 
BRANCH  13  14
ATOM     14  C   UNL     1      44.884   6.891  12.667  0.00  0.00    +0.000 C 
BRANCH  14  20
ATOM     15  C   UNL     1      45.908   9.224  12.401  0.00  0.00    +0.000 A 
ATOM     16  N   UNL     1      46.932  10.054  12.130  0.00  0.00    +0.000 NA
ATOM     17  C   UNL     1      48.138   9.503  11.873  0.00  0.00    +0.000 A 
ATOM     18  C   UNL     1      48.383   8.145  11.905  0.00  0.00    +0.000 A 
ATOM     19  C   UNL     1      47.316   7.300  12.185  0.00  0.00    +0.000 A 
ATOM     20  C   UNL     1      46.039   7.832  12.412  0.00  0.00    +0.000 A 
BRANCH  15  21
ATOM     21  N   UNL     1      44.709   9.860  12.706  0.00  0.00    +0.000 N 
ATOM     22  H   UNL     1      44.042   9.115  12.897  0.00  0.00    +0.000 HD
ATOM     23  H   UNL     1      44.806  10.476  13.503  0.00  0.00    +0.000 HD
ENDBRANCH  15  21
ENDBRANCH  14  20
ENDBRANCH  13  14
ENDBRANCH   1  13
TORSDOF 5
ENDMDL
MODEL 5
REMARK VINA RESULT:    -6.917      1.627      3.082
REMARK INTER + INTRA:          -9.464
REMARK INTER:                  -8.681
REMARK INTRA:                  -0.783
REMARK UNBOUND:                -0.728
REMARK  Name = 
REMARK  5 active torsions:
REMARK  status: ('A' for Active; 'I' for Inactive)
REMARK    1  A    between atoms: N_1  and  C_2
REMARK    2  A    between atoms: C_7  and  C_8
REMARK    3  A    between atoms: C_8  and  C_9
REMARK    4  A    between atoms: C_9  and  C_10
REMARK    5  A    between atoms: C_14  and  C_15
REMARK                            x       y       z     vdW  Elec       q    Type
REMARK                         _______ _______ _______ _____ _____    ______ ____
ROOT
ATOM      1  C   UNL     1      46.633   6.538  12.048  0.00  0.00    +0.000 A 
ATOM      2  C   UNL     1      47.816   7.187  11.697  0.00  0.00    +0.000 A 
ATOM      3  C   UNL     1      48.887   7.143  12.579  0.00  0.00    +0.000 A 
ATOM      4  N   UNL     1      48.862   6.512  13.774  0.00  0.00    +0.000 NA
ATOM      5  C   UNL     1      47.718   5.878  14.125  0.00  0.00    +0.000 A 
ATOM      6  C   UNL     1      46.594   5.892  13.292  0.00  0.00    +0.000 A 
ENDROOT
BRANCH   5   7
ATOM      7  C   UNL     1      47.726   5.195  15.429  0.00  0.00    +0.000 A 
ATOM      8  C   UNL     1      48.548   5.606  16.492  0.00  0.00    +0.000 A 
ATOM      9  C   UNL     1      48.540   4.919  17.705  0.00  0.00    +0.000 A 
ATOM     10  C   UNL     1      47.703   3.827  17.834  0.00  0.00    +0.000 A 
ATOM     11  N   UNL     1      46.887   3.394  16.852  0.00  0.00    +0.000 NA
ATOM     12  C   UNL     1      46.915   4.090  15.684  0.00  0.00    +0.000 A 
ENDBRANCH   5   7
BRANCH   1  13
ATOM     13  C   UNL     1      45.371   6.571  11.211  0.00  0.00    +0.000 C 
BRANCH  13  14
ATOM     14  C   UNL     1      44.462   5.344  11.324  0.00  0.00    +0.000 C 
BRANCH  14  20
ATOM     15  C   UNL     1      44.330   2.982  10.345  0.00  0.00    +0.000 A 
ATOM     16  N   UNL     1      44.611   2.062   9.403  0.00  0.00    +0.000 NA
ATOM     17  C   UNL     1      45.301   2.468   8.314  0.00  0.00    +0.000 A 
ATOM     18  C   UNL     1      45.701   3.772   8.101  0.00  0.00    +0.000 A 
ATOM     19  C   UNL     1      45.404   4.709   9.083  0.00  0.00    +0.000 A 
ATOM     20  C   UNL     1      44.731   4.317  10.249  0.00  0.00    +0.000 A 
BRANCH  15  21
ATOM     21  N   UNL     1      43.575   2.507  11.413  0.00  0.00    +0.000 N 
ATOM     22  H   UNL     1      42.682   2.226  11.016  0.00  0.00    +0.000 HD
ATOM     23  H   UNL     1      44.030   1.731  11.876  0.00  0.00    +0.000 HD
ENDBRANCH  15  21
ENDBRANCH  14  20
ENDBRANCH  13  14
ENDBRANCH   1  13
TORSDOF 5
ENDMDL
MODEL 6
REMARK VINA RESULT:    -6.902      2.351      6.990
REMARK INTER + INTRA:          -9.445
REMARK INTER:                  -8.701
REMARK INTRA:                  -0.744
REMARK UNBOUND:                -0.728
REMARK  Name = 
REMARK  5 active torsions:
REMARK  status: ('A' for Active; 'I' for Inactive)
REMARK    1  A    between atoms: N_1  and  C_2
REMARK    2  A    between atoms: C_7  and  C_8
REMARK    3  A    between atoms: C_8  and  C_9
REMARK    4  A    between atoms: C_9  and  C_10
REMARK    5  A    between atoms: C_14  and  C_15
REMARK                            x       y       z     vdW  Elec       q    Type
REMARK                         _______ _______ _______ _____ _____    ______ ____
ROOT
ATOM      1  C   UNL     1      44.684   6.095  11.109  0.00  0.00    +0.000 A 
ATOM      2  C   UNL     1      43.521   5.559  11.662  0.00  0.00    +0.000 A 
ATOM      3  C   UNL     1      43.112   4.296  11.258  0.00  0.00    +0.000 A 
ATOM      4  N   UNL     1      43.767   3.539  10.350  0.00  0.00    +0.000 NA
ATOM      5  C   UNL     1      44.898   4.049   9.807  0.00  0.00    +0.000 A 
ATOM      6  C   UNL     1      45.362   5.322  10.156  0.00  0.00    +0.000 A 
ENDROOT
BRANCH   5   7
ATOM      7  C   UNL     1      45.591   3.198   8.827  0.00  0.00    +0.000 A 
ATOM      8  C   UNL     1      46.237   3.721   7.694  0.00  0.00    +0.000 A 
ATOM      9  C   UNL     1      46.865   2.878   6.779  0.00  0.00    +0.000 A 
ATOM     10  C   UNL     1      46.838   1.517   7.016  0.00  0.00    +0.000 A 
ATOM     11  N   UNL     1      46.243   0.960   8.090  0.00  0.00    +0.000 NA
ATOM     12  C   UNL     1      45.645   1.811   8.966  0.00  0.00    +0.000 A 
ENDBRANCH   5   7
BRANCH   1  13
ATOM     13  C   UNL     1      45.197   7.488  11.409  0.00  0.00    +0.000 C 
BRANCH  13  14
ATOM     14  C   UNL     1      45.746   7.708  12.821  0.00  0.00    +0.000 C 
BRANCH  14  20
ATOM     15  C   UNL     1      47.921   8.539  13.887  0.00  0.00    +0.000 A 
ATOM     16  N   UNL     1      49.251   8.749  13.877  0.00  0.00    +0.000 NA
ATOM     17  C   UNL     1      49.951   8.308  12.809  0.00  0.00    +0.000 A 
ATOM     18  C   UNL     1      49.384   7.629  11.749  0.00  0.00    +0.000 A 
ATOM     19  C   UNL     1      48.011   7.421  11.772  0.00  0.00    +0.000 A 
ATOM     20  C   UNL     1      47.244   7.905  12.842  0.00  0.00    +0.000 A 
BRANCH  15  21
ATOM     21  N   UNL     1      47.272   8.973  15.038  0.00  0.00    +0.000 N 
ATOM     22  H   UNL     1      46.300   9.112  14.771  0.00  0.00    +0.000 HD
ATOM     23  H   UNL     1      47.353   8.299  15.788  0.00  0.00    +0.000 HD
ENDBRANCH  15  21
ENDBRANCH  14  20
ENDBRANCH  13  14
ENDBRANCH   1  13
TORSDOF 5
ENDMDL
MODEL 7
REMARK VINA RESULT:    -6.694      2.359      3.480
REMARK INTER + INTRA:          -9.182
REMARK INTER:                  -8.359
REMARK INTRA:                  -0.823
REMARK UNBOUND:                -0.728
REMARK  Name = 
REMARK  5 active torsions:
REMARK  status: ('A' for Active; 'I' for Inactive)
REMARK    1  A    between atoms: N_1  and  C_2
REMARK    2  A    between atoms: C_7  and  C_8
REMARK    3  A    between atoms: C_8  and  C_9
REMARK    4  A    between atoms: C_9  and  C_10
REMARK    5  A    between atoms: C_14  and  C_15
REMARK                            x       y       z     vdW  Elec       q    Type
REMARK                         _______ _______ _______ _____ _____    ______ ____
ROOT
ATOM      1  C   UNL     1      45.942   6.136  12.189  0.00  0.00    +0.000 A 
ATOM      2  C   UNL     1      45.866   5.223  13.241  0.00  0.00    +0.000 A 
ATOM      3  C   UNL     1      46.966   5.076  14.075  0.00  0.00    +0.000 A 
ATOM      4  N   UNL     1      48.123   5.760  13.935  0.00  0.00    +0.000 NA
ATOM      5  C   UNL     1      48.208   6.649  12.917  0.00  0.00    +0.000 A 
ATOM      6  C   UNL     1      47.144   6.839  12.028  0.00  0.00    +0.000 A 
ENDROOT
BRANCH   5   7
ATOM      7  C   UNL     1      49.478   7.382  12.796  0.00  0.00    +0.000 A 
ATOM      8  C   UNL     1      50.032   7.734  11.553  0.00  0.00    +0.000 A 
ATOM      9  C   UNL     1      51.248   8.411  11.482  0.00  0.00    +0.000 A 
ATOM     10  C   UNL     1      51.892   8.728  12.662  0.00  0.00    +0.000 A 
ATOM     11  N   UNL     1      51.404   8.424  13.882  0.00  0.00    +0.000 NA
ATOM     12  C   UNL     1      50.213   7.769  13.916  0.00  0.00    +0.000 A 
ENDBRANCH   5   7
BRANCH   1  13
ATOM     13  C   UNL     1      44.843   6.337  11.166  0.00  0.00    +0.000 C 
BRANCH  13  14
ATOM     14  C   UNL     1      43.966   5.115  10.878  0.00  0.00    +0.000 C 
BRANCH  14  20
ATOM     15  C   UNL     1      44.518   2.761  10.036  0.00  0.00    +0.000 A 
ATOM     16  N   UNL     1      45.130   1.907   9.194  0.00  0.00    +0.000 NA
ATOM     17  C   UNL     1      45.849   2.431   8.178  0.00  0.00    +0.000 A 
ATOM     18  C   UNL     1      45.962   3.786   7.938  0.00  0.00    +0.000 A 
ATOM     19  C   UNL     1      45.326   4.655   8.816  0.00  0.00    +0.000 A 
ATOM     20  C   UNL     1      44.609   4.150   9.910  0.00  0.00    +0.000 A 
BRANCH  15  21
ATOM     21  N   UNL     1      43.755   2.153  11.028  0.00  0.00    +0.000 N 
ATOM     22  H   UNL     1      44.420   1.699  11.650  0.00  0.00    +0.000 HD
ATOM     23  H   UNL     1      43.188   2.826  11.527  0.00  0.00    +0.000 HD
ENDBRANCH  15  21
ENDBRANCH  14  20
ENDBRANCH  13  14
ENDBRANCH   1  13
TORSDOF 5
ENDMDL
MODEL 8
REMARK VINA RESULT:    -6.470      3.413      7.637
REMARK INTER + INTRA:          -8.900
REMARK INTER:                  -8.380
REMARK INTRA:                  -0.520
REMARK UNBOUND:                -0.728
REMARK  Name = 
REMARK  5 active torsions:
REMARK  status: ('A' for Active; 'I' for Inactive)
REMARK    1  A    between atoms: N_1  and  C_2
REMARK    2  A    between atoms: C_7  and  C_8
REMARK    3  A    between atoms: C_8  and  C_9
REMARK    4  A    between atoms: C_9  and  C_10
REMARK    5  A    between atoms: C_14  and  C_15
REMARK                            x       y       z     vdW  Elec       q    Type
REMARK                         _______ _______ _______ _____ _____    ______ ____
ROOT
ATOM      1  C   UNL     1      45.122   5.000  10.517  0.00  0.00    +0.000 A 
ATOM      2  C   UNL     1      44.173   4.188  11.137  0.00  0.00    +0.000 A 
ATOM      3  C   UNL     1      43.927   2.928  10.609  0.00  0.00    +0.000 A 
ATOM      4  N   UNL     1      44.547   2.426   9.519  0.00  0.00    +0.000 NA
ATOM      5  C   UNL     1      45.471   3.206   8.908  0.00  0.00    +0.000 A 
ATOM      6  C   UNL     1      45.760   4.492   9.376  0.00  0.00    +0.000 A 
ENDROOT
BRANCH   5   7
ATOM      7  C   UNL     1      46.133   2.628   7.728  0.00  0.00    +0.000 A 
ATOM      8  C   UNL     1      46.342   3.358   6.545  0.00  0.00    +0.000 A 
ATOM      9  C   UNL     1      46.955   2.767   5.442  0.00  0.00    +0.000 A 
ATOM     10  C   UNL     1      47.354   1.448   5.542  0.00  0.00    +0.000 A 
ATOM     11  N   UNL     1      47.189   0.702   6.654  0.00  0.00    +0.000 NA
ATOM     12  C   UNL     1      46.592   1.311   7.713  0.00  0.00    +0.000 A 
ENDBRANCH   5   7
BRANCH   1  13
ATOM     13  C   UNL     1      45.429   6.419  10.947  0.00  0.00    +0.000 C 
BRANCH  13  14
ATOM     14  C   UNL     1      44.243   7.228  11.478  0.00  0.00    +0.000 C 
BRANCH  14  20
ATOM     15  C   UNL     1      43.550   9.648  11.009  0.00  0.00    +0.000 A 
ATOM     16  N   UNL     1      43.797  10.971  10.949  0.00  0.00    +0.000 NA
ATOM     17  C   UNL     1      45.011  11.403  11.353  0.00  0.00    +0.000 A 
ATOM     18  C   UNL     1      45.994  10.572  11.851  0.00  0.00    +0.000 A 
ATOM     19  C   UNL     1      45.726   9.210  11.906  0.00  0.00    +0.000 A 
ATOM     20  C   UNL     1      44.494   8.718  11.452  0.00  0.00    +0.000 A 
BRANCH  15  21
ATOM     21  N   UNL     1      42.265   9.279  10.626  0.00  0.00    +0.000 N 
ATOM     22  H   UNL     1      42.384   8.552   9.924  0.00  0.00    +0.000 HD
ATOM     23  H   UNL     1      41.724   8.942  11.412  0.00  0.00    +0.000 HD
ENDBRANCH  15  21
ENDBRANCH  14  20
ENDBRANCH  13  14
ENDBRANCH   1  13
TORSDOF 5
ENDMDL
MODEL 9
REMARK VINA RESULT:    -6.138      2.014      7.144
REMARK INTER + INTRA:          -8.481
REMARK INTER:                  -7.730
REMARK INTRA:                  -0.750
REMARK UNBOUND:                -0.728
REMARK  Name = 
REMARK  5 active torsions:
REMARK  status: ('A' for Active; 'I' for Inactive)
REMARK    1  A    between atoms: N_1  and  C_2
REMARK    2  A    between atoms: C_7  and  C_8
REMARK    3  A    between atoms: C_8  and  C_9
REMARK    4  A    between atoms: C_9  and  C_10
REMARK    5  A    between atoms: C_14  and  C_15
REMARK                            x       y       z     vdW  Elec       q    Type
REMARK                         _______ _______ _______ _____ _____    ______ ____
ROOT
ATOM      1  C   UNL     1      46.596   7.490  13.032  0.00  0.00    +0.000 A 
ATOM      2  C   UNL     1      45.788   8.593  12.757  0.00  0.00    +0.000 A 
ATOM      3  C   UNL     1      44.825   8.482  11.764  0.00  0.00    +0.000 A 
ATOM      4  N   UNL     1      44.614   7.367  11.031  0.00  0.00    +0.000 NA
ATOM      5  C   UNL     1      45.392   6.290  11.289  0.00  0.00    +0.000 A 
ATOM      6  C   UNL     1      46.393   6.333  12.266  0.00  0.00    +0.000 A 
ENDROOT
BRANCH   5   7
ATOM      7  C   UNL     1      45.133   5.089  10.478  0.00  0.00    +0.000 A 
ATOM      8  C   UNL     1      45.548   4.977   9.140  0.00  0.00    +0.000 A 
ATOM      9  C   UNL     1      45.264   3.831   8.400  0.00  0.00    +0.000 A 
ATOM     10  C   UNL     1      44.569   2.808   9.016  0.00  0.00    +0.000 A 
ATOM     11  N   UNL     1      44.156   2.856  10.299  0.00  0.00    +0.000 NA
ATOM     12  C   UNL     1      44.453   3.986  10.993  0.00  0.00    +0.000 A 
ENDBRANCH   5   7
BRANCH   1  13
ATOM     13  C   UNL     1      47.729   7.503  14.036  0.00  0.00    +0.000 C 
BRANCH  13  14
ATOM     14  C   UNL     1      48.454   6.170  14.243  0.00  0.00    +0.000 C 
BRANCH  14  20
ATOM     15  C   UNL     1      47.271   4.324  15.566  0.00  0.00    +0.000 A 
ATOM     16  N   UNL     1      46.884   3.740  16.716  0.00  0.00    +0.000 NA
ATOM     17  C   UNL     1      47.290   4.301  17.875  0.00  0.00    +0.000 A 
ATOM     18  C   UNL     1      48.103   5.415  17.944  0.00  0.00    +0.000 A 
ATOM     19  C   UNL     1      48.495   6.007  16.750  0.00  0.00    +0.000 A 
ATOM     20  C   UNL     1      48.055   5.481  15.527  0.00  0.00    +0.000 A 
BRANCH  15  21
ATOM     21  N   UNL     1      46.860   3.665  14.412  0.00  0.00    +0.000 N 
ATOM     22  H   UNL     1      47.492   3.976  13.677  0.00  0.00    +0.000 HD
ATOM     23  H   UNL     1      46.895   2.661  14.523  0.00  0.00    +0.000 HD
ENDBRANCH  15  21
ENDBRANCH  14  20
ENDBRANCH  13  14
ENDBRANCH   1  13
TORSDOF 5
ENDMDL
