MODEL 1
REMARK VINA RESULT:    -7.989      0.000      0.000
REMARK INTER + INTRA:         -12.232
REMARK INTER:                 -10.791
REMARK INTRA:                  -1.441
REMARK UNBOUND:                -1.441
REMARK  Name = 
REMARK  6 active torsions:
REMARK  status: ('A' for Active; 'I' for Inactive)
REMARK    1  A    between atoms: C_2  and  C_21
REMARK    2  A    between atoms: N_3  and  C_4
REMARK    3  A    between atoms: C_4  and  C_5
REMARK    4  A    between atoms: C_9  and  C_10
REMARK    5  A    between atoms: C_10  and  N_11
REMARK    6  A    between atoms: C_12  and  C_14
REMARK                            x       y       z     vdW  Elec       q    Type
REMARK                         _______ _______ _______ _____ _____    ______ ____
ROOT
ATOM      1  C   UNL     1      45.255   5.035  11.967  0.00  0.00    +0.000 A 
ATOM      2  C   UNL     1      44.470   4.322  12.883  0.00  0.00    +0.000 A 
ATOM      3  C   UNL     1      43.719   3.223  12.466  0.00  0.00    +0.000 A 
ATOM      4  C   UNL     1      43.735   2.830  11.128  0.00  0.00    +0.000 A 
ATOM      5  C   UNL     1      44.508   3.529  10.190  0.00  0.00    +0.000 A 
ATOM      6  C   UNL     1      45.296   4.605  10.629  0.00  0.00    +0.000 A 
ENDROOT
BRANCH   1   7
ATOM      7  C   UNL     1      46.009   6.261  12.412  0.00  0.00    +0.000 C 
BRANCH   7  10
ATOM      8  O   UNL     1      48.713   6.356  12.935  0.00  0.00    +0.000 OA
ATOM      9  C   UNL     1      47.947   6.236  13.890  0.00  0.00    +0.000 C 
ATOM     10  N   UNL     1      46.590   6.104  13.721  0.00  0.00    +0.000 N 
ATOM     11  H   UNL     1      45.974   6.221  14.518  0.00  0.00    +0.000 HD
BRANCH   9  12
ATOM     12  C   UNL     1      48.452   6.189  15.266  0.00  0.00    +0.000 A 
ATOM     13  C   UNL     1      49.182   7.259  15.769  0.00  0.00    +0.000 A 
ATOM     14  S   UNL     1      49.689   7.043  17.382  0.00  0.00    +0.000 S 
ATOM     15  C   UNL     1      48.910   5.535  17.482  0.00  0.00    +0.000 A 
ATOM     16  N   UNL     1      48.918   4.818  18.639  0.00  0.00    +0.000 NA
ATOM     17  C   UNL     1      48.251   3.715  18.587  0.00  0.00    +0.000 A 
ATOM     18  N   UNL     1      47.588   3.255  17.481  0.00  0.00    +0.000 N 
ATOM     19  C   UNL     1      47.588   3.920  16.279  0.00  0.00    +0.000 A 
ATOM     20  O   UNL     1      47.040   3.450  15.289  0.00  0.00    +0.000 OA
ATOM     21  C   UNL     1      48.297   5.186  16.291  0.00  0.00    +0.000 A 
ATOM     22  H   UNL     1      47.096   2.375  17.501  0.00  0.00    +0.000 HD
ENDBRANCH   9  12
ENDBRANCH   7  10
ENDBRANCH   1   7
BRANCH   5  23
ATOM     23  C   UNL     1      44.440   3.165   8.727  0.00  0.00    +0.000 C 
BRANCH  23  24
ATOM     24  N   UNL     1      45.648   2.548   8.242  0.00  0.00    +0.000 N 
ATOM     25  C   UNL     1      46.478   3.223   7.378  0.00  0.00    +0.000 C 
ATOM     26  O   UNL     1      46.237   4.364   6.987  0.00  0.00    +0.000 OA
ATOM     27  H   UNL     1      45.710   1.531   8.234  0.00  0.00    +0.000 HD
BRANCH  25  28
ATOM     28  C   UNL     1      47.736   2.479   6.911  0.00  0.00    +0.000 C 
ATOM     29  C   UNL     1      47.977   2.667   5.410  0.00  0.00    +0.000 C 
ATOM     30  C   UNL     1      47.048   1.785   4.580  0.00  0.00    +0.000 C 
ATOM     31  C   UNL     1      47.074   0.332   5.052  0.00  0.00    +0.000 C 
ATOM     32  N   UNL     1      46.803   0.210   6.488  0.00  0.00    +0.000 NA
ATOM     33  C   UNL     1      47.773   0.991   7.274  0.00  0.00    +0.000 C 
ATOM     34  H   UNL     1      46.878  -0.773   6.754  0.00  0.00    +0.000 HD
ENDBRANCH  25  28
ENDBRANCH  23  24
ENDBRANCH   5  23
TORSDOF 6
ENDMDL
MODEL 2
REMARK VINA RESULT:    -7.188      4.689      9.938
REMARK INTER + INTRA:         -11.151
REMARK INTER:                  -9.648
REMARK INTRA:                  -1.503
REMARK UNBOUND:                -1.441
REMARK  Name = 
REMARK  6 active torsions:
REMARK  status: ('A' for Active; 'I' for Inactive)
REMARK    1  A    between atoms: C_2  and  C_21
REMARK    2  A    between atoms: N_3  and  C_4
REMARK    3  A    between atoms: C_4  and  C_5
REMARK    4  A    between atoms: C_9  and  C_10
REMARK    5  A    between atoms: C_10  and  N_11
REMARK    6  A    between atoms: C_12  and  C_14
REMARK                            x       y       z     vdW  Elec       q    Type
REMARK                         _______ _______ _______ _____ _____    ______ ____
ROOT
ATOM      1  C   UNL     1      48.710   3.321  17.159  0.00  0.00    +0.000 A 
ATOM      2  C   UNL     1      49.339   2.087  16.946  0.00  0.00    +0.000 A 
ATOM      3  C   UNL     1      50.715   1.953  17.123  0.00  0.00    +0.000 A 
ATOM      4  C   UNL     1      51.483   3.054  17.505  0.00  0.00    +0.000 A 
ATOM      5  C   UNL     1      50.880   4.302  17.720  0.00  0.00    +0.000 A 
ATOM      6  C   UNL     1      49.486   4.413  17.584  0.00  0.00    +0.000 A 
ENDROOT
BRANCH   1   7
ATOM      7  C   UNL     1      47.234   3.472  16.899  0.00  0.00    +0.000 C 
BRANCH   7  10
ATOM      8  O   UNL     1      47.307   3.117  14.168  0.00  0.00    +0.000 OA
ATOM      9  C   UNL     1      46.944   4.211  14.595  0.00  0.00    +0.000 C 
ATOM     10  N   UNL     1      46.948   4.505  15.937  0.00  0.00    +0.000 N 
ATOM     11  H   UNL     1      46.449   5.322  16.271  0.00  0.00    +0.000 HD
BRANCH   9  12
ATOM     12  C   UNL     1      46.521   5.279  13.683  0.00  0.00    +0.000 A 
ATOM     13  C   UNL     1      47.397   6.315  13.383  0.00  0.00    +0.000 A 
ATOM     14  S   UNL     1      46.749   7.468  12.308  0.00  0.00    +0.000 S 
ATOM     15  C   UNL     1      45.294   6.599  12.166  0.00  0.00    +0.000 A 
ATOM     16  N   UNL     1      44.300   7.027  11.341  0.00  0.00    +0.000 NA
ATOM     17  C   UNL     1      43.273   6.248  11.297  0.00  0.00    +0.000 A 
ATOM     18  N   UNL     1      43.141   5.088  12.012  0.00  0.00    +0.000 N 
ATOM     19  C   UNL     1      44.097   4.637  12.889  0.00  0.00    +0.000 A 
ATOM     20  O   UNL     1      43.922   3.629  13.563  0.00  0.00    +0.000 OA
ATOM     21  C   UNL     1      45.290   5.459  12.952  0.00  0.00    +0.000 A 
ATOM     22  H   UNL     1      42.303   4.530  11.943  0.00  0.00    +0.000 HD
ENDBRANCH   9  12
ENDBRANCH   7  10
ENDBRANCH   1   7
BRANCH   5  23
ATOM     23  C   UNL     1      51.727   5.511  18.030  0.00  0.00    +0.000 C 
BRANCH  23  24
ATOM     24  N   UNL     1      50.951   6.653  18.443  0.00  0.00    +0.000 N 
ATOM     25  C   UNL     1      50.831   6.971  19.776  0.00  0.00    +0.000 C 
ATOM     26  O   UNL     1      51.371   6.310  20.663  0.00  0.00    +0.000 OA
ATOM     27  H   UNL     1      50.221   7.000  17.823  0.00  0.00    +0.000 HD
BRANCH  25  28
ATOM     28  C   UNL     1      49.980   8.200  20.115  0.00  0.00    +0.000 C 
ATOM     29  C   UNL     1      48.801   7.835  21.023  0.00  0.00    +0.000 C 
ATOM     30  C   UNL     1      47.675   7.170  20.235  0.00  0.00    +0.000 C 
ATOM     31  C   UNL     1      47.296   7.978  18.994  0.00  0.00    +0.000 C 
ATOM     32  N   UNL     1      48.458   8.268  18.147  0.00  0.00    +0.000 NA
ATOM     33  C   UNL     1      49.490   8.997  18.902  0.00  0.00    +0.000 C 
ATOM     34  H   UNL     1      48.154   8.846  17.361  0.00  0.00    +0.000 HD
ENDBRANCH  25  28
ENDBRANCH  23  24
ENDBRANCH   5  23
TORSDOF 6
ENDMDL
MODEL 3
REMARK VINA RESULT:    -7.186      3.014      8.856
REMARK INTER + INTRA:         -11.147
REMARK INTER:                  -9.720
REMARK INTRA:                  -1.427
REMARK UNBOUND:                -1.441
REMARK  Name = 
REMARK  6 active torsions:
REMARK  status: ('A' for Active; 'I' for Inactive)
REMARK    1  A    between atoms: C_2  and  C_21
REMARK    2  A    between atoms: N_3  and  C_4
REMARK    3  A    between atoms: C_4  and  C_5
REMARK    4  A    between atoms: C_9  and  C_10
REMARK    5  A    between atoms: C_10  and  N_11
REMARK    6  A    between atoms: C_12  and  C_14
REMARK                            x       y       z     vdW  Elec       q    Type
REMARK                         _______ _______ _______ _____ _____    ______ ____
ROOT
ATOM      1  C   UNL     1      48.710   7.964  12.852  0.00  0.00    +0.000 A 
ATOM      2  C   UNL     1      50.042   8.254  12.528  0.00  0.00    +0.000 A 
ATOM      3  C   UNL     1      51.004   8.375  13.530  0.00  0.00    +0.000 A 
ATOM      4  C   UNL     1      50.645   8.220  14.869  0.00  0.00    +0.000 A 
ATOM      5  C   UNL     1      49.318   7.934  15.221  0.00  0.00    +0.000 A 
ATOM      6  C   UNL     1      48.367   7.768  14.201  0.00  0.00    +0.000 A 
ENDROOT
BRANCH   1   7
ATOM      7  C   UNL     1      47.665   7.903  11.768  0.00  0.00    +0.000 C 
BRANCH   7  10
ATOM      8  O   UNL     1      44.931   7.581  11.879  0.00  0.00    +0.000 OA
ATOM      9  C   UNL     1      45.621   6.577  11.716  0.00  0.00    +0.000 C 
ATOM     10  N   UNL     1      46.993   6.629  11.724  0.00  0.00    +0.000 N 
ATOM     11  H   UNL     1      47.525   5.838  11.378  0.00  0.00    +0.000 HD
BRANCH   9  12
ATOM     12  C   UNL     1      45.008   5.256  11.543  0.00  0.00    +0.000 A 
ATOM     13  C   UNL     1      44.281   4.691  12.584  0.00  0.00    +0.000 A 
ATOM     14  S   UNL     1      43.635   3.158  12.214  0.00  0.00    +0.000 S 
ATOM     15  C   UNL     1      44.262   3.214  10.634  0.00  0.00    +0.000 A 
ATOM     16  N   UNL     1      44.029   2.205   9.751  0.00  0.00    +0.000 NA
ATOM     17  C   UNL     1      44.524   2.399   8.577  0.00  0.00    +0.000 A 
ATOM     18  N   UNL     1      45.244   3.503   8.206  0.00  0.00    +0.000 N 
ATOM     19  C   UNL     1      45.543   4.527   9.073  0.00  0.00    +0.000 A 
ATOM     20  O   UNL     1      46.245   5.471   8.729  0.00  0.00    +0.000 OA
ATOM     21  C   UNL     1      44.980   4.374  10.401  0.00  0.00    +0.000 A 
ATOM     22  H   UNL     1      45.618   3.588   7.273  0.00  0.00    +0.000 HD
ENDBRANCH   9  12
ENDBRANCH   7  10
ENDBRANCH   1   7
BRANCH   5  23
ATOM     23  C   UNL     1      48.915   7.871  16.673  0.00  0.00    +0.000 C 
BRANCH  23  24
ATOM     24  N   UNL     1      48.209   6.660  17.012  0.00  0.00    +0.000 N 
ATOM     25  C   UNL     1      48.761   5.751  17.883  0.00  0.00    +0.000 C 
ATOM     26  O   UNL     1      49.860   5.923  18.409  0.00  0.00    +0.000 OA
ATOM     27  H   UNL     1      47.507   6.305  16.364  0.00  0.00    +0.000 HD
BRANCH  25  28
ATOM     28  C   UNL     1      47.937   4.491  18.175  0.00  0.00    +0.000 C 
ATOM     29  C   UNL     1      48.829   3.319  18.596  0.00  0.00    +0.000 C 
ATOM     30  C   UNL     1      49.524   2.686  17.394  0.00  0.00    +0.000 C 
ATOM     31  C   UNL     1      48.538   2.363  16.273  0.00  0.00    +0.000 C 
ATOM     32  N   UNL     1      47.736   3.529  15.888  0.00  0.00    +0.000 NA
ATOM     33  C   UNL     1      46.996   4.063  17.044  0.00  0.00    +0.000 C 
ATOM     34  H   UNL     1      47.066   3.244  15.171  0.00  0.00    +0.000 HD
ENDBRANCH  25  28
ENDBRANCH  23  24
ENDBRANCH   5  23
TORSDOF 6
ENDMDL
MODEL 4
REMARK VINA RESULT:    -7.135      4.435      6.674
REMARK INTER + INTRA:         -11.080
REMARK INTER:                  -9.058
REMARK INTRA:                  -2.021
REMARK UNBOUND:                -1.441
REMARK  Name = 
REMARK  6 active torsions:
REMARK  status: ('A' for Active; 'I' for Inactive)
REMARK    1  A    between atoms: C_2  and  C_21
REMARK    2  A    between atoms: N_3  and  C_4
REMARK    3  A    between atoms: C_4  and  C_5
REMARK    4  A    between atoms: C_9  and  C_10
REMARK    5  A    between atoms: C_10  and  N_11
REMARK    6  A    between atoms: C_12  and  C_14
REMARK                            x       y       z     vdW  Elec       q    Type
REMARK                         _______ _______ _______ _____ _____    ______ ____
ROOT
ATOM      1  C   UNL     1      46.245   4.591  13.481  0.00  0.00    +0.000 A 
ATOM      2  C   UNL     1      45.413   4.033  12.501  0.00  0.00    +0.000 A 
ATOM      3  C   UNL     1      44.697   4.853  11.629  0.00  0.00    +0.000 A 
ATOM      4  C   UNL     1      44.795   6.241  11.733  0.00  0.00    +0.000 A 
ATOM      5  C   UNL     1      45.617   6.825  12.708  0.00  0.00    +0.000 A 
ATOM      6  C   UNL     1      46.368   5.989  13.550  0.00  0.00    +0.000 A 
ENDROOT
BRANCH   1   7
ATOM      7  C   UNL     1      46.960   3.699  14.461  0.00  0.00    +0.000 C 
BRANCH   7  10
ATOM      8  O   UNL     1      46.483   3.083  17.104  0.00  0.00    +0.000 OA
ATOM      9  C   UNL     1      47.261   4.004  16.860  0.00  0.00    +0.000 C 
ATOM     10  N   UNL     1      47.502   4.431  15.577  0.00  0.00    +0.000 N 
ATOM     11  H   UNL     1      48.295   5.035  15.392  0.00  0.00    +0.000 HD
BRANCH   9  12
ATOM     12  C   UNL     1      47.947   4.723  17.939  0.00  0.00    +0.000 A 
ATOM     13  C   UNL     1      47.248   5.652  18.701  0.00  0.00    +0.000 A 
ATOM     14  S   UNL     1      48.192   6.392  19.911  0.00  0.00    +0.000 S 
ATOM     15  C   UNL     1      49.554   5.464  19.493  0.00  0.00    +0.000 A 
ATOM     16  N   UNL     1      50.720   5.578  20.187  0.00  0.00    +0.000 NA
ATOM     17  C   UNL     1      51.655   4.783  19.792  0.00  0.00    +0.000 A 
ATOM     18  N   UNL     1      51.538   3.893  18.757  0.00  0.00    +0.000 N 
ATOM     19  C   UNL     1      50.398   3.772  18.000  0.00  0.00    +0.000 A 
ATOM     20  O   UNL     1      50.347   3.012  17.040  0.00  0.00    +0.000 OA
ATOM     21  C   UNL     1      49.301   4.621  18.424  0.00  0.00    +0.000 A 
ATOM     22  H   UNL     1      52.314   3.308  18.488  0.00  0.00    +0.000 HD
ENDBRANCH   9  12
ENDBRANCH   7  10
ENDBRANCH   1   7
BRANCH   5  23
ATOM     23  C   UNL     1      45.638   8.323  12.884  0.00  0.00    +0.000 C 
BRANCH  23  24
ATOM     24  N   UNL     1      46.623   8.766  13.838  0.00  0.00    +0.000 N 
ATOM     25  C   UNL     1      47.847   9.230  13.415  0.00  0.00    +0.000 C 
ATOM     26  O   UNL     1      48.154   9.290  12.224  0.00  0.00    +0.000 OA
ATOM     27  H   UNL     1      46.574   8.414  14.793  0.00  0.00    +0.000 HD
BRANCH  25  28
ATOM     28  C   UNL     1      48.830   9.670  14.506  0.00  0.00    +0.000 C 
ATOM     29  C   UNL     1      50.227   9.086  14.275  0.00  0.00    +0.000 C 
ATOM     30  C   UNL     1      50.294   7.619  14.692  0.00  0.00    +0.000 C 
ATOM     31  C   UNL     1      49.739   7.403  16.099  0.00  0.00    +0.000 C 
ATOM     32  N   UNL     1      48.387   7.953  16.252  0.00  0.00    +0.000 NA
ATOM     33  C   UNL     1      48.367   9.391  15.939  0.00  0.00    +0.000 C 
ATOM     34  H   UNL     1      48.087   7.821  17.219  0.00  0.00    +0.000 HD
ENDBRANCH  25  28
ENDBRANCH  23  24
ENDBRANCH   5  23
TORSDOF 6
ENDMDL
MODEL 5
REMARK VINA RESULT:    -6.991      3.452      5.611
REMARK INTER + INTRA:         -10.885
REMARK INTER:                  -9.869
REMARK INTRA:                  -1.016
REMARK UNBOUND:                -1.441
REMARK  Name = 
REMARK  6 active torsions:
REMARK  status: ('A' for Active; 'I' for Inactive)
REMARK    1  A    between atoms: C_2  and  C_21
REMARK    2  A    between atoms: N_3  and  C_4
REMARK    3  A    between atoms: C_4  and  C_5
REMARK    4  A    between atoms: C_9  and  C_10
REMARK    5  A    between atoms: C_10  and  N_11
REMARK    6  A    between atoms: C_12  and  C_14
REMARK                            x       y       z     vdW  Elec       q    Type
REMARK                         _______ _______ _______ _____ _____    ______ ____
ROOT
ATOM      1  C   UNL     1      49.589   7.294  14.874  0.00  0.00    +0.000 A 
ATOM      2  C   UNL     1      49.789   7.714  13.552  0.00  0.00    +0.000 A 
ATOM      3  C   UNL     1      48.966   7.247  12.528  0.00  0.00    +0.000 A 
ATOM      4  C   UNL     1      47.939   6.346  12.811  0.00  0.00    +0.000 A 
ATOM      5  C   UNL     1      47.719   5.905  14.124  0.00  0.00    +0.000 A 
ATOM      6  C   UNL     1      48.525   6.418  15.154  0.00  0.00    +0.000 A 
ENDROOT
BRANCH   1   7
ATOM      7  C   UNL     1      50.525   7.751  15.962  0.00  0.00    +0.000 C 
BRANCH   7  10
ATOM      8  O   UNL     1      50.299   6.442  18.376  0.00  0.00    +0.000 OA
ATOM      9  C   UNL     1      51.171   6.063  17.597  0.00  0.00    +0.000 C 
ATOM     10  N   UNL     1      51.408   6.702  16.404  0.00  0.00    +0.000 N 
ATOM     11  H   UNL     1      51.975   6.247  15.697  0.00  0.00    +0.000 HD
BRANCH   9  12
ATOM     12  C   UNL     1      52.035   4.923  17.921  0.00  0.00    +0.000 A 
ATOM     13  C   UNL     1      53.287   5.145  18.482  0.00  0.00    +0.000 A 
ATOM     14  S   UNL     1      54.157   3.714  18.800  0.00  0.00    +0.000 S 
ATOM     15  C   UNL     1      52.875   2.745  18.245  0.00  0.00    +0.000 A 
ATOM     16  N   UNL     1      52.954   1.387  18.285  0.00  0.00    +0.000 NA
ATOM     17  C   UNL     1      51.893   0.779  17.876  0.00  0.00    +0.000 A 
ATOM     18  N   UNL     1      50.764   1.403  17.416  0.00  0.00    +0.000 N 
ATOM     19  C   UNL     1      50.653   2.769  17.315  0.00  0.00    +0.000 A 
ATOM     20  O   UNL     1      49.654   3.295  16.839  0.00  0.00    +0.000 OA
ATOM     21  C   UNL     1      51.808   3.504  17.795  0.00  0.00    +0.000 A 
ATOM     22  H   UNL     1      49.972   0.868  17.095  0.00  0.00    +0.000 HD
ENDBRANCH   9  12
ENDBRANCH   7  10
ENDBRANCH   1   7
BRANCH   5  23
ATOM     23  C   UNL     1      46.677   4.853  14.407  0.00  0.00    +0.000 C 
BRANCH  23  24
ATOM     24  N   UNL     1      45.522   4.955  13.551  0.00  0.00    +0.000 N 
ATOM     25  C   UNL     1      45.114   3.879  12.797  0.00  0.00    +0.000 C 
ATOM     26  O   UNL     1      45.701   2.798  12.819  0.00  0.00    +0.000 OA
ATOM     27  H   UNL     1      45.234   5.876  13.225  0.00  0.00    +0.000 HD
BRANCH  25  28
ATOM     28  C   UNL     1      43.880   4.089  11.912  0.00  0.00    +0.000 C 
ATOM     29  C   UNL     1      43.604   2.866  11.031  0.00  0.00    +0.000 C 
ATOM     30  C   UNL     1      44.553   2.813   9.837  0.00  0.00    +0.000 C 
ATOM     31  C   UNL     1      44.595   4.142   9.085  0.00  0.00    +0.000 C 
ATOM     32  N   UNL     1      44.896   5.271   9.972  0.00  0.00    +0.000 NA
ATOM     33  C   UNL     1      43.909   5.362  11.061  0.00  0.00    +0.000 C 
ATOM     34  H   UNL     1      44.865   6.134   9.426  0.00  0.00    +0.000 HD
ENDBRANCH  25  28
ENDBRANCH  23  24
ENDBRANCH   5  23
TORSDOF 6
ENDMDL
MODEL 6
REMARK VINA RESULT:    -6.982      4.233      6.142
REMARK INTER + INTRA:         -10.872
REMARK INTER:                  -8.341
REMARK INTRA:                  -2.531
REMARK UNBOUND:                -1.441
REMARK  Name = 
REMARK  6 active torsions:
REMARK  status: ('A' for Active; 'I' for Inactive)
REMARK    1  A    between atoms: C_2  and  C_21
REMARK    2  A    between atoms: N_3  and  C_4
REMARK    3  A    between atoms: C_4  and  C_5
REMARK    4  A    between atoms: C_9  and  C_10
REMARK    5  A    between atoms: C_10  and  N_11
REMARK    6  A    between atoms: C_12  and  C_14
REMARK                            x       y       z     vdW  Elec       q    Type
REMARK                         _______ _______ _______ _____ _____    ______ ____
ROOT
ATOM      1  C   UNL     1      45.942   4.269  12.900  0.00  0.00    +0.000 A 
ATOM      2  C   UNL     1      45.132   3.748  11.883  0.00  0.00    +0.000 A 
ATOM      3  C   UNL     1      44.380   4.596  11.070  0.00  0.00    +0.000 A 
ATOM      4  C   UNL     1      44.420   5.976  11.273  0.00  0.00    +0.000 A 
ATOM      5  C   UNL     1      45.218   6.525  12.287  0.00  0.00    +0.000 A 
ATOM      6  C   UNL     1      46.006   5.664  13.069  0.00  0.00    +0.000 A 
ENDROOT
BRANCH   1   7
ATOM      7  C   UNL     1      46.696   3.341  13.816  0.00  0.00    +0.000 C 
BRANCH   7  10
ATOM      8  O   UNL     1      48.506   2.322  15.626  0.00  0.00    +0.000 OA
ATOM      9  C   UNL     1      47.985   3.405  15.883  0.00  0.00    +0.000 C 
ATOM     10  N   UNL     1      47.017   3.955  15.079  0.00  0.00    +0.000 N 
ATOM     11  H   UNL     1      46.764   4.930  15.196  0.00  0.00    +0.000 HD
BRANCH   9  12
ATOM     12  C   UNL     1      48.346   4.153  17.093  0.00  0.00    +0.000 A 
ATOM     13  C   UNL     1      48.212   3.553  18.339  0.00  0.00    +0.000 A 
ATOM     14  S   UNL     1      48.678   4.557  19.635  0.00  0.00    +0.000 S 
ATOM     15  C   UNL     1      49.121   5.811  18.575  0.00  0.00    +0.000 A 
ATOM     16  N   UNL     1      49.653   6.972  19.046  0.00  0.00    +0.000 NA
ATOM     17  C   UNL     1      49.985   7.817  18.131  0.00  0.00    +0.000 A 
ATOM     18  N   UNL     1      49.822   7.615  16.786  0.00  0.00    +0.000 N 
ATOM     19  C   UNL     1      49.250   6.479  16.264  0.00  0.00    +0.000 A 
ATOM     20  O   UNL     1      49.059   6.356  15.060  0.00  0.00    +0.000 OA
ATOM     21  C   UNL     1      48.889   5.480  17.251  0.00  0.00    +0.000 A 
ATOM     22  H   UNL     1      50.090   8.323  16.120  0.00  0.00    +0.000 HD
ENDBRANCH   9  12
ENDBRANCH   7  10
ENDBRANCH   1   7
BRANCH   5  23
ATOM     23  C   UNL     1      45.176   8.006  12.568  0.00  0.00    +0.000 C 
BRANCH  23  24
ATOM     24  N   UNL     1      46.362   8.698  12.130  0.00  0.00    +0.000 N 
ATOM     25  C   UNL     1      47.323   9.082  13.037  0.00  0.00    +0.000 C 
ATOM     26  O   UNL     1      47.220   8.855  14.242  0.00  0.00    +0.000 OA
ATOM     27  H   UNL     1      46.333   9.212  11.251  0.00  0.00    +0.000 HD
BRANCH  25  28
ATOM     28  C   UNL     1      48.544   9.818  12.475  0.00  0.00    +0.000 C 
ATOM     29  C   UNL     1      49.253   8.993  11.397  0.00  0.00    +0.000 C 
ATOM     30  C   UNL     1      50.103   7.884  12.013  0.00  0.00    +0.000 C 
ATOM     31  C   UNL     1      51.020   8.416  13.113  0.00  0.00    +0.000 C 
ATOM     32  N   UNL     1      50.282   9.169  14.133  0.00  0.00    +0.000 NA
ATOM     33  C   UNL     1      49.549  10.293  13.529  0.00  0.00    +0.000 C 
ATOM     34  H   UNL     1      50.949   9.537  14.815  0.00  0.00    +0.000 HD
ENDBRANCH  25  28
ENDBRANCH  23  24
ENDBRANCH   5  23
TORSDOF 6
ENDMDL
MODEL 7
REMARK VINA RESULT:    -6.957      5.065      9.789
REMARK INTER + INTRA:         -10.839
REMARK INTER:                  -8.609
REMARK INTRA:                  -2.230
REMARK UNBOUND:                -1.441
REMARK  Name = 
REMARK  6 active torsions:
REMARK  status: ('A' for Active; 'I' for Inactive)
REMARK    1  A    between atoms: C_2  and  C_21
REMARK    2  A    between atoms: N_3  and  C_4
REMARK    3  A    between atoms: C_4  and  C_5
REMARK    4  A    between atoms: C_9  and  C_10
REMARK    5  A    between atoms: C_10  and  N_11
REMARK    6  A    between atoms: C_12  and  C_14
REMARK                            x       y       z     vdW  Elec       q    Type
REMARK                         _______ _______ _______ _____ _____    ______ ____
ROOT
ATOM      1  C   UNL     1      48.825   3.329  17.364  0.00  0.00    +0.000 A 
ATOM      2  C   UNL     1      49.467   2.163  16.926  0.00  0.00    +0.000 A 
ATOM      3  C   UNL     1      50.834   1.985  17.138  0.00  0.00    +0.000 A 
ATOM      4  C   UNL     1      51.578   2.974  17.781  0.00  0.00    +0.000 A 
ATOM      5  C   UNL     1      50.962   4.152  18.225  0.00  0.00    +0.000 A 
ATOM      6  C   UNL     1      49.577   4.301  18.048  0.00  0.00    +0.000 A 
ENDROOT
BRANCH   1   7
ATOM      7  C   UNL     1      47.364   3.542  17.070  0.00  0.00    +0.000 C 
BRANCH   7  10
ATOM      8  O   UNL     1      47.305   3.126  14.347  0.00  0.00    +0.000 OA
ATOM      9  C   UNL     1      47.064   4.259  14.761  0.00  0.00    +0.000 C 
ATOM     10  N   UNL     1      47.144   4.578  16.094  0.00  0.00    +0.000 N 
ATOM     11  H   UNL     1      46.739   5.447  16.426  0.00  0.00    +0.000 HD
BRANCH   9  12
ATOM     12  C   UNL     1      46.714   5.345  13.839  0.00  0.00    +0.000 A 
ATOM     13  C   UNL     1      45.533   5.276  13.110  0.00  0.00    +0.000 A 
ATOM     14  S   UNL     1      45.278   6.618  12.092  0.00  0.00    +0.000 S 
ATOM     15  C   UNL     1      46.712   7.363  12.623  0.00  0.00    +0.000 A 
ATOM     16  N   UNL     1      47.075   8.591  12.164  0.00  0.00    +0.000 NA
ATOM     17  C   UNL     1      48.160   9.055  12.685  0.00  0.00    +0.000 A 
ATOM     18  N   UNL     1      48.924   8.398  13.612  0.00  0.00    +0.000 N 
ATOM     19  C   UNL     1      48.623   7.139  14.072  0.00  0.00    +0.000 A 
ATOM     20  O   UNL     1      49.362   6.551  14.853  0.00  0.00    +0.000 OA
ATOM     21  C   UNL     1      47.392   6.584  13.543  0.00  0.00    +0.000 A 
ATOM     22  H   UNL     1      49.772   8.811  13.970  0.00  0.00    +0.000 HD
ENDBRANCH   9  12
ENDBRANCH   7  10
ENDBRANCH   1   7
BRANCH   5  23
ATOM     23  C   UNL     1      51.789   5.263  18.825  0.00  0.00    +0.000 C 
BRANCH  23  24
ATOM     24  N   UNL     1      51.128   6.543  18.788  0.00  0.00    +0.000 N 
ATOM     25  C   UNL     1      50.685   7.133  19.949  0.00  0.00    +0.000 C 
ATOM     26  O   UNL     1      50.830   6.610  21.053  0.00  0.00    +0.000 OA
ATOM     27  H   UNL     1      50.673   6.835  17.925  0.00  0.00    +0.000 HD
BRANCH  25  28
ATOM     28  C   UNL     1      49.987   8.491  19.806  0.00  0.00    +0.000 C 
ATOM     29  C   UNL     1      48.483   8.383  20.074  0.00  0.00    +0.000 C 
ATOM     30  C   UNL     1      47.744   7.785  18.879  0.00  0.00    +0.000 C 
ATOM     31  C   UNL     1      48.108   8.493  17.575  0.00  0.00    +0.000 C 
ATOM     32  N   UNL     1      49.558   8.537  17.355  0.00  0.00    +0.000 NA
ATOM     33  C   UNL     1      50.240   9.206  18.475  0.00  0.00    +0.000 C 
ATOM     34  H   UNL     1      49.743   9.059  16.496  0.00  0.00    +0.000 HD
ENDBRANCH  25  28
ENDBRANCH  23  24
ENDBRANCH   5  23
TORSDOF 6
ENDMDL
MODEL 8
REMARK VINA RESULT:    -6.862      4.711      9.280
REMARK INTER + INTRA:         -10.711
REMARK INTER:                  -9.275
REMARK INTRA:                  -1.436
REMARK UNBOUND:                -1.441
REMARK  Name = 
REMARK  6 active torsions:
REMARK  status: ('A' for Active; 'I' for Inactive)
REMARK    1  A    between atoms: C_2  and  C_21
REMARK    2  A    between atoms: N_3  and  C_4
REMARK    3  A    between atoms: C_4  and  C_5
REMARK    4  A    between atoms: C_9  and  C_10
REMARK    5  A    between atoms: C_10  and  N_11
REMARK    6  A    between atoms: C_12  and  C_14
REMARK                            x       y       z     vdW  Elec       q    Type
REMARK                         _______ _______ _______ _____ _____    ______ ____
ROOT
ATOM      1  C   UNL     1      48.729   3.549  17.041  0.00  0.00    +0.000 A 
ATOM      2  C   UNL     1      49.496   2.380  17.143  0.00  0.00    +0.000 A 
ATOM      3  C   UNL     1      50.861   2.451  17.421  0.00  0.00    +0.000 A 
ATOM      4  C   UNL     1      51.478   3.691  17.588  0.00  0.00    +0.000 A 
ATOM      5  C   UNL     1      50.735   4.876  17.486  0.00  0.00    +0.000 A 
ATOM      6  C   UNL     1      49.353   4.790  17.252  0.00  0.00    +0.000 A 
ENDROOT
BRANCH   1   7
ATOM      7  C   UNL     1      47.271   3.465  16.674  0.00  0.00    +0.000 C 
BRANCH   7  10
ATOM      8  O   UNL     1      47.233   3.170  13.934  0.00  0.00    +0.000 OA
ATOM      9  C   UNL     1      46.825   4.230  14.403  0.00  0.00    +0.000 C 
ATOM     10  N   UNL     1      46.876   4.497  15.750  0.00  0.00    +0.000 N 
ATOM     11  H   UNL     1      46.344   5.275  16.126  0.00  0.00    +0.000 HD
BRANCH   9  12
ATOM     12  C   UNL     1      46.294   5.288  13.537  0.00  0.00    +0.000 A 
ATOM     13  C   UNL     1      47.090   6.382  13.219  0.00  0.00    +0.000 A 
ATOM     14  S   UNL     1      46.322   7.514  12.202  0.00  0.00    +0.000 S 
ATOM     15  C   UNL     1      44.917   6.560  12.111  0.00  0.00    +0.000 A 
ATOM     16  N   UNL     1      43.859   6.943  11.345  0.00  0.00    +0.000 NA
ATOM     17  C   UNL     1      42.879   6.104  11.332  0.00  0.00    +0.000 A 
ATOM     18  N   UNL     1      42.853   4.924  12.026  0.00  0.00    +0.000 N 
ATOM     19  C   UNL     1      43.877   4.516  12.846  0.00  0.00    +0.000 A 
ATOM     20  O   UNL     1      43.796   3.485  13.504  0.00  0.00    +0.000 OA
ATOM     21  C   UNL     1      45.020   5.408  12.871  0.00  0.00    +0.000 A 
ATOM     22  H   UNL     1      42.048   4.317  11.985  0.00  0.00    +0.000 HD
ENDBRANCH   9  12
ENDBRANCH   7  10
ENDBRANCH   1   7
BRANCH   5  23
ATOM     23  C   UNL     1      51.426   6.215  17.564  0.00  0.00    +0.000 C 
BRANCH  23  24
ATOM     24  N   UNL     1      50.553   7.320  17.256  0.00  0.00    +0.000 N 
ATOM     25  C   UNL     1      50.632   7.955  16.039  0.00  0.00    +0.000 C 
ATOM     26  O   UNL     1      51.434   7.616  15.169  0.00  0.00    +0.000 OA
ATOM     27  H   UNL     1      50.148   7.853  18.024  0.00  0.00    +0.000 HD
BRANCH  25  28
ATOM     28  C   UNL     1      49.667   9.123  15.809  0.00  0.00    +0.000 C 
ATOM     29  C   UNL     1      50.418  10.432  15.548  0.00  0.00    +0.000 C 
ATOM     30  C   UNL     1      50.964  11.030  16.842  0.00  0.00    +0.000 C 
ATOM     31  C   UNL     1      49.889  11.119  17.924  0.00  0.00    +0.000 C 
ATOM     32  N   UNL     1      49.227   9.831  18.155  0.00  0.00    +0.000 NA
ATOM     33  C   UNL     1      48.623   9.321  16.913  0.00  0.00    +0.000 C 
ATOM     34  H   UNL     1      48.491   9.960  18.851  0.00  0.00    +0.000 HD
ENDBRANCH  25  28
ENDBRANCH  23  24
ENDBRANCH   5  23
TORSDOF 6
ENDMDL
MODEL 9
REMARK VINA RESULT:    -6.592      3.279      5.366
REMARK INTER + INTRA:         -10.346
REMARK INTER:                  -8.420
REMARK INTRA:                  -1.926
REMARK UNBOUND:                -1.441
REMARK  Name = 
REMARK  6 active torsions:
REMARK  status: ('A' for Active; 'I' for Inactive)
REMARK    1  A    between atoms: C_2  and  C_21
REMARK    2  A    between atoms: N_3  and  C_4
REMARK    3  A    between atoms: C_4  and  C_5
REMARK    4  A    between atoms: C_9  and  C_10
REMARK    5  A    between atoms: C_10  and  N_11
REMARK    6  A    between atoms: C_12  and  C_14
REMARK                            x       y       z     vdW  Elec       q    Type
REMARK                         _______ _______ _______ _____ _____    ______ ____
ROOT
ATOM      1  C   UNL     1      47.546  10.512  12.486  0.00  0.00    +0.000 A 
ATOM      2  C   UNL     1      47.279  11.812  12.037  0.00  0.00    +0.000 A 
ATOM      3  C   UNL     1      46.072  12.109  11.404  0.00  0.00    +0.000 A 
ATOM      4  C   UNL     1      45.122  11.107  11.202  0.00  0.00    +0.000 A 
ATOM      5  C   UNL     1      45.366   9.797  11.637  0.00  0.00    +0.000 A 
ATOM      6  C   UNL     1      46.565   9.520  12.314  0.00  0.00    +0.000 A 
ENDROOT
BRANCH   1   7
ATOM      7  C   UNL     1      48.880  10.186  13.106  0.00  0.00    +0.000 C 
BRANCH   7  10
ATOM      8  O   UNL     1      50.927   8.404  13.585  0.00  0.00    +0.000 OA
ATOM      9  C   UNL     1      49.900   8.293  14.253  0.00  0.00    +0.000 C 
ATOM     10  N   UNL     1      48.801   9.086  14.034  0.00  0.00    +0.000 N 
ATOM     11  H   UNL     1      48.061   9.119  14.727  0.00  0.00    +0.000 HD
BRANCH   9  12
ATOM     12  C   UNL     1      49.785   7.274  15.301  0.00  0.00    +0.000 A 
ATOM     13  C   UNL     1      50.702   7.251  16.344  0.00  0.00    +0.000 A 
ATOM     14  S   UNL     1      50.421   6.007  17.475  0.00  0.00    +0.000 S 
ATOM     15  C   UNL     1      49.036   5.485  16.639  0.00  0.00    +0.000 A 
ATOM     16  N   UNL     1      48.279   4.457  17.110  0.00  0.00    +0.000 NA
ATOM     17  C   UNL     1      47.233   4.197  16.402  0.00  0.00    +0.000 A 
ATOM     18  N   UNL     1      46.881   4.860  15.257  0.00  0.00    +0.000 N 
ATOM     19  C   UNL     1      47.636   5.874  14.718  0.00  0.00    +0.000 A 
ATOM     20  O   UNL     1      47.328   6.405  13.657  0.00  0.00    +0.000 OA
ATOM     21  C   UNL     1      48.807   6.231  15.495  0.00  0.00    +0.000 A 
ATOM     22  H   UNL     1      46.056   4.597  14.740  0.00  0.00    +0.000 HD
ENDBRANCH   9  12
ENDBRANCH   7  10
ENDBRANCH   1   7
BRANCH   5  23
ATOM     23  C   UNL     1      44.382   8.697  11.323  0.00  0.00    +0.000 C 
BRANCH  23  24
ATOM     24  N   UNL     1      44.764   7.422  11.876  0.00  0.00    +0.000 N 
ATOM     25  C   UNL     1      43.913   6.345  11.800  0.00  0.00    +0.000 C 
ATOM     26  O   UNL     1      42.807   6.414  11.265  0.00  0.00    +0.000 OA
ATOM     27  H   UNL     1      45.466   7.398  12.614  0.00  0.00    +0.000 HD
BRANCH  25  28
ATOM     28  C   UNL     1      44.406   5.034  12.423  0.00  0.00    +0.000 C 
ATOM     29  C   UNL     1      45.569   4.433  11.627  0.00  0.00    +0.000 C 
ATOM     30  C   UNL     1      45.078   3.741  10.358  0.00  0.00    +0.000 C 
ATOM     31  C   UNL     1      43.936   2.768  10.647  0.00  0.00    +0.000 C 
ATOM     32  N   UNL     1      42.838   3.405  11.382  0.00  0.00    +0.000 NA
ATOM     33  C   UNL     1      43.317   3.980  12.649  0.00  0.00    +0.000 C 
ATOM     34  H   UNL     1      42.128   2.700  11.586  0.00  0.00    +0.000 HD
ENDBRANCH  25  28
ENDBRANCH  23  24
ENDBRANCH   5  23
TORSDOF 6
ENDMDL
