MODEL 1
REMARK VINA RESULT:    -7.524      0.000      0.000
REMARK INTER + INTRA:         -10.427
REMARK INTER:                  -9.724
REMARK INTRA:                  -0.703
REMARK UNBOUND:                -0.703
REMARK  Name = 
REMARK  7 active torsions:
REMARK  status: ('A' for Active; 'I' for Inactive)
REMARK    1  A    between atoms: C_1  and  O_2
REMARK    2  A    between atoms: O_2  and  C_3
REMARK    3  A    between atoms: C_8  and  C_9
REMARK    4  A    between atoms: C_13  and  O_14
REMARK    5  A    between atoms: O_14  and  C_15
REMARK    6  A    between atoms: C_15  and  C_16
REMARK    7  A    between atoms: C_20  and  C_21
REMARK                            x       y       z     vdW  Elec       q    Type
REMARK                         _______ _______ _______ _____ _____    ______ ____
ROOT
ATOM      1  C   UNL     1      45.233   5.061  12.219  0.00  0.00    +0.000 A 
ATOM      2  C   UNL     1      44.358   4.388  13.076  0.00  0.00    +0.000 A 
ATOM      3  C   UNL     1      43.521   3.399  12.570  0.00  0.00    +0.000 A 
ATOM      4  C   UNL     1      43.562   3.109  11.215  0.00  0.00    +0.000 A 
ATOM      5  C   UNL     1      44.449   3.819  10.424  0.00  0.00    +0.000 A 
ATOM      6  N   UNL     1      45.266   4.790  10.889  0.00  0.00    +0.000 NA
ENDROOT
BRANCH   1  12
ATOM      7  C   UNL     1      48.155   6.734  14.003  0.00  0.00    +0.000 A 
ATOM      8  C   UNL     1      48.007   8.059  13.592  0.00  0.00    +0.000 A 
ATOM      9  C   UNL     1      46.949   8.408  12.760  0.00  0.00    +0.000 A 
ATOM     10  C   UNL     1      46.050   7.434  12.328  0.00  0.00    +0.000 A 
ATOM     11  F   UNL     1      45.035   7.839  11.553  0.00  0.00    +0.000 F 
ATOM     12  C   UNL     1      46.183   6.087  12.691  0.00  0.00    +0.000 A 
ATOM     13  C   UNL     1      47.259   5.760  13.543  0.00  0.00    +0.000 A 
BRANCH   7  15
ATOM     14  C   UNL     1      49.133   6.769  16.157  0.00  0.00    +0.000 C 
ATOM     15  O   UNL     1      49.158   6.281  14.819  0.00  0.00    +0.000 OA
ENDBRANCH   7  15
ENDBRANCH   1  12
BRANCH   5  16
ATOM     16  O   UNL     1      44.442   3.529   9.075  0.00  0.00    +0.000 OA
BRANCH  16  17
ATOM     17  C   UNL     1      45.545   4.137   8.394  0.00  0.00    +0.000 C 
BRANCH  17  18
ATOM     18  C   UNL     1      46.212   3.107   7.507  0.00  0.00    +0.000 A 
ATOM     19  C   UNL     1      46.774   3.497   6.294  0.00  0.00    +0.000 A 
ATOM     20  C   UNL     1      47.394   2.537   5.502  0.00  0.00    +0.000 A 
ATOM     21  C   UNL     1      47.439   1.218   5.940  0.00  0.00    +0.000 A 
ATOM     22  C   UNL     1      46.864   0.899   7.165  0.00  0.00    +0.000 A 
ATOM     23  C   UNL     1      46.905  -0.504   7.692  0.00  0.00    +0.000 C 
ATOM     24  N   UNL     1      46.257   1.823   7.948  0.00  0.00    +0.000 NA
ENDBRANCH  17  18
ENDBRANCH  16  17
ENDBRANCH   5  16
TORSDOF 5
ENDMDL
MODEL 2
REMARK VINA RESULT:    -7.424      1.851      2.502
REMARK INTER + INTRA:         -10.297
REMARK INTER:                  -9.511
REMARK INTRA:                  -0.786
REMARK UNBOUND:                -0.703
REMARK  Name = 
REMARK  7 active torsions:
REMARK  status: ('A' for Active; 'I' for Inactive)
REMARK    1  A    between atoms: C_1  and  O_2
REMARK    2  A    between atoms: O_2  and  C_3
REMARK    3  A    between atoms: C_8  and  C_9
REMARK    4  A    between atoms: C_13  and  O_14
REMARK    5  A    between atoms: O_14  and  C_15
REMARK    6  A    between atoms: C_15  and  C_16
REMARK    7  A    between atoms: C_20  and  C_21
REMARK                            x       y       z     vdW  Elec       q    Type
REMARK                         _______ _______ _______ _____ _____    ______ ____
ROOT
ATOM      1  C   UNL     1      46.611   6.457  12.262  0.00  0.00    +0.000 A 
ATOM      2  C   UNL     1      46.736   5.632  13.383  0.00  0.00    +0.000 A 
ATOM      3  C   UNL     1      46.042   4.428  13.434  0.00  0.00    +0.000 A 
ATOM      4  C   UNL     1      45.225   4.074  12.371  0.00  0.00    +0.000 A 
ATOM      5  C   UNL     1      45.144   4.942  11.296  0.00  0.00    +0.000 A 
ATOM      6  N   UNL     1      45.800   6.121  11.225  0.00  0.00    +0.000 NA
ENDROOT
BRANCH   1  12
ATOM      7  C   UNL     1      49.430   8.946  11.646  0.00  0.00    +0.000 A 
ATOM      8  C   UNL     1      48.771  10.161  11.831  0.00  0.00    +0.000 A 
ATOM      9  C   UNL     1      47.424  10.168  12.177  0.00  0.00    +0.000 A 
ATOM     10  C   UNL     1      46.735   8.965  12.324  0.00  0.00    +0.000 A 
ATOM     11  F   UNL     1      45.448   9.039  12.688  0.00  0.00    +0.000 F 
ATOM     12  C   UNL     1      47.352   7.725  12.115  0.00  0.00    +0.000 A 
ATOM     13  C   UNL     1      48.721   7.744  11.774  0.00  0.00    +0.000 A 
BRANCH   7  15
ATOM     14  C   UNL     1      51.134   7.561  10.765  0.00  0.00    +0.000 C 
ATOM     15  O   UNL     1      50.751   8.823  11.305  0.00  0.00    +0.000 OA
ENDBRANCH   7  15
ENDBRANCH   1  12
BRANCH   5  16
ATOM     16  O   UNL     1      44.298   4.576  10.270  0.00  0.00    +0.000 OA
BRANCH  16  17
ATOM     17  C   UNL     1      44.304   3.161  10.053  0.00  0.00    +0.000 C 
BRANCH  17  18
ATOM     18  C   UNL     1      45.229   2.837   8.900  0.00  0.00    +0.000 A 
ATOM     19  C   UNL     1      45.653   3.850   8.044  0.00  0.00    +0.000 A 
ATOM     20  C   UNL     1      46.513   3.531   7.000  0.00  0.00    +0.000 A 
ATOM     21  C   UNL     1      46.929   2.214   6.838  0.00  0.00    +0.000 A 
ATOM     22  C   UNL     1      46.473   1.253   7.732  0.00  0.00    +0.000 A 
ATOM     23  C   UNL     1      46.908  -0.177   7.613  0.00  0.00    +0.000 C 
ATOM     24  N   UNL     1      45.634   1.548   8.755  0.00  0.00    +0.000 NA
ENDBRANCH  17  18
ENDBRANCH  16  17
ENDBRANCH   5  16
TORSDOF 5
ENDMDL
MODEL 3
REMARK VINA RESULT:    -7.378      1.735      2.457
REMARK INTER + INTRA:         -10.238
REMARK INTER:                  -9.481
REMARK INTRA:                  -0.758
REMARK UNBOUND:                -0.703
REMARK  Name = 
REMARK  7 active torsions:
REMARK  status: ('A' for Active; 'I' for Inactive)
REMARK    1  A    between atoms: C_1  and  O_2
REMARK    2  A    between atoms: O_2  and  C_3
REMARK    3  A    between atoms: C_8  and  C_9
REMARK    4  A    between atoms: C_13  and  O_14
REMARK    5  A    between atoms: O_14  and  C_15
REMARK    6  A    between atoms: C_15  and  C_16
REMARK    7  A    between atoms: C_20  and  C_21
REMARK                            x       y       z     vdW  Elec       q    Type
REMARK                         _______ _______ _______ _____ _____    ______ ____
ROOT
ATOM      1  C   UNL     1      44.901   5.370  11.998  0.00  0.00    +0.000 A 
ATOM      2  C   UNL     1      44.191   4.602  12.925  0.00  0.00    +0.000 A 
ATOM      3  C   UNL     1      43.562   3.432  12.512  0.00  0.00    +0.000 A 
ATOM      4  C   UNL     1      43.643   3.056  11.180  0.00  0.00    +0.000 A 
ATOM      5  C   UNL     1      44.360   3.867  10.318  0.00  0.00    +0.000 A 
ATOM      6  N   UNL     1      44.971   5.013  10.690  0.00  0.00    +0.000 NA
ENDROOT
BRANCH   1  12
ATOM      7  C   UNL     1      45.917   9.034  12.261  0.00  0.00    +0.000 A 
ATOM      8  C   UNL     1      47.035   8.951  13.090  0.00  0.00    +0.000 A 
ATOM      9  C   UNL     1      47.468   7.709  13.541  0.00  0.00    +0.000 A 
ATOM     10  C   UNL     1      46.779   6.555  13.175  0.00  0.00    +0.000 A 
ATOM     11  F   UNL     1      47.264   5.386  13.616  0.00  0.00    +0.000 F 
ATOM     12  C   UNL     1      45.632   6.597  12.371  0.00  0.00    +0.000 A 
ATOM     13  C   UNL     1      45.218   7.868  11.919  0.00  0.00    +0.000 A 
BRANCH   7  15
ATOM     14  C   UNL     1      43.999  10.208  11.526  0.00  0.00    +0.000 C 
ATOM     15  O   UNL     1      45.405  10.202  11.762  0.00  0.00    +0.000 OA
ENDBRANCH   7  15
ENDBRANCH   1  12
BRANCH   5  16
ATOM     16  O   UNL     1      44.394   3.482   8.993  0.00  0.00    +0.000 OA
BRANCH  16  17
ATOM     17  C   UNL     1      45.468   4.108   8.284  0.00  0.00    +0.000 C 
BRANCH  17  18
ATOM     18  C   UNL     1      46.172   3.075   7.431  0.00  0.00    +0.000 A 
ATOM     19  C   UNL     1      46.766   3.454   6.230  0.00  0.00    +0.000 A 
ATOM     20  C   UNL     1      47.419   2.491   5.469  0.00  0.00    +0.000 A 
ATOM     21  C   UNL     1      47.465   1.179   5.926  0.00  0.00    +0.000 A 
ATOM     22  C   UNL     1      46.857   0.869   7.138  0.00  0.00    +0.000 A 
ATOM     23  C   UNL     1      46.897  -0.526   7.684  0.00  0.00    +0.000 C 
ATOM     24  N   UNL     1      46.217   1.797   7.890  0.00  0.00    +0.000 NA
ENDBRANCH  17  18
ENDBRANCH  16  17
ENDBRANCH   5  16
TORSDOF 5
ENDMDL
MODEL 4
REMARK VINA RESULT:    -7.285      2.689      7.716
REMARK INTER + INTRA:         -10.117
REMARK INTER:                  -9.271
REMARK INTRA:                  -0.847
REMARK UNBOUND:                -0.703
REMARK  Name = 
REMARK  7 active torsions:
REMARK  status: ('A' for Active; 'I' for Inactive)
REMARK    1  A    between atoms: C_1  and  O_2
REMARK    2  A    between atoms: O_2  and  C_3
REMARK    3  A    between atoms: C_8  and  C_9
REMARK    4  A    between atoms: C_13  and  O_14
REMARK    5  A    between atoms: O_14  and  C_15
REMARK    6  A    between atoms: C_15  and  C_16
REMARK    7  A    between atoms: C_20  and  C_21
REMARK                            x       y       z     vdW  Elec       q    Type
REMARK                         _______ _______ _______ _____ _____    ______ ____
ROOT
ATOM      1  C   UNL     1      46.059   6.228  12.154  0.00  0.00    +0.000 A 
ATOM      2  C   UNL     1      45.552   7.528  12.232  0.00  0.00    +0.000 A 
ATOM      3  C   UNL     1      46.193   8.472  13.027  0.00  0.00    +0.000 A 
ATOM      4  C   UNL     1      47.322   8.098  13.741  0.00  0.00    +0.000 A 
ATOM      5  C   UNL     1      47.765   6.793  13.620  0.00  0.00    +0.000 A 
ATOM      6  N   UNL     1      47.156   5.855  12.863  0.00  0.00    +0.000 NA
ENDROOT
BRANCH   1  12
ATOM      7  C   UNL     1      45.071   4.206   9.079  0.00  0.00    +0.000 A 
ATOM      8  C   UNL     1      44.315   3.184   9.653  0.00  0.00    +0.000 A 
ATOM      9  C   UNL     1      44.109   3.168  11.028  0.00  0.00    +0.000 A 
ATOM     10  C   UNL     1      44.668   4.161  11.829  0.00  0.00    +0.000 A 
ATOM     11  F   UNL     1      44.407   4.107  13.142  0.00  0.00    +0.000 F 
ATOM     12  C   UNL     1      45.461   5.187  11.297  0.00  0.00    +0.000 A 
ATOM     13  C   UNL     1      45.648   5.186   9.898  0.00  0.00    +0.000 A 
BRANCH   7  15
ATOM     14  C   UNL     1      46.426   3.536   7.259  0.00  0.00    +0.000 C 
ATOM     15  O   UNL     1      45.337   4.318   7.740  0.00  0.00    +0.000 OA
ENDBRANCH   7  15
ENDBRANCH   1  12
BRANCH   5  16
ATOM     16  O   UNL     1      48.871   6.445  14.368  0.00  0.00    +0.000 OA
BRANCH  16  17
ATOM     17  C   UNL     1      48.640   6.614  15.771  0.00  0.00    +0.000 C 
BRANCH  17  18
ATOM     18  C   UNL     1      48.606   5.256  16.438  0.00  0.00    +0.000 A 
ATOM     19  C   UNL     1      47.386   4.627  16.669  0.00  0.00    +0.000 A 
ATOM     20  C   UNL     1      47.379   3.373  17.271  0.00  0.00    +0.000 A 
ATOM     21  C   UNL     1      48.587   2.781  17.623  0.00  0.00    +0.000 A 
ATOM     22  C   UNL     1      49.770   3.461  17.357  0.00  0.00    +0.000 A 
ATOM     23  C   UNL     1      51.098   2.856  17.698  0.00  0.00    +0.000 C 
ATOM     24  N   UNL     1      49.792   4.683  16.772  0.00  0.00    +0.000 NA
ENDBRANCH  17  18
ENDBRANCH  16  17
ENDBRANCH   5  16
TORSDOF 5
ENDMDL
MODEL 5
REMARK VINA RESULT:    -7.061      1.617      2.193
REMARK INTER + INTRA:          -9.828
REMARK INTER:                  -9.059
REMARK INTRA:                  -0.769
REMARK UNBOUND:                -0.703
REMARK  Name = 
REMARK  7 active torsions:
REMARK  status: ('A' for Active; 'I' for Inactive)
REMARK    1  A    between atoms: C_1  and  O_2
REMARK    2  A    between atoms: O_2  and  C_3
REMARK    3  A    between atoms: C_8  and  C_9
REMARK    4  A    between atoms: C_13  and  O_14
REMARK    5  A    between atoms: O_14  and  C_15
REMARK    6  A    between atoms: C_15  and  C_16
REMARK    7  A    between atoms: C_20  and  C_21
REMARK                            x       y       z     vdW  Elec       q    Type
REMARK                         _______ _______ _______ _____ _____    ______ ____
ROOT
ATOM      1  C   UNL     1      44.683   6.195  11.860  0.00  0.00    +0.000 A 
ATOM      2  C   UNL     1      43.989   5.670  12.953  0.00  0.00    +0.000 A 
ATOM      3  C   UNL     1      43.311   4.462  12.824  0.00  0.00    +0.000 A 
ATOM      4  C   UNL     1      43.327   3.807  11.602  0.00  0.00    +0.000 A 
ATOM      5  C   UNL     1      44.030   4.388  10.561  0.00  0.00    +0.000 A 
ATOM      6  N   UNL     1      44.689   5.564  10.657  0.00  0.00    +0.000 NA
ENDROOT
BRANCH   1  12
ATOM      7  C   UNL     1      47.552   8.637  12.432  0.00  0.00    +0.000 A 
ATOM      8  C   UNL     1      46.960   9.847  12.073  0.00  0.00    +0.000 A 
ATOM      9  C   UNL     1      45.629   9.870  11.669  0.00  0.00    +0.000 A 
ATOM     10  C   UNL     1      44.897   8.686  11.612  0.00  0.00    +0.000 A 
ATOM     11  F   UNL     1      43.612   8.779  11.246  0.00  0.00    +0.000 F 
ATOM     12  C   UNL     1      45.463   7.446  11.934  0.00  0.00    +0.000 A 
ATOM     13  C   UNL     1      46.812   7.450  12.349  0.00  0.00    +0.000 A 
BRANCH   7  15
ATOM     14  C   UNL     1      49.841   8.924  11.909  0.00  0.00    +0.000 C 
ATOM     15  O   UNL     1      48.852   8.499  12.842  0.00  0.00    +0.000 OA
ENDBRANCH   7  15
ENDBRANCH   1  12
BRANCH   5  16
ATOM     16  O   UNL     1      43.999   3.727   9.350  0.00  0.00    +0.000 OA
BRANCH  16  17
ATOM     17  C   UNL     1      45.008   4.208   8.455  0.00  0.00    +0.000 C 
BRANCH  17  18
ATOM     18  C   UNL     1      45.760   3.031   7.873  0.00  0.00    +0.000 A 
ATOM     19  C   UNL     1      45.792   1.819   8.559  0.00  0.00    +0.000 A 
ATOM     20  C   UNL     1      46.477   0.747   7.998  0.00  0.00    +0.000 A 
ATOM     21  C   UNL     1      47.109   0.910   6.771  0.00  0.00    +0.000 A 
ATOM     22  C   UNL     1      47.032   2.145   6.136  0.00  0.00    +0.000 A 
ATOM     23  C   UNL     1      47.679   2.365   4.802  0.00  0.00    +0.000 C 
ATOM     24  N   UNL     1      46.368   3.199   6.669  0.00  0.00    +0.000 NA
ENDBRANCH  17  18
ENDBRANCH  16  17
ENDBRANCH   5  16
TORSDOF 5
ENDMDL
MODEL 6
REMARK VINA RESULT:    -6.995      1.506      2.327
REMARK INTER + INTRA:          -9.743
REMARK INTER:                  -9.003
REMARK INTRA:                  -0.740
REMARK UNBOUND:                -0.703
REMARK  Name = 
REMARK  7 active torsions:
REMARK  status: ('A' for Active; 'I' for Inactive)
REMARK    1  A    between atoms: C_1  and  O_2
REMARK    2  A    between atoms: O_2  and  C_3
REMARK    3  A    between atoms: C_8  and  C_9
REMARK    4  A    between atoms: C_13  and  O_14
REMARK    5  A    between atoms: O_14  and  C_15
REMARK    6  A    between atoms: C_15  and  C_16
REMARK    7  A    between atoms: C_20  and  C_21
REMARK                            x       y       z     vdW  Elec       q    Type
REMARK                         _______ _______ _______ _____ _____    ______ ____
ROOT
ATOM      1  C   UNL     1      46.571   6.705  12.462  0.00  0.00    +0.000 A 
ATOM      2  C   UNL     1      45.602   7.652  12.119  0.00  0.00    +0.000 A 
ATOM      3  C   UNL     1      44.401   7.237  11.554  0.00  0.00    +0.000 A 
ATOM      4  C   UNL     1      44.192   5.885  11.331  0.00  0.00    +0.000 A 
ATOM      5  C   UNL     1      45.197   5.003  11.691  0.00  0.00    +0.000 A 
ATOM      6  N   UNL     1      46.376   5.381  12.232  0.00  0.00    +0.000 NA
ENDROOT
BRANCH   1  12
ATOM      7  C   UNL     1      49.397   6.932  15.007  0.00  0.00    +0.000 A 
ATOM      8  C   UNL     1      50.303   7.756  14.341  0.00  0.00    +0.000 A 
ATOM      9  C   UNL     1      49.985   8.253  13.081  0.00  0.00    +0.000 A 
ATOM     10  C   UNL     1      48.771   7.916  12.485  0.00  0.00    +0.000 A 
ATOM     11  F   UNL     1      48.511   8.452  11.285  0.00  0.00    +0.000 F 
ATOM     12  C   UNL     1      47.848   7.065  13.107  0.00  0.00    +0.000 A 
ATOM     13  C   UNL     1      48.191   6.581  14.387  0.00  0.00    +0.000 A 
BRANCH   7  15
ATOM     14  C   UNL     1      48.900   7.003  17.319  0.00  0.00    +0.000 C 
ATOM     15  O   UNL     1      49.608   6.388  16.247  0.00  0.00    +0.000 OA
ENDBRANCH   7  15
ENDBRANCH   1  12
BRANCH   5  16
ATOM     16  O   UNL     1      44.971   3.668  11.425  0.00  0.00    +0.000 OA
BRANCH  16  17
ATOM     17  C   UNL     1      44.219   3.485  10.221  0.00  0.00    +0.000 C 
BRANCH  17  18
ATOM     18  C   UNL     1      45.168   3.170   9.084  0.00  0.00    +0.000 A 
ATOM     19  C   UNL     1      45.673   4.201   8.296  0.00  0.00    +0.000 A 
ATOM     20  C   UNL     1      46.554   3.891   7.266  0.00  0.00    +0.000 A 
ATOM     21  C   UNL     1      46.909   2.563   7.051  0.00  0.00    +0.000 A 
ATOM     22  C   UNL     1      46.373   1.584   7.879  0.00  0.00    +0.000 A 
ATOM     23  C   UNL     1      46.740   0.141   7.702  0.00  0.00    +0.000 C 
ATOM     24  N   UNL     1      45.513   1.871   8.887  0.00  0.00    +0.000 NA
ENDBRANCH  17  18
ENDBRANCH  16  17
ENDBRANCH   5  16
TORSDOF 5
ENDMDL
MODEL 7
REMARK VINA RESULT:    -6.762      1.833      2.669
REMARK INTER + INTRA:          -9.441
REMARK INTER:                  -8.785
REMARK INTRA:                  -0.656
REMARK UNBOUND:                -0.703
REMARK  Name = 
REMARK  7 active torsions:
REMARK  status: ('A' for Active; 'I' for Inactive)
REMARK    1  A    between atoms: C_1  and  O_2
REMARK    2  A    between atoms: O_2  and  C_3
REMARK    3  A    between atoms: C_8  and  C_9
REMARK    4  A    between atoms: C_13  and  O_14
REMARK    5  A    between atoms: O_14  and  C_15
REMARK    6  A    between atoms: C_15  and  C_16
REMARK    7  A    between atoms: C_20  and  C_21
REMARK                            x       y       z     vdW  Elec       q    Type
REMARK                         _______ _______ _______ _____ _____    ______ ____
ROOT
ATOM      1  C   UNL     1      46.267   6.372  12.495  0.00  0.00    +0.000 A 
ATOM      2  C   UNL     1      45.284   7.288  12.113  0.00  0.00    +0.000 A 
ATOM      3  C   UNL     1      44.138   6.839  11.465  0.00  0.00    +0.000 A 
ATOM      4  C   UNL     1      44.000   5.485  11.198  0.00  0.00    +0.000 A 
ATOM      5  C   UNL     1      45.016   4.636  11.601  0.00  0.00    +0.000 A 
ATOM      6  N   UNL     1      46.143   5.047  12.223  0.00  0.00    +0.000 NA
ENDROOT
BRANCH   1  12
ATOM      7  C   UNL     1      49.520   8.131  13.418  0.00  0.00    +0.000 A 
ATOM      8  C   UNL     1      49.824   7.526  14.637  0.00  0.00    +0.000 A 
ATOM      9  C   UNL     1      48.988   6.536  15.142  0.00  0.00    +0.000 A 
ATOM     10  C   UNL     1      47.845   6.162  14.439  0.00  0.00    +0.000 A 
ATOM     11  F   UNL     1      47.098   5.181  14.964  0.00  0.00    +0.000 F 
ATOM     12  C   UNL     1      47.486   6.767  13.227  0.00  0.00    +0.000 A 
ATOM     13  C   UNL     1      48.355   7.762  12.731  0.00  0.00    +0.000 A 
BRANCH   7  15
ATOM     14  C   UNL     1      50.410   9.020  11.414  0.00  0.00    +0.000 C 
ATOM     15  O   UNL     1      50.270   9.114  12.829  0.00  0.00    +0.000 OA
ENDBRANCH   7  15
ENDBRANCH   1  12
BRANCH   5  16
ATOM     16  O   UNL     1      44.863   3.301  11.291  0.00  0.00    +0.000 OA
BRANCH  16  17
ATOM     17  C   UNL     1      44.162   3.117  10.057  0.00  0.00    +0.000 C 
BRANCH  17  18
ATOM     18  C   UNL     1      45.160   2.853   8.950  0.00  0.00    +0.000 A 
ATOM     19  C   UNL     1      45.626   3.909   8.170  0.00  0.00    +0.000 A 
ATOM     20  C   UNL     1      46.554   3.646   7.168  0.00  0.00    +0.000 A 
ATOM     21  C   UNL     1      46.993   2.341   6.972  0.00  0.00    +0.000 A 
ATOM     22  C   UNL     1      46.492   1.336   7.792  0.00  0.00    +0.000 A 
ATOM     23  C   UNL     1      46.949  -0.083   7.634  0.00  0.00    +0.000 C 
ATOM     24  N   UNL     1      45.588   1.576   8.772  0.00  0.00    +0.000 NA
ENDBRANCH  17  18
ENDBRANCH  16  17
ENDBRANCH   5  16
TORSDOF 5
ENDMDL
MODEL 8
REMARK VINA RESULT:    -6.336      4.086      7.017
REMARK INTER + INTRA:          -8.891
REMARK INTER:                  -8.269
REMARK INTRA:                  -0.622
REMARK UNBOUND:                -0.703
REMARK  Name = 
REMARK  7 active torsions:
REMARK  status: ('A' for Active; 'I' for Inactive)
REMARK    1  A    between atoms: C_1  and  O_2
REMARK    2  A    between atoms: O_2  and  C_3
REMARK    3  A    between atoms: C_8  and  C_9
REMARK    4  A    between atoms: C_13  and  O_14
REMARK    5  A    between atoms: O_14  and  C_15
REMARK    6  A    between atoms: C_15  and  C_16
REMARK    7  A    between atoms: C_20  and  C_21
REMARK                            x       y       z     vdW  Elec       q    Type
REMARK                         _______ _______ _______ _____ _____    ______ ____
ROOT
ATOM      1  C   UNL     1      46.636   6.115  12.403  0.00  0.00    +0.000 A 
ATOM      2  C   UNL     1      45.611   5.576  11.621  0.00  0.00    +0.000 A 
ATOM      3  C   UNL     1      45.162   4.283  11.870  0.00  0.00    +0.000 A 
ATOM      4  C   UNL     1      45.754   3.547  12.886  0.00  0.00    +0.000 A 
ATOM      5  C   UNL     1      46.767   4.143  13.616  0.00  0.00    +0.000 A 
ATOM      6  N   UNL     1      47.228   5.393  13.389  0.00  0.00    +0.000 NA
ENDROOT
BRANCH   1  12
ATOM      7  C   UNL     1      46.715   9.901  11.978  0.00  0.00    +0.000 A 
ATOM      8  C   UNL     1      48.086  10.142  11.900  0.00  0.00    +0.000 A 
ATOM      9  C   UNL     1      48.977   9.076  11.961  0.00  0.00    +0.000 A 
ATOM     10  C   UNL     1      48.499   7.776  12.114  0.00  0.00    +0.000 A 
ATOM     11  F   UNL     1      49.406   6.790  12.134  0.00  0.00    +0.000 F 
ATOM     12  C   UNL     1      47.132   7.495  12.229  0.00  0.00    +0.000 A 
ATOM     13  C   UNL     1      46.248   8.592  12.155  0.00  0.00    +0.000 A 
BRANCH   7  15
ATOM     14  C   UNL     1      44.410  10.409  11.812  0.00  0.00    +0.000 C 
ATOM     15  O   UNL     1      45.751  10.874  11.930  0.00  0.00    +0.000 OA
ENDBRANCH   7  15
ENDBRANCH   1  12
BRANCH   5  16
ATOM     16  O   UNL     1      47.356   3.373  14.597  0.00  0.00    +0.000 OA
BRANCH  16  17
ATOM     17  C   UNL     1      47.151   3.925  15.902  0.00  0.00    +0.000 C 
BRANCH  17  18
ATOM     18  C   UNL     1      48.468   3.945  16.648  0.00  0.00    +0.000 A 
ATOM     19  C   UNL     1      48.875   5.102  17.307  0.00  0.00    +0.000 A 
ATOM     20  C   UNL     1      50.082   5.094  17.997  0.00  0.00    +0.000 A 
ATOM     21  C   UNL     1      50.848   3.934  18.014  0.00  0.00    +0.000 A 
ATOM     22  C   UNL     1      50.380   2.811  17.341  0.00  0.00    +0.000 A 
ATOM     23  C   UNL     1      51.159   1.531  17.346  0.00  0.00    +0.000 C 
ATOM     24  N   UNL     1      49.206   2.804  16.664  0.00  0.00    +0.000 NA
ENDBRANCH  17  18
ENDBRANCH  16  17
ENDBRANCH   5  16
TORSDOF 5
ENDMDL
MODEL 9
REMARK VINA RESULT:    -6.191      4.193      6.985
REMARK INTER + INTRA:          -8.704
REMARK INTER:                  -7.869
REMARK INTRA:                  -0.835
REMARK UNBOUND:                -0.703
REMARK  Name = 
REMARK  7 active torsions:
REMARK  status: ('A' for Active; 'I' for Inactive)
REMARK    1  A    between atoms: C_1  and  O_2
REMARK    2  A    between atoms: O_2  and  C_3
REMARK    3  A    between atoms: C_8  and  C_9
REMARK    4  A    between atoms: C_13  and  O_14
REMARK    5  A    between atoms: O_14  and  C_15
REMARK    6  A    between atoms: C_15  and  C_16
REMARK    7  A    between atoms: C_20  and  C_21
REMARK                            x       y       z     vdW  Elec       q    Type
REMARK                         _______ _______ _______ _____ _____    ______ ____
ROOT
ATOM      1  C   UNL     1      47.375   6.330  12.495  0.00  0.00    +0.000 A 
ATOM      2  C   UNL     1      46.231   6.079  11.731  0.00  0.00    +0.000 A 
ATOM      3  C   UNL     1      45.472   4.941  11.980  0.00  0.00    +0.000 A 
ATOM      4  C   UNL     1      45.874   4.066  12.977  0.00  0.00    +0.000 A 
ATOM      5  C   UNL     1      47.020   4.375  13.690  0.00  0.00    +0.000 A 
ATOM      6  N   UNL     1      47.780   5.468  13.463  0.00  0.00    +0.000 NA
ENDROOT
BRANCH   1  12
ATOM      7  C   UNL     1      50.322   8.608  11.689  0.00  0.00    +0.000 A 
ATOM      8  C   UNL     1      49.789   9.862  11.984  0.00  0.00    +0.000 A 
ATOM      9  C   UNL     1      48.488   9.962  12.464  0.00  0.00    +0.000 A 
ATOM     10  C   UNL     1      47.717   8.814  12.636  0.00  0.00    +0.000 A 
ATOM     11  F   UNL     1      46.483   8.975  13.132  0.00  0.00    +0.000 F 
ATOM     12  C   UNL     1      48.203   7.539  12.321  0.00  0.00    +0.000 A 
ATOM     13  C   UNL     1      49.529   7.462  11.843  0.00  0.00    +0.000 A 
BRANCH   7  15
ATOM     14  C   UNL     1      51.716   7.347  10.252  0.00  0.00    +0.000 C 
ATOM     15  O   UNL     1      51.587   8.393  11.210  0.00  0.00    +0.000 OA
ENDBRANCH   7  15
ENDBRANCH   1  12
BRANCH   5  16
ATOM     16  O   UNL     1      47.411   3.468  14.653  0.00  0.00    +0.000 OA
BRANCH  16  17
ATOM     17  C   UNL     1      47.181   3.963  15.977  0.00  0.00    +0.000 C 
BRANCH  17  18
ATOM     18  C   UNL     1      48.495   4.011  16.727  0.00  0.00    +0.000 A 
ATOM     19  C   UNL     1      48.863   5.167  17.410  0.00  0.00    +0.000 A 
ATOM     20  C   UNL     1      50.068   5.184  18.103  0.00  0.00    +0.000 A 
ATOM     21  C   UNL     1      50.871   4.048  18.100  0.00  0.00    +0.000 A 
ATOM     22  C   UNL     1      50.440   2.925  17.403  0.00  0.00    +0.000 A 
ATOM     23  C   UNL     1      51.259   1.670  17.386  0.00  0.00    +0.000 C 
ATOM     24  N   UNL     1      49.269   2.894  16.723  0.00  0.00    +0.000 NA
ENDBRANCH  17  18
ENDBRANCH  16  17
ENDBRANCH   5  16
TORSDOF 5
ENDMDL
