MODEL 1
REMARK VINA RESULT:    -8.472      0.000      0.000
REMARK INTER + INTRA:         -12.389
REMARK INTER:                 -11.443
REMARK INTRA:                  -0.945
REMARK UNBOUND:                -0.945
REMARK  Name = 
REMARK  8 active torsions:
REMARK  status: ('A' for Active; 'I' for Inactive)
REMARK    1  A    between atoms: C_1  and  C_2
REMARK    2  A    between atoms: C_6  and  C_7
REMARK    3  A    between atoms: N_9  and  C_10
REMARK    4  A    between atoms: C_10  and  C_11
REMARK    5  A    between atoms: C_10  and  C_12
REMARK    6  A    between atoms: C_15  and  C_16
REMARK    7  A    between atoms: C_16  and  N_17
REMARK    8  A    between atoms: C_18  and  C_20
REMARK                            x       y       z     vdW  Elec       q    Type
REMARK                         _______ _______ _______ _____ _____    ______ ____
ROOT
ATOM      1  C   UNL     1      44.875   4.833  11.737  0.00  0.00    +0.000 A 
ATOM      2  C   UNL     1      45.714   4.601  12.839  0.00  0.00    +0.000 A 
ATOM      3  C   UNL     1      46.495   5.627  13.383  0.00  0.00    +0.000 A 
ATOM      4  C   UNL     1      46.443   6.921  12.850  0.00  0.00    +0.000 A 
ATOM      5  C   UNL     1      45.605   7.158  11.752  0.00  0.00    +0.000 A 
ATOM      6  C   UNL     1      44.824   6.131  11.207  0.00  0.00    +0.000 A 
ENDROOT
BRANCH   1   7
ATOM      7  C   UNL     1      44.116   3.669  11.119  0.00  0.00    +0.000 C 
ATOM      8  C   UNL     1      43.508   2.767  12.198  0.00  0.00    +0.000 C 
BRANCH   7  11
ATOM      9  C   UNL     1      45.016   3.249   8.854  0.00  0.00    +0.000 C 
ATOM     10  O   UNL     1      44.481   4.243   8.373  0.00  0.00    +0.000 OA
ATOM     11  N   UNL     1      44.929   2.904  10.190  0.00  0.00    +0.000 N 
ATOM     12  H   UNL     1      45.352   2.023  10.465  0.00  0.00    +0.000 HD
BRANCH   9  18
ATOM     13  C   UNL     1      47.674   2.382   4.698  0.00  0.00    +0.000 C 
ATOM     14  C   UNL     1      47.094   1.911   5.998  0.00  0.00    +0.000 A 
ATOM     15  C   UNL     1      47.288   0.606   6.455  0.00  0.00    +0.000 A 
ATOM     16  C   UNL     1      46.725   0.230   7.669  0.00  0.00    +0.000 A 
ATOM     17  N   UNL     1      45.992   1.050   8.456  0.00  0.00    +0.000 NA
ATOM     18  C   UNL     1      45.818   2.318   7.993  0.00  0.00    +0.000 A 
ATOM     19  C   UNL     1      46.339   2.782   6.787  0.00  0.00    +0.000 A 
ENDBRANCH   9  18
ENDBRANCH   7  11
ENDBRANCH   1   7
BRANCH   4  20
ATOM     20  C   UNL     1      47.296   8.028  13.417  0.00  0.00    +0.000 C 
BRANCH  20  21
ATOM     21  N   UNL     1      47.641   7.777  14.794  0.00  0.00    +0.000 N 
ATOM     22  C   UNL     1      48.847   7.216  15.137  0.00  0.00    +0.000 C 
ATOM     23  O   UNL     1      49.699   6.941  14.296  0.00  0.00    +0.000 OA
ATOM     24  H   UNL     1      46.881   7.775  15.468  0.00  0.00    +0.000 HD
BRANCH  22  25
ATOM     25  C   UNL     1      49.095   7.018  16.573  0.00  0.00    +0.000 A 
ATOM     26  C   UNL     1      49.608   8.064  17.333  0.00  0.00    +0.000 A 
ATOM     27  S   UNL     1      49.787   7.680  18.986  0.00  0.00    +0.000 S 
ATOM     28  C   UNL     1      49.243   6.089  18.734  0.00  0.00    +0.000 A 
ATOM     29  N   UNL     1      49.180   5.199  19.760  0.00  0.00    +0.000 NA
ATOM     30  C   UNL     1      48.783   4.018  19.420  0.00  0.00    +0.000 A 
ATOM     31  N   UNL     1      48.438   3.648  18.147  0.00  0.00    +0.000 N 
ATOM     32  C   UNL     1      48.451   4.521  17.086  0.00  0.00    +0.000 A 
ATOM     33  O   UNL     1      48.091   4.169  15.967  0.00  0.00    +0.000 OA
ATOM     34  C   UNL     1      48.906   5.858  17.410  0.00  0.00    +0.000 A 
ATOM     35  H   UNL     1      48.126   2.710  17.946  0.00  0.00    +0.000 HD
ENDBRANCH  22  25
ENDBRANCH  20  21
ENDBRANCH   4  20
TORSDOF 6
ENDMDL
MODEL 2
REMARK VINA RESULT:    -8.202      1.653      2.277
REMARK INTER + INTRA:         -12.024
REMARK INTER:                 -10.944
REMARK INTRA:                  -1.080
REMARK UNBOUND:                -0.945
REMARK  Name = 
REMARK  8 active torsions:
REMARK  status: ('A' for Active; 'I' for Inactive)
REMARK    1  A    between atoms: C_1  and  C_2
REMARK    2  A    between atoms: C_6  and  C_7
REMARK    3  A    between atoms: N_9  and  C_10
REMARK    4  A    between atoms: C_10  and  C_11
REMARK    5  A    between atoms: C_10  and  C_12
REMARK    6  A    between atoms: C_15  and  C_16
REMARK    7  A    between atoms: C_16  and  N_17
REMARK    8  A    between atoms: C_18  and  C_20
REMARK                            x       y       z     vdW  Elec       q    Type
REMARK                         _______ _______ _______ _____ _____    ______ ____
ROOT
ATOM      1  C   UNL     1      45.485   4.922  11.715  0.00  0.00    +0.000 A 
ATOM      2  C   UNL     1      45.879   6.203  11.293  0.00  0.00    +0.000 A 
ATOM      3  C   UNL     1      46.729   6.994  12.074  0.00  0.00    +0.000 A 
ATOM      4  C   UNL     1      47.225   6.516  13.293  0.00  0.00    +0.000 A 
ATOM      5  C   UNL     1      46.838   5.237  13.717  0.00  0.00    +0.000 A 
ATOM      6  C   UNL     1      45.987   4.446  12.936  0.00  0.00    +0.000 A 
ENDROOT
BRANCH   1   7
ATOM      7  C   UNL     1      44.487   4.135  10.881  0.00  0.00    +0.000 C 
ATOM      8  C   UNL     1      43.450   3.436  11.768  0.00  0.00    +0.000 C 
BRANCH   7  11
ATOM      9  C   UNL     1      45.529   3.566   8.712  0.00  0.00    +0.000 C 
ATOM     10  O   UNL     1      45.434   4.710   8.279  0.00  0.00    +0.000 OA
ATOM     11  N   UNL     1      45.130   3.194   9.982  0.00  0.00    +0.000 N 
ATOM     12  H   UNL     1      45.190   2.206  10.211  0.00  0.00    +0.000 HD
BRANCH   9  18
ATOM     13  C   UNL     1      47.533   2.015   4.391  0.00  0.00    +0.000 C 
ATOM     14  C   UNL     1      47.060   1.733   5.786  0.00  0.00    +0.000 A 
ATOM     15  C   UNL     1      47.144   0.455   6.342  0.00  0.00    +0.000 A 
ATOM     16  C   UNL     1      46.690   0.258   7.641  0.00  0.00    +0.000 A 
ATOM     17  N   UNL     1      46.167   1.230   8.421  0.00  0.00    +0.000 NA
ATOM     18  C   UNL     1      46.097   2.469   7.861  0.00  0.00    +0.000 A 
ATOM     19  C   UNL     1      46.522   2.759   6.566  0.00  0.00    +0.000 A 
ENDBRANCH   9  18
ENDBRANCH   7  11
ENDBRANCH   1   7
BRANCH   4  20
ATOM     20  C   UNL     1      48.126   7.369  14.151  0.00  0.00    +0.000 C 
BRANCH  20  21
ATOM     21  N   UNL     1      48.034   7.001  15.542  0.00  0.00    +0.000 N 
ATOM     22  C   UNL     1      49.125   6.521  16.226  0.00  0.00    +0.000 C 
ATOM     23  O   UNL     1      50.231   6.422  15.700  0.00  0.00    +0.000 OA
ATOM     24  H   UNL     1      47.103   6.852  15.920  0.00  0.00    +0.000 HD
BRANCH  22  25
ATOM     25  C   UNL     1      48.917   6.188  17.643  0.00  0.00    +0.000 A 
ATOM     26  C   UNL     1      49.257   4.922  18.108  0.00  0.00    +0.000 A 
ATOM     27  S   UNL     1      48.999   4.721  19.783  0.00  0.00    +0.000 S 
ATOM     28  C   UNL     1      48.372   6.294  19.934  0.00  0.00    +0.000 A 
ATOM     29  N   UNL     1      47.926   6.759  21.131  0.00  0.00    +0.000 NA
ATOM     30  C   UNL     1      47.444   7.957  21.093  0.00  0.00    +0.000 A 
ATOM     31  N   UNL     1      47.372   8.733  19.967  0.00  0.00    +0.000 N 
ATOM     32  C   UNL     1      47.842   8.320  18.744  0.00  0.00    +0.000 A 
ATOM     33  O   UNL     1      47.806   9.058  17.764  0.00  0.00    +0.000 OA
ATOM     34  C   UNL     1      48.380   6.975  18.726  0.00  0.00    +0.000 A 
ATOM     35  H   UNL     1      46.992   9.667  20.004  0.00  0.00    +0.000 HD
ENDBRANCH  22  25
ENDBRANCH  20  21
ENDBRANCH   4  20
TORSDOF 6
ENDMDL
MODEL 3
REMARK VINA RESULT:    -7.906      1.389      1.508
REMARK INTER + INTRA:         -11.625
REMARK INTER:                 -10.598
REMARK INTRA:                  -1.027
REMARK UNBOUND:                -0.945
REMARK  Name = 
REMARK  8 active torsions:
REMARK  status: ('A' for Active; 'I' for Inactive)
REMARK    1  A    between atoms: C_1  and  C_2
REMARK    2  A    between atoms: C_6  and  C_7
REMARK    3  A    between atoms: N_9  and  C_10
REMARK    4  A    between atoms: C_10  and  C_11
REMARK    5  A    between atoms: C_10  and  C_12
REMARK    6  A    between atoms: C_15  and  C_16
REMARK    7  A    between atoms: C_16  and  N_17
REMARK    8  A    between atoms: C_18  and  C_20
REMARK                            x       y       z     vdW  Elec       q    Type
REMARK                         _______ _______ _______ _____ _____    ______ ____
ROOT
ATOM      1  C   UNL     1      45.297   5.458  12.133  0.00  0.00    +0.000 A 
ATOM      2  C   UNL     1      46.430   5.050  12.856  0.00  0.00    +0.000 A 
ATOM      3  C   UNL     1      47.302   5.986  13.425  0.00  0.00    +0.000 A 
ATOM      4  C   UNL     1      47.052   7.358  13.302  0.00  0.00    +0.000 A 
ATOM      5  C   UNL     1      45.921   7.770  12.584  0.00  0.00    +0.000 A 
ATOM      6  C   UNL     1      45.049   6.834  12.014  0.00  0.00    +0.000 A 
ENDROOT
BRANCH   1   7
ATOM      7  C   UNL     1      44.429   4.411  11.453  0.00  0.00    +0.000 C 
ATOM      8  C   UNL     1      43.710   3.532  12.481  0.00  0.00    +0.000 C 
BRANCH   7  11
ATOM      9  C   UNL     1      44.883   3.638   9.149  0.00  0.00    +0.000 C 
ATOM     10  O   UNL     1      44.043   4.382   8.651  0.00  0.00    +0.000 OA
ATOM     11  N   UNL     1      45.172   3.606  10.500  0.00  0.00    +0.000 N 
ATOM     12  H   UNL     1      45.835   2.902  10.811  0.00  0.00    +0.000 HD
BRANCH   9  18
ATOM     13  C   UNL     1      47.584   2.718   5.031  0.00  0.00    +0.000 C 
ATOM     14  C   UNL     1      46.964   2.255   6.316  0.00  0.00    +0.000 A 
ATOM     15  C   UNL     1      47.106   0.941   6.764  0.00  0.00    +0.000 A 
ATOM     16  C   UNL     1      46.509   0.573   7.965  0.00  0.00    +0.000 A 
ATOM     17  N   UNL     1      45.791   1.410   8.746  0.00  0.00    +0.000 NA
ATOM     18  C   UNL     1      45.668   2.688   8.293  0.00  0.00    +0.000 A 
ATOM     19  C   UNL     1      46.226   3.145   7.100  0.00  0.00    +0.000 A 
ENDBRANCH   9  18
ENDBRANCH   7  11
ENDBRANCH   1   7
BRANCH   4  20
ATOM     20  C   UNL     1      47.997   8.374  13.894  0.00  0.00    +0.000 C 
BRANCH  20  21
ATOM     21  N   UNL     1      47.803   8.511  15.316  0.00  0.00    +0.000 N 
ATOM     22  C   UNL     1      48.720   8.017  16.212  0.00  0.00    +0.000 C 
ATOM     23  O   UNL     1      49.760   7.476  15.846  0.00  0.00    +0.000 OA
ATOM     24  H   UNL     1      46.865   8.734  15.635  0.00  0.00    +0.000 HD
BRANCH  22  25
ATOM     25  C   UNL     1      48.424   8.224  17.637  0.00  0.00    +0.000 A 
ATOM     26  C   UNL     1      48.507   9.503  18.177  0.00  0.00    +0.000 A 
ATOM     27  S   UNL     1      48.083   9.574  19.829  0.00  0.00    +0.000 S 
ATOM     28  C   UNL     1      47.831   7.894  19.894  0.00  0.00    +0.000 A 
ATOM     29  N   UNL     1      47.471   7.283  21.054  0.00  0.00    +0.000 NA
ATOM     30  C   UNL     1      47.347   6.001  20.968  0.00  0.00    +0.000 A 
ATOM     31  N   UNL     1      47.548   5.273  19.825  0.00  0.00    +0.000 N 
ATOM     32  C   UNL     1      47.878   5.849  18.622  0.00  0.00    +0.000 A 
ATOM     33  O   UNL     1      48.004   5.173  17.605  0.00  0.00    +0.000 OA
ATOM     34  C   UNL     1      48.045   7.287  18.666  0.00  0.00    +0.000 A 
ATOM     35  H   UNL     1      47.427   4.271  19.820  0.00  0.00    +0.000 HD
ENDBRANCH  22  25
ENDBRANCH  20  21
ENDBRANCH   4  20
TORSDOF 6
ENDMDL
MODEL 4
REMARK VINA RESULT:    -7.762      2.238      2.629
REMARK INTER + INTRA:         -11.431
REMARK INTER:                 -10.362
REMARK INTRA:                  -1.069
REMARK UNBOUND:                -0.945
REMARK  Name = 
REMARK  8 active torsions:
REMARK  status: ('A' for Active; 'I' for Inactive)
REMARK    1  A    between atoms: C_1  and  C_2
REMARK    2  A    between atoms: C_6  and  C_7
REMARK    3  A    between atoms: N_9  and  C_10
REMARK    4  A    between atoms: C_10  and  C_11
REMARK    5  A    between atoms: C_10  and  C_12
REMARK    6  A    between atoms: C_15  and  C_16
REMARK    7  A    between atoms: C_16  and  N_17
REMARK    8  A    between atoms: C_18  and  C_20
REMARK                            x       y       z     vdW  Elec       q    Type
REMARK                         _______ _______ _______ _____ _____    ______ ____
ROOT
ATOM      1  C   UNL     1      45.269   4.924  11.891  0.00  0.00    +0.000 A 
ATOM      2  C   UNL     1      45.688   4.641  13.202  0.00  0.00    +0.000 A 
ATOM      3  C   UNL     1      46.574   5.486  13.877  0.00  0.00    +0.000 A 
ATOM      4  C   UNL     1      47.052   6.652  13.266  0.00  0.00    +0.000 A 
ATOM      5  C   UNL     1      46.634   6.941  11.960  0.00  0.00    +0.000 A 
ATOM      6  C   UNL     1      45.747   6.094  11.283  0.00  0.00    +0.000 A 
ENDROOT
BRANCH   1   7
ATOM      7  C   UNL     1      44.379   3.930  11.160  0.00  0.00    +0.000 C 
ATOM      8  C   UNL     1      43.584   3.068  12.146  0.00  0.00    +0.000 C 
BRANCH   7  11
ATOM      9  C   UNL     1      45.197   3.438   8.879  0.00  0.00    +0.000 C 
ATOM     10  O   UNL     1      44.717   4.463   8.403  0.00  0.00    +0.000 OA
ATOM     11  N   UNL     1      45.119   3.108  10.219  0.00  0.00    +0.000 N 
ATOM     12  H   UNL     1      45.490   2.203  10.491  0.00  0.00    +0.000 HD
BRANCH   9  18
ATOM     13  C   UNL     1      47.676   2.369   4.660  0.00  0.00    +0.000 C 
ATOM     14  C   UNL     1      47.106   1.948   5.981  0.00  0.00    +0.000 A 
ATOM     15  C   UNL     1      47.236   0.639   6.449  0.00  0.00    +0.000 A 
ATOM     16  C   UNL     1      46.688   0.310   7.684  0.00  0.00    +0.000 A 
ATOM     17  N   UNL     1      46.028   1.181   8.480  0.00  0.00    +0.000 NA
ATOM     18  C   UNL     1      45.916   2.452   8.007  0.00  0.00    +0.000 A 
ATOM     19  C   UNL     1      46.429   2.871   6.781  0.00  0.00    +0.000 A 
ENDBRANCH   9  18
ENDBRANCH   7  11
ENDBRANCH   1   7
BRANCH   4  20
ATOM     20  C   UNL     1      48.024   7.559  13.979  0.00  0.00    +0.000 C 
BRANCH  20  21
ATOM     21  N   UNL     1      48.989   6.805  14.741  0.00  0.00    +0.000 N 
ATOM     22  C   UNL     1      49.197   7.056  16.075  0.00  0.00    +0.000 C 
ATOM     23  O   UNL     1      48.548   7.900  16.688  0.00  0.00    +0.000 OA
ATOM     24  H   UNL     1      49.685   6.283  14.217  0.00  0.00    +0.000 HD
BRANCH  22  25
ATOM     25  C   UNL     1      50.197   6.218  16.753  0.00  0.00    +0.000 A 
ATOM     26  C   UNL     1      49.786   5.299  17.713  0.00  0.00    +0.000 A 
ATOM     27  S   UNL     1      51.066   4.376  18.362  0.00  0.00    +0.000 S 
ATOM     28  C   UNL     1      52.217   5.209  17.429  0.00  0.00    +0.000 A 
ATOM     29  N   UNL     1      53.542   4.922  17.530  0.00  0.00    +0.000 NA
ATOM     30  C   UNL     1      54.306   5.655  16.790  0.00  0.00    +0.000 A 
ATOM     31  N   UNL     1      53.864   6.647  15.955  0.00  0.00    +0.000 N 
ATOM     32  C   UNL     1      52.533   6.948  15.793  0.00  0.00    +0.000 A 
ATOM     33  O   UNL     1      52.167   7.811  15.001  0.00  0.00    +0.000 OA
ATOM     34  C   UNL     1      51.632   6.165  16.614  0.00  0.00    +0.000 A 
ATOM     35  H   UNL     1      54.512   7.180  15.395  0.00  0.00    +0.000 HD
ENDBRANCH  22  25
ENDBRANCH  20  21
ENDBRANCH   4  20
TORSDOF 6
ENDMDL
MODEL 5
REMARK VINA RESULT:    -7.645      4.652      7.768
REMARK INTER + INTRA:         -11.272
REMARK INTER:                 -10.167
REMARK INTRA:                  -1.106
REMARK UNBOUND:                -0.945
REMARK  Name = 
REMARK  8 active torsions:
REMARK  status: ('A' for Active; 'I' for Inactive)
REMARK    1  A    between atoms: C_1  and  C_2
REMARK    2  A    between atoms: C_6  and  C_7
REMARK    3  A    between atoms: N_9  and  C_10
REMARK    4  A    between atoms: C_10  and  C_11
REMARK    5  A    between atoms: C_10  and  C_12
REMARK    6  A    between atoms: C_15  and  C_16
REMARK    7  A    between atoms: C_16  and  N_17
REMARK    8  A    between atoms: C_18  and  C_20
REMARK                            x       y       z     vdW  Elec       q    Type
REMARK                         _______ _______ _______ _____ _____    ______ ____
ROOT
ATOM      1  C   UNL     1      44.787   9.202  11.839  0.00  0.00    +0.000 A 
ATOM      2  C   UNL     1      44.276   8.007  11.304  0.00  0.00    +0.000 A 
ATOM      3  C   UNL     1      44.812   6.766  11.664  0.00  0.00    +0.000 A 
ATOM      4  C   UNL     1      45.862   6.684  12.586  0.00  0.00    +0.000 A 
ATOM      5  C   UNL     1      46.373   7.873  13.125  0.00  0.00    +0.000 A 
ATOM      6  C   UNL     1      45.838   9.115  12.764  0.00  0.00    +0.000 A 
ENDROOT
BRANCH   1   7
ATOM      7  C   UNL     1      44.239  10.533  11.349  0.00  0.00    +0.000 C 
ATOM      8  C   UNL     1      45.297  11.637  11.441  0.00  0.00    +0.000 C 
BRANCH   7  11
ATOM      9  C   UNL     1      41.782  10.803  11.422  0.00  0.00    +0.000 C 
ATOM     10  O   UNL     1      41.618  10.315  10.307  0.00  0.00    +0.000 OA
ATOM     11  N   UNL     1      43.017  10.918  12.033  0.00  0.00    +0.000 N 
ATOM     12  H   UNL     1      43.044  11.400  12.926  0.00  0.00    +0.000 HD
BRANCH   9  18
ATOM     13  C   UNL     1      36.839  11.123  12.165  0.00  0.00    +0.000 C 
ATOM     14  C   UNL     1      38.243  11.469  12.561  0.00  0.00    +0.000 A 
ATOM     15  C   UNL     1      38.513  12.266  13.675  0.00  0.00    +0.000 A 
ATOM     16  C   UNL     1      39.837  12.549  13.992  0.00  0.00    +0.000 A 
ATOM     17  N   UNL     1      40.901  12.100  13.290  0.00  0.00    +0.000 NA
ATOM     18  C   UNL     1      40.616  11.321  12.210  0.00  0.00    +0.000 A 
ATOM     19  C   UNL     1      39.322  10.990  11.814  0.00  0.00    +0.000 A 
ENDBRANCH   9  18
ENDBRANCH   7  11
ENDBRANCH   1   7
BRANCH   4  20
ATOM     20  C   UNL     1      46.460   5.351  12.965  0.00  0.00    +0.000 C 
BRANCH  20  21
ATOM     21  N   UNL     1      46.950   5.358  14.320  0.00  0.00    +0.000 N 
ATOM     22  C   UNL     1      47.354   4.199  14.939  0.00  0.00    +0.000 C 
ATOM     23  O   UNL     1      47.354   3.117  14.357  0.00  0.00    +0.000 OA
ATOM     24  H   UNL     1      46.741   6.177  14.884  0.00  0.00    +0.000 HD
BRANCH  22  25
ATOM     25  C   UNL     1      47.847   4.328  16.318  0.00  0.00    +0.000 A 
ATOM     26  C   UNL     1      47.346   3.489  17.307  0.00  0.00    +0.000 A 
ATOM     27  S   UNL     1      48.061   3.738  18.837  0.00  0.00    +0.000 S 
ATOM     28  C   UNL     1      49.020   5.011  18.245  0.00  0.00    +0.000 A 
ATOM     29  N   UNL     1      49.861   5.695  19.065  0.00  0.00    +0.000 NA
ATOM     30  C   UNL     1      50.501   6.658  18.491  0.00  0.00    +0.000 A 
ATOM     31  N   UNL     1      50.380   6.997  17.169  0.00  0.00    +0.000 N 
ATOM     32  C   UNL     1      49.571   6.313  16.295  0.00  0.00    +0.000 A 
ATOM     33  O   UNL     1      49.521   6.612  15.106  0.00  0.00    +0.000 OA
ATOM     34  C   UNL     1      48.815   5.230  16.891  0.00  0.00    +0.000 A 
ATOM     35  H   UNL     1      50.916   7.757  16.777  0.00  0.00    +0.000 HD
ENDBRANCH  22  25
ENDBRANCH  20  21
ENDBRANCH   4  20
TORSDOF 6
ENDMDL
MODEL 6
REMARK VINA RESULT:    -7.062      2.356      4.330
REMARK INTER + INTRA:         -10.484
REMARK INTER:                  -9.280
REMARK INTRA:                  -1.204
REMARK UNBOUND:                -0.945
REMARK  Name = 
REMARK  8 active torsions:
REMARK  status: ('A' for Active; 'I' for Inactive)
REMARK    1  A    between atoms: C_1  and  C_2
REMARK    2  A    between atoms: C_6  and  C_7
REMARK    3  A    between atoms: N_9  and  C_10
REMARK    4  A    between atoms: C_10  and  C_11
REMARK    5  A    between atoms: C_10  and  C_12
REMARK    6  A    between atoms: C_15  and  C_16
REMARK    7  A    between atoms: C_16  and  N_17
REMARK    8  A    between atoms: C_18  and  C_20
REMARK                            x       y       z     vdW  Elec       q    Type
REMARK                         _______ _______ _______ _____ _____    ______ ____
ROOT
ATOM      1  C   UNL     1      45.444   4.514  11.890  0.00  0.00    +0.000 A 
ATOM      2  C   UNL     1      45.821   5.862  12.007  0.00  0.00    +0.000 A 
ATOM      3  C   UNL     1      46.644   6.296  13.053  0.00  0.00    +0.000 A 
ATOM      4  C   UNL     1      47.129   5.387  14.000  0.00  0.00    +0.000 A 
ATOM      5  C   UNL     1      46.758   4.040  13.886  0.00  0.00    +0.000 A 
ATOM      6  C   UNL     1      45.934   3.606  12.841  0.00  0.00    +0.000 A 
ENDROOT
BRANCH   1   7
ATOM      7  C   UNL     1      44.473   4.102  10.794  0.00  0.00    +0.000 C 
ATOM      8  C   UNL     1      43.236   3.411  11.378  0.00  0.00    +0.000 C 
BRANCH   7  11
ATOM      9  C   UNL     1      45.720   3.850   8.675  0.00  0.00    +0.000 C 
ATOM     10  O   UNL     1      45.847   5.061   8.516  0.00  0.00    +0.000 OA
ATOM     11  N   UNL     1      45.100   3.284   9.773  0.00  0.00    +0.000 N 
ATOM     12  H   UNL     1      44.990   2.274   9.767  0.00  0.00    +0.000 HD
BRANCH   9  18
ATOM     13  C   UNL     1      46.932  -0.822   7.333  0.00  0.00    +0.000 C 
ATOM     14  C   UNL     1      46.823   0.640   7.017  0.00  0.00    +0.000 A 
ATOM     15  C   UNL     1      47.190   1.148   5.770  0.00  0.00    +0.000 A 
ATOM     16  C   UNL     1      47.064   2.513   5.538  0.00  0.00    +0.000 A 
ATOM     17  N   UNL     1      46.602   3.400   6.446  0.00  0.00    +0.000 NA
ATOM     18  C   UNL     1      46.246   2.884   7.654  0.00  0.00    +0.000 A 
ATOM     19  C   UNL     1      46.342   1.533   7.979  0.00  0.00    +0.000 A 
ENDBRANCH   9  18
ENDBRANCH   7  11
ENDBRANCH   1   7
BRANCH   4  20
ATOM     20  C   UNL     1      48.000   5.848  15.142  0.00  0.00    +0.000 C 
BRANCH  20  21
ATOM     21  N   UNL     1      48.137   7.283  15.155  0.00  0.00    +0.000 N 
ATOM     22  C   UNL     1      49.374   7.882  15.180  0.00  0.00    +0.000 C 
ATOM     23  O   UNL     1      50.414   7.228  15.151  0.00  0.00    +0.000 OA
ATOM     24  H   UNL     1      47.317   7.824  15.414  0.00  0.00    +0.000 HD
BRANCH  22  25
ATOM     25  C   UNL     1      49.393   9.352  15.179  0.00  0.00    +0.000 A 
ATOM     26  C   UNL     1      49.797  10.034  16.323  0.00  0.00    +0.000 A 
ATOM     27  S   UNL     1      49.807  11.730  16.135  0.00  0.00    +0.000 S 
ATOM     28  C   UNL     1      49.219  11.615  14.544  0.00  0.00    +0.000 A 
ATOM     29  N   UNL     1      48.970  12.729  13.806  0.00  0.00    +0.000 NA
ATOM     30  C   UNL     1      48.494  12.496  12.629  0.00  0.00    +0.000 A 
ATOM     31  N   UNL     1      48.247  11.248  12.121  0.00  0.00    +0.000 N 
ATOM     32  C   UNL     1      48.515  10.093  12.815  0.00  0.00    +0.000 A 
ATOM     33  O   UNL     1      48.326   8.989  12.313  0.00  0.00    +0.000 OA
ATOM     34  C   UNL     1      49.037  10.298  14.150  0.00  0.00    +0.000 A 
ATOM     35  H   UNL     1      47.881  11.131  11.188  0.00  0.00    +0.000 HD
ENDBRANCH  22  25
ENDBRANCH  20  21
ENDBRANCH   4  20
TORSDOF 6
ENDMDL
MODEL 7
REMARK VINA RESULT:    -7.024      2.032      2.713
REMARK INTER + INTRA:         -10.433
REMARK INTER:                  -9.812
REMARK INTRA:                  -0.621
REMARK UNBOUND:                -0.945
REMARK  Name = 
REMARK  8 active torsions:
REMARK  status: ('A' for Active; 'I' for Inactive)
REMARK    1  A    between atoms: C_1  and  C_2
REMARK    2  A    between atoms: C_6  and  C_7
REMARK    3  A    between atoms: N_9  and  C_10
REMARK    4  A    between atoms: C_10  and  C_11
REMARK    5  A    between atoms: C_10  and  C_12
REMARK    6  A    between atoms: C_15  and  C_16
REMARK    7  A    between atoms: C_16  and  N_17
REMARK    8  A    between atoms: C_18  and  C_20
REMARK                            x       y       z     vdW  Elec       q    Type
REMARK                         _______ _______ _______ _____ _____    ______ ____
ROOT
ATOM      1  C   UNL     1      44.724   5.186  11.333  0.00  0.00    +0.000 A 
ATOM      2  C   UNL     1      44.227   6.499  11.302  0.00  0.00    +0.000 A 
ATOM      3  C   UNL     1      44.877   7.536  11.982  0.00  0.00    +0.000 A 
ATOM      4  C   UNL     1      46.055   7.289  12.696  0.00  0.00    +0.000 A 
ATOM      5  C   UNL     1      46.557   5.980  12.728  0.00  0.00    +0.000 A 
ATOM      6  C   UNL     1      45.906   4.943  12.049  0.00  0.00    +0.000 A 
ENDROOT
BRANCH   1   7
ATOM      7  C   UNL     1      43.935   4.073  10.660  0.00  0.00    +0.000 C 
ATOM      8  C   UNL     1      43.219   3.196  11.692  0.00  0.00    +0.000 C 
BRANCH   7  11
ATOM      9  C   UNL     1      45.410   3.838   8.690  0.00  0.00    +0.000 C 
ATOM     10  O   UNL     1      45.410   5.042   8.450  0.00  0.00    +0.000 OA
ATOM     11  N   UNL     1      44.753   3.273   9.766  0.00  0.00    +0.000 N 
ATOM     12  H   UNL     1      44.762   2.260   9.829  0.00  0.00    +0.000 HD
BRANCH   9  18
ATOM     13  C   UNL     1      46.929  -0.817   7.633  0.00  0.00    +0.000 C 
ATOM     14  C   UNL     1      46.867   0.644   7.298  0.00  0.00    +0.000 A 
ATOM     15  C   UNL     1      47.474   1.156   6.150  0.00  0.00    +0.000 A 
ATOM     16  C   UNL     1      47.379   2.520   5.893  0.00  0.00    +0.000 A 
ATOM     17  N   UNL     1      46.731   3.401   6.687  0.00  0.00    +0.000 NA
ATOM     18  C   UNL     1      46.144   2.880   7.799  0.00  0.00    +0.000 A 
ATOM     19  C   UNL     1      46.190   1.529   8.140  0.00  0.00    +0.000 A 
ENDBRANCH   9  18
ENDBRANCH   7  11
ENDBRANCH   1   7
BRANCH   4  20
ATOM     20  C   UNL     1      46.752   8.396  13.448  0.00  0.00    +0.000 C 
BRANCH  20  21
ATOM     21  N   UNL     1      47.591   7.874  14.499  0.00  0.00    +0.000 N 
ATOM     22  C   UNL     1      48.457   8.687  15.190  0.00  0.00    +0.000 C 
ATOM     23  O   UNL     1      48.528   9.894  14.974  0.00  0.00    +0.000 OA
ATOM     24  H   UNL     1      47.719   6.867  14.531  0.00  0.00    +0.000 HD
BRANCH  22  25
ATOM     25  C   UNL     1      49.254   8.049  16.247  0.00  0.00    +0.000 A 
ATOM     26  C   UNL     1      48.700   7.869  17.511  0.00  0.00    +0.000 A 
ATOM     27  S   UNL     1      49.741   7.069  18.602  0.00  0.00    +0.000 S 
ATOM     28  C   UNL     1      50.985   6.988  17.445  0.00  0.00    +0.000 A 
ATOM     29  N   UNL     1      52.190   6.436  17.749  0.00  0.00    +0.000 NA
ATOM     30  C   UNL     1      53.052   6.473  16.788  0.00  0.00    +0.000 A 
ATOM     31  N   UNL     1      52.817   7.009  15.549  0.00  0.00    +0.000 N 
ATOM     32  C   UNL     1      51.605   7.545  15.186  0.00  0.00    +0.000 A 
ATOM     33  O   UNL     1      51.413   7.974  14.052  0.00  0.00    +0.000 OA
ATOM     34  C   UNL     1      50.605   7.544  16.233  0.00  0.00    +0.000 A 
ATOM     35  H   UNL     1      53.531   6.999  14.837  0.00  0.00    +0.000 HD
ENDBRANCH  22  25
ENDBRANCH  20  21
ENDBRANCH   4  20
TORSDOF 6
ENDMDL
MODEL 8
REMARK VINA RESULT:    -6.905      3.643      6.765
REMARK INTER + INTRA:         -10.273
REMARK INTER:                 -10.091
REMARK INTRA:                  -0.181
REMARK UNBOUND:                -0.945
REMARK  Name = 
REMARK  8 active torsions:
REMARK  status: ('A' for Active; 'I' for Inactive)
REMARK    1  A    between atoms: C_1  and  C_2
REMARK    2  A    between atoms: C_6  and  C_7
REMARK    3  A    between atoms: N_9  and  C_10
REMARK    4  A    between atoms: C_10  and  C_11
REMARK    5  A    between atoms: C_10  and  C_12
REMARK    6  A    between atoms: C_15  and  C_16
REMARK    7  A    between atoms: C_16  and  N_17
REMARK    8  A    between atoms: C_18  and  C_20
REMARK                            x       y       z     vdW  Elec       q    Type
REMARK                         _______ _______ _______ _____ _____    ______ ____
ROOT
ATOM      1  C   UNL     1      46.643   1.741   6.629  0.00  0.00    +0.000 A 
ATOM      2  C   UNL     1      46.240   3.080   6.766  0.00  0.00    +0.000 A 
ATOM      3  C   UNL     1      45.524   3.509   7.888  0.00  0.00    +0.000 A 
ATOM      4  C   UNL     1      45.207   2.613   8.916  0.00  0.00    +0.000 A 
ATOM      5  C   UNL     1      45.610   1.277   8.786  0.00  0.00    +0.000 A 
ATOM      6  C   UNL     1      46.326   0.847   7.662  0.00  0.00    +0.000 A 
ENDROOT
BRANCH   1   7
ATOM      7  C   UNL     1      47.337   1.297   5.350  0.00  0.00    +0.000 C 
ATOM      8  C   UNL     1      47.063   2.273   4.202  0.00  0.00    +0.000 C 
BRANCH   7  11
ATOM      9  C   UNL     1      47.142  -0.512   3.677  0.00  0.00    +0.000 C 
ATOM     10  O   UNL     1      47.620   0.167   2.773  0.00  0.00    +0.000 OA
ATOM     11  N   UNL     1      46.998  -0.064   4.976  0.00  0.00    +0.000 N 
ATOM     12  H   UNL     1      46.526  -0.686   5.626  0.00  0.00    +0.000 HD
BRANCH   9  18
ATOM     13  C   UNL     1      46.725  -5.297   5.101  0.00  0.00    +0.000 C 
ATOM     14  C   UNL     1      46.471  -4.205   4.106  0.00  0.00    +0.000 A 
ATOM     15  C   UNL     1      45.780  -4.445   2.917  0.00  0.00    +0.000 A 
ATOM     16  C   UNL     1      45.574  -3.391   2.035  0.00  0.00    +0.000 A 
ATOM     17  N   UNL     1      46.000  -2.126   2.248  0.00  0.00    +0.000 NA
ATOM     18  C   UNL     1      46.669  -1.911   3.414  0.00  0.00    +0.000 A 
ATOM     19  C   UNL     1      46.926  -2.907   4.355  0.00  0.00    +0.000 A 
ENDBRANCH   9  18
ENDBRANCH   7  11
ENDBRANCH   1   7
BRANCH   4  20
ATOM     20  C   UNL     1      44.417   3.063  10.121  0.00  0.00    +0.000 C 
BRANCH  20  21
ATOM     21  N   UNL     1      45.025   4.207  10.754  0.00  0.00    +0.000 N 
ATOM     22  C   UNL     1      45.453   4.156  12.058  0.00  0.00    +0.000 C 
ATOM     23  O   UNL     1      45.377   3.130  12.729  0.00  0.00    +0.000 OA
ATOM     24  H   UNL     1      44.884   5.109  10.310  0.00  0.00    +0.000 HD
BRANCH  22  25
ATOM     25  C   UNL     1      46.068   5.379  12.596  0.00  0.00    +0.000 A 
ATOM     26  C   UNL     1      47.204   5.284  13.393  0.00  0.00    +0.000 A 
ATOM     27  S   UNL     1      47.815   6.797  13.890  0.00  0.00    +0.000 S 
ATOM     28  C   UNL     1      46.554   7.627  13.108  0.00  0.00    +0.000 A 
ATOM     29  N   UNL     1      46.464   8.983  13.167  0.00  0.00    +0.000 NA
ATOM     30  C   UNL     1      45.438   9.478  12.559  0.00  0.00    +0.000 A 
ATOM     31  N   UNL     1      44.496   8.740  11.893  0.00  0.00    +0.000 N 
ATOM     32  C   UNL     1      44.563   7.373  11.777  0.00  0.00    +0.000 A 
ATOM     33  O   UNL     1      43.727   6.746  11.133  0.00  0.00    +0.000 OA
ATOM     34  C   UNL     1      45.688   6.763  12.456  0.00  0.00    +0.000 A 
ATOM     35  H   UNL     1      43.719   9.188  11.429  0.00  0.00    +0.000 HD
ENDBRANCH  22  25
ENDBRANCH  20  21
ENDBRANCH   4  20
TORSDOF 6
ENDMDL
MODEL 9
REMARK VINA RESULT:    -6.571      4.769      7.587
REMARK INTER + INTRA:          -9.821
REMARK INTER:                  -9.335
REMARK INTRA:                  -0.486
REMARK UNBOUND:                -0.945
REMARK  Name = 
REMARK  8 active torsions:
REMARK  status: ('A' for Active; 'I' for Inactive)
REMARK    1  A    between atoms: C_1  and  C_2
REMARK    2  A    between atoms: C_6  and  C_7
REMARK    3  A    between atoms: N_9  and  C_10
REMARK    4  A    between atoms: C_10  and  C_11
REMARK    5  A    between atoms: C_10  and  C_12
REMARK    6  A    between atoms: C_15  and  C_16
REMARK    7  A    between atoms: C_16  and  N_17
REMARK    8  A    between atoms: C_18  and  C_20
REMARK                            x       y       z     vdW  Elec       q    Type
REMARK                         _______ _______ _______ _____ _____    ______ ____
ROOT
ATOM      1  C   UNL     1      44.507   9.303  11.683  0.00  0.00    +0.000 A 
ATOM      2  C   UNL     1      44.075   8.029  11.277  0.00  0.00    +0.000 A 
ATOM      3  C   UNL     1      44.734   6.871  11.704  0.00  0.00    +0.000 A 
ATOM      4  C   UNL     1      45.834   6.955  12.566  0.00  0.00    +0.000 A 
ATOM      5  C   UNL     1      46.267   8.224  12.976  0.00  0.00    +0.000 A 
ATOM      6  C   UNL     1      45.608   9.383  12.548  0.00  0.00    +0.000 A 
ENDROOT
BRANCH   1   7
ATOM      7  C   UNL     1      43.820  10.538  11.121  0.00  0.00    +0.000 C 
ATOM      8  C   UNL     1      44.646  11.801  11.383  0.00  0.00    +0.000 C 
BRANCH   7  11
ATOM      9  C   UNL     1      41.412  10.959  10.746  0.00  0.00    +0.000 C 
ATOM     10  O   UNL     1      41.535  11.024   9.526  0.00  0.00    +0.000 OA
ATOM     11  N   UNL     1      42.460  10.689  11.606  0.00  0.00    +0.000 N 
ATOM     12  H   UNL     1      42.258  10.728  12.601  0.00  0.00    +0.000 HD
BRANCH   9  18
ATOM     13  C   UNL     1      38.680  12.538  14.636  0.00  0.00    +0.000 C 
ATOM     14  C   UNL     1      38.773  11.941  13.264  0.00  0.00    +0.000 A 
ATOM     15  C   UNL     1      37.633  11.584  12.542  0.00  0.00    +0.000 A 
ATOM     16  C   UNL     1      37.786  11.036  11.273  0.00  0.00    +0.000 A 
ATOM     17  N   UNL     1      38.978  10.821  10.675  0.00  0.00    +0.000 NA
ATOM     18  C   UNL     1      40.078  11.179  11.394  0.00  0.00    +0.000 A 
ATOM     19  C   UNL     1      40.022  11.730  12.673  0.00  0.00    +0.000 A 
ENDBRANCH   9  18
ENDBRANCH   7  11
ENDBRANCH   1   7
BRANCH   4  20
ATOM     20  C   UNL     1      46.564   5.713  13.015  0.00  0.00    +0.000 C 
BRANCH  20  21
ATOM     21  N   UNL     1      47.316   5.950  14.222  0.00  0.00    +0.000 N 
ATOM     22  C   UNL     1      47.613   4.927  15.089  0.00  0.00    +0.000 C 
ATOM     23  O   UNL     1      47.289   3.764  14.859  0.00  0.00    +0.000 OA
ATOM     24  H   UNL     1      47.386   6.911  14.542  0.00  0.00    +0.000 HD
BRANCH  22  25
ATOM     25  C   UNL     1      48.396   5.283  16.282  0.00  0.00    +0.000 A 
ATOM     26  C   UNL     1      49.261   6.371  16.236  0.00  0.00    +0.000 A 
ATOM     27  S   UNL     1      50.052   6.674  17.718  0.00  0.00    +0.000 S 
ATOM     28  C   UNL     1      49.312   5.332  18.453  0.00  0.00    +0.000 A 
ATOM     29  N   UNL     1      49.585   4.999  19.743  0.00  0.00    +0.000 NA
ATOM     30  C   UNL     1      48.981   3.938  20.161  0.00  0.00    +0.000 A 
ATOM     31  N   UNL     1      48.124   3.180  19.407  0.00  0.00    +0.000 N 
ATOM     32  C   UNL     1      47.790   3.496  18.112  0.00  0.00    +0.000 A 
ATOM     33  O   UNL     1      46.983   2.822  17.480  0.00  0.00    +0.000 OA
ATOM     34  C   UNL     1      48.454   4.672  17.587  0.00  0.00    +0.000 A 
ATOM     35  H   UNL     1      47.675   2.364  19.795  0.00  0.00    +0.000 HD
ENDBRANCH  22  25
ENDBRANCH  20  21
ENDBRANCH   4  20
TORSDOF 6
ENDMDL
