MODEL 1
REMARK VINA RESULT:    -7.468      0.000      0.000
REMARK INTER + INTRA:         -11.142
REMARK INTER:                 -10.524
REMARK INTRA:                  -0.618
REMARK UNBOUND:                -0.618
REMARK  Name = 
REMARK  9 active torsions:
REMARK  status: ('A' for Active; 'I' for Inactive)
REMARK    1  A    between atoms: C_1  and  C_2
REMARK    2  A    between atoms: C_2  and  C_3
REMARK    3  A    between atoms: C_4  and  C_5
REMARK    4  A    between atoms: C_8  and  C_9
REMARK    5  A    between atoms: C_9  and  N_10
REMARK    6  A    between atoms: CA_14  and  C_15
REMARK    7  A    between atoms: C_15  and  OXT_17
REMARK    8  A    between atoms: C_21  and  C_22
REMARK    9  A    between atoms: C_22  and  N_23
REMARK                            x       y       z     vdW  Elec       q    Type
REMARK                         _______ _______ _______ _____ _____    ______ ____
ROOT
ATOM      1  C   UNL     1      46.837   6.201  13.399  0.00  0.00    +0.000 A 
ATOM      2  C   UNL     1      46.474   4.860  13.302  0.00  0.00    +0.000 A 
ATOM      3  N   UNL     1      45.385   4.391  12.623  0.00  0.00    +0.000 NA
ATOM      4  C   UNL     1      44.579   5.302  12.020  0.00  0.00    +0.000 A 
ATOM      5  C   UNL     1      44.815   6.666  12.145  0.00  0.00    +0.000 A 
ATOM      6  C   UNL     1      45.967   7.137  12.821  0.00  0.00    +0.000 A 
ENDROOT
BRANCH   1   8
ATOM      7  C   UNL     1      49.162   6.939  14.658  0.00  0.00    +0.000 C 
ATOM      8  C   UNL     1      48.086   6.588  14.010  0.00  0.00    +0.000 C 
BRANCH   7  10
ATOM      9  C   UNL     1      50.640   6.423  16.595  0.00  0.00    +0.000 C 
ATOM     10  C   UNL     1      50.417   7.349  15.412  0.00  0.00    +0.000 C 
ENDBRANCH   7  10
ENDBRANCH   1   8
BRANCH   4  11
ATOM     11  C   UNL     1      43.511   4.810  11.043  0.00  0.00    +0.000 C 
BRANCH  11  12
ATOM     12  N   UNL     1      43.877   4.894   9.636  0.00  0.00    +0.000 N 
ATOM     13  C   UNL     1      44.677   3.907   9.072  0.00  0.00    +0.000 A 
ATOM     14  C   UNL     1      44.697   2.565   9.487  0.00  0.00    +0.000 A 
ATOM     15  N   UNL     1      45.490   1.588   8.951  0.00  0.00    +0.000 NA
ATOM     16  CA  UNL     1      46.251   2.007   7.906  0.00  0.00    +0.000 A 
ATOM     17  C   UNL     1      46.209   3.312   7.439  0.00  0.00    +0.000 A 
ATOM     18  N   UNL     1      45.443   4.277   8.024  0.00  0.00    +0.000 NA
ATOM     19  H   UNL     1      44.182   5.806   9.301  0.00  0.00    +0.000 HD
BRANCH  16  20
ATOM     20  C   UNL     1      47.172   1.015   7.295  0.00  0.00    +0.000 C 
ATOM     21  O   UNL     1      48.068   1.296   6.526  0.00  0.00    +0.000 OA
BRANCH  20  22
ATOM     22  OXT UNL     1      46.908  -0.246   7.723  0.00  0.00    +0.000 OA
ATOM     23  HXT UNL     1      46.548  -0.224   8.639  0.00  0.00    +0.000 HD
ENDBRANCH  20  22
ENDBRANCH  16  20
ENDBRANCH  11  12
ENDBRANCH   4  11
BRANCH   6  24
ATOM     24  C   UNL     1      46.215   8.624  12.878  0.00  0.00    +0.000 C 
BRANCH  24  25
ATOM     25  N   UNL     1      44.963   9.378  12.846  0.00  0.00    +0.000 NA
ATOM     26  H   UNL     1      44.386   9.017  12.087  0.00  0.00    +0.000 HD
ATOM     27  H   UNL     1      45.174  10.344  12.599  0.00  0.00    +0.000 HD
ENDBRANCH  24  25
ENDBRANCH   6  24
TORSDOF 8
ENDMDL
MODEL 2
REMARK VINA RESULT:    -7.248      1.146      2.080
REMARK INTER + INTRA:         -10.832
REMARK INTER:                 -10.266
REMARK INTRA:                  -0.567
REMARK UNBOUND:                -0.618
REMARK  Name = 
REMARK  9 active torsions:
REMARK  status: ('A' for Active; 'I' for Inactive)
REMARK    1  A    between atoms: C_1  and  C_2
REMARK    2  A    between atoms: C_2  and  C_3
REMARK    3  A    between atoms: C_4  and  C_5
REMARK    4  A    between atoms: C_8  and  C_9
REMARK    5  A    between atoms: C_9  and  N_10
REMARK    6  A    between atoms: CA_14  and  C_15
REMARK    7  A    between atoms: C_15  and  OXT_17
REMARK    8  A    between atoms: C_21  and  C_22
REMARK    9  A    between atoms: C_22  and  N_23
REMARK                            x       y       z     vdW  Elec       q    Type
REMARK                         _______ _______ _______ _____ _____    ______ ____
ROOT
ATOM      1  C   UNL     1      47.431   6.230  13.434  0.00  0.00    +0.000 A 
ATOM      2  C   UNL     1      47.119   6.808  12.206  0.00  0.00    +0.000 A 
ATOM      3  N   UNL     1      46.079   6.430  11.404  0.00  0.00    +0.000 NA
ATOM      4  C   UNL     1      45.307   5.393  11.821  0.00  0.00    +0.000 A 
ATOM      5  C   UNL     1      45.604   4.699  12.988  0.00  0.00    +0.000 A 
ATOM      6  C   UNL     1      46.663   5.124  13.828  0.00  0.00    +0.000 A 
ENDROOT
BRANCH   1   8
ATOM      7  C   UNL     1      49.328   7.262  15.129  0.00  0.00    +0.000 C 
ATOM      8  C   UNL     1      48.455   6.794  14.280  0.00  0.00    +0.000 C 
BRANCH   7  10
ATOM      9  C   UNL     1      51.080   6.667  16.794  0.00  0.00    +0.000 C 
ATOM     10  C   UNL     1      50.344   7.809  16.118  0.00  0.00    +0.000 C 
ENDBRANCH   7  10
ENDBRANCH   1   8
BRANCH   4  11
ATOM     11  C   UNL     1      43.994   5.112  11.092  0.00  0.00    +0.000 C 
BRANCH  11  12
ATOM     12  N   UNL     1      44.100   5.026   9.642  0.00  0.00    +0.000 N 
ATOM     13  C   UNL     1      44.836   3.998   9.065  0.00  0.00    +0.000 A 
ATOM     14  C   UNL     1      44.998   2.720   9.627  0.00  0.00    +0.000 A 
ATOM     15  N   UNL     1      45.731   1.706   9.077  0.00  0.00    +0.000 NA
ATOM     16  CA  UNL     1      46.273   2.010   7.869  0.00  0.00    +0.000 A 
ATOM     17  C   UNL     1      46.083   3.243   7.263  0.00  0.00    +0.000 A 
ATOM     18  N   UNL     1      45.385   4.253   7.858  0.00  0.00    +0.000 NA
ATOM     19  H   UNL     1      44.294   5.896   9.149  0.00  0.00    +0.000 HD
BRANCH  16  20
ATOM     20  C   UNL     1      47.120   0.975   7.223  0.00  0.00    +0.000 C 
ATOM     21  O   UNL     1      47.944   1.203   6.362  0.00  0.00    +0.000 OA
BRANCH  20  22
ATOM     22  OXT UNL     1      46.881  -0.260   7.735  0.00  0.00    +0.000 OA
ATOM     23  HXT UNL     1      47.712  -0.644   8.096  0.00  0.00    +0.000 HD
ENDBRANCH  20  22
ENDBRANCH  16  20
ENDBRANCH  11  12
ENDBRANCH   4  11
BRANCH   6  24
ATOM     24  C   UNL     1      46.909   4.378  15.115  0.00  0.00    +0.000 C 
BRANCH  24  25
ATOM     25  N   UNL     1      47.580   3.102  14.876  0.00  0.00    +0.000 NA
ATOM     26  H   UNL     1      47.038   2.573  14.194  0.00  0.00    +0.000 HD
ATOM     27  H   UNL     1      47.552   2.555  15.735  0.00  0.00    +0.000 HD
ENDBRANCH  24  25
ENDBRANCH   6  24
TORSDOF 8
ENDMDL
MODEL 3
REMARK VINA RESULT:    -6.685      3.641      7.521
REMARK INTER + INTRA:         -10.039
REMARK INTER:                  -9.505
REMARK INTRA:                  -0.534
REMARK UNBOUND:                -0.618
REMARK  Name = 
REMARK  9 active torsions:
REMARK  status: ('A' for Active; 'I' for Inactive)
REMARK    1  A    between atoms: C_1  and  C_2
REMARK    2  A    between atoms: C_2  and  C_3
REMARK    3  A    between atoms: C_4  and  C_5
REMARK    4  A    between atoms: C_8  and  C_9
REMARK    5  A    between atoms: C_9  and  N_10
REMARK    6  A    between atoms: CA_14  and  C_15
REMARK    7  A    between atoms: C_15  and  OXT_17
REMARK    8  A    between atoms: C_21  and  C_22
REMARK    9  A    between atoms: C_22  and  N_23
REMARK                            x       y       z     vdW  Elec       q    Type
REMARK                         _______ _______ _______ _____ _____    ______ ____
ROOT
ATOM      1  C   UNL     1      45.659   4.284   8.891  0.00  0.00    +0.000 A 
ATOM      2  C   UNL     1      46.068   5.570   9.237  0.00  0.00    +0.000 A 
ATOM      3  N   UNL     1      45.845   6.164  10.446  0.00  0.00    +0.000 NA
ATOM      4  C   UNL     1      45.147   5.460  11.374  0.00  0.00    +0.000 A 
ATOM      5  C   UNL     1      44.621   4.207  11.081  0.00  0.00    +0.000 A 
ATOM      6  C   UNL     1      44.891   3.588   9.835  0.00  0.00    +0.000 A 
ENDROOT
BRANCH   1   8
ATOM      7  C   UNL     1      46.538   3.195   6.529  0.00  0.00    +0.000 C 
ATOM      8  C   UNL     1      46.071   3.685   7.644  0.00  0.00    +0.000 C 
BRANCH   7  10
ATOM      9  C   UNL     1      47.369   1.142   5.392  0.00  0.00    +0.000 C 
ATOM     10  C   UNL     1      47.082   2.624   5.230  0.00  0.00    +0.000 C 
ENDBRANCH   7  10
ENDBRANCH   1   8
BRANCH   4  11
ATOM     11  C   UNL     1      45.101   5.977  12.812  0.00  0.00    +0.000 C 
BRANCH  11  12
ATOM     12  N   UNL     1      46.398   6.288  13.396  0.00  0.00    +0.000 N 
ATOM     13  C   UNL     1      47.020   5.361  14.226  0.00  0.00    +0.000 A 
ATOM     14  C   UNL     1      46.872   3.968  14.116  0.00  0.00    +0.000 A 
ATOM     15  N   UNL     1      47.466   3.048  14.935  0.00  0.00    +0.000 NA
ATOM     16  CA  UNL     1      48.289   3.591  15.869  0.00  0.00    +0.000 A 
ATOM     17  C   UNL     1      48.499   4.958  15.963  0.00  0.00    +0.000 A 
ATOM     18  N   UNL     1      47.855   5.856  15.163  0.00  0.00    +0.000 NA
ATOM     19  H   UNL     1      46.505   7.219  13.794  0.00  0.00    +0.000 HD
BRANCH  16  20
ATOM     20  C   UNL     1      48.941   2.659  16.825  0.00  0.00    +0.000 C 
ATOM     21  O   UNL     1      48.904   2.780  18.032  0.00  0.00    +0.000 OA
BRANCH  20  22
ATOM     22  OXT UNL     1      49.561   1.635  16.185  0.00  0.00    +0.000 OA
ATOM     23  HXT UNL     1      49.951   1.012  16.840  0.00  0.00    +0.000 HD
ENDBRANCH  20  22
ENDBRANCH  16  20
ENDBRANCH  11  12
ENDBRANCH   4  11
BRANCH   6  24
ATOM     24  C   UNL     1      44.351   2.202   9.585  0.00  0.00    +0.000 C 
BRANCH  24  25
ATOM     25  N   UNL     1      43.512   1.745  10.691  0.00  0.00    +0.000 NA
ATOM     26  H   UNL     1      44.112   1.523  11.484  0.00  0.00    +0.000 HD
ATOM     27  H   UNL     1      43.072   0.866  10.422  0.00  0.00    +0.000 HD
ENDBRANCH  24  25
ENDBRANCH   6  24
TORSDOF 8
ENDMDL
MODEL 4
REMARK VINA RESULT:    -6.469      1.794      2.285
REMARK INTER + INTRA:          -9.735
REMARK INTER:                  -9.256
REMARK INTRA:                  -0.479
REMARK UNBOUND:                -0.618
REMARK  Name = 
REMARK  9 active torsions:
REMARK  status: ('A' for Active; 'I' for Inactive)
REMARK    1  A    between atoms: C_1  and  C_2
REMARK    2  A    between atoms: C_2  and  C_3
REMARK    3  A    between atoms: C_4  and  C_5
REMARK    4  A    between atoms: C_8  and  C_9
REMARK    5  A    between atoms: C_9  and  N_10
REMARK    6  A    between atoms: CA_14  and  C_15
REMARK    7  A    between atoms: C_15  and  OXT_17
REMARK    8  A    between atoms: C_21  and  C_22
REMARK    9  A    between atoms: C_22  and  N_23
REMARK                            x       y       z     vdW  Elec       q    Type
REMARK                         _______ _______ _______ _____ _____    ______ ____
ROOT
ATOM      1  C   UNL     1      45.861   6.798  12.731  0.00  0.00    +0.000 A 
ATOM      2  C   UNL     1      46.018   5.463  13.099  0.00  0.00    +0.000 A 
ATOM      3  N   UNL     1      45.281   4.423  12.608  0.00  0.00    +0.000 NA
ATOM      4  C   UNL     1      44.300   4.713  11.714  0.00  0.00    +0.000 A 
ATOM      5  C   UNL     1      44.014   6.027  11.362  0.00  0.00    +0.000 A 
ATOM      6  C   UNL     1      44.809   7.093  11.852  0.00  0.00    +0.000 A 
ENDROOT
BRANCH   1   8
ATOM      7  C   UNL     1      47.565   8.790  13.543  0.00  0.00    +0.000 C 
ATOM      8  C   UNL     1      46.785   7.806  13.190  0.00  0.00    +0.000 C 
BRANCH   7  10
ATOM      9  C   UNL     1      49.861   9.408  14.283  0.00  0.00    +0.000 C 
ATOM     10  C   UNL     1      48.476   9.936  13.955  0.00  0.00    +0.000 C 
ENDBRANCH   7  10
ENDBRANCH   1   8
BRANCH   4  11
ATOM     11  C   UNL     1      43.634   3.568  10.952  0.00  0.00    +0.000 C 
BRANCH  11  12
ATOM     12  N   UNL     1      44.521   2.472  10.588  0.00  0.00    +0.000 N 
ATOM     13  C   UNL     1      45.217   2.520   9.386  0.00  0.00    +0.000 A 
ATOM     14  C   UNL     1      45.645   3.702   8.759  0.00  0.00    +0.000 A 
ATOM     15  N   UNL     1      46.316   3.763   7.570  0.00  0.00    +0.000 NA
ATOM     16  CA  UNL     1      46.606   2.547   7.037  0.00  0.00    +0.000 A 
ATOM     17  C   UNL     1      46.246   1.363   7.662  0.00  0.00    +0.000 A 
ATOM     18  N   UNL     1      45.534   1.334   8.825  0.00  0.00    +0.000 NA
ATOM     19  H   UNL     1      44.160   1.530  10.730  0.00  0.00    +0.000 HD
BRANCH  16  20
ATOM     20  C   UNL     1      47.298   2.528   5.723  0.00  0.00    +0.000 C 
ATOM     21  O   UNL     1      46.734   2.442   4.652  0.00  0.00    +0.000 OA
BRANCH  20  22
ATOM     22  OXT UNL     1      48.643   2.648   5.862  0.00  0.00    +0.000 OA
ATOM     23  HXT UNL     1      49.002   1.881   6.365  0.00  0.00    +0.000 HD
ENDBRANCH  20  22
ENDBRANCH  16  20
ENDBRANCH  11  12
ENDBRANCH   4  11
BRANCH   6  24
ATOM     24  C   UNL     1      44.499   8.496  11.393  0.00  0.00    +0.000 C 
BRANCH  24  25
ATOM     25  N   UNL     1      43.146   8.596  10.850  0.00  0.00    +0.000 NA
ATOM     26  H   UNL     1      42.697   9.421  11.247  0.00  0.00    +0.000 HD
ATOM     27  H   UNL     1      42.604   7.800  11.182  0.00  0.00    +0.000 HD
ENDBRANCH  24  25
ENDBRANCH   6  24
TORSDOF 8
ENDMDL
MODEL 5
REMARK VINA RESULT:    -6.317      1.539      1.796
REMARK INTER + INTRA:          -9.520
REMARK INTER:                  -8.896
REMARK INTRA:                  -0.624
REMARK UNBOUND:                -0.618
REMARK  Name = 
REMARK  9 active torsions:
REMARK  status: ('A' for Active; 'I' for Inactive)
REMARK    1  A    between atoms: C_1  and  C_2
REMARK    2  A    between atoms: C_2  and  C_3
REMARK    3  A    between atoms: C_4  and  C_5
REMARK    4  A    between atoms: C_8  and  C_9
REMARK    5  A    between atoms: C_9  and  N_10
REMARK    6  A    between atoms: CA_14  and  C_15
REMARK    7  A    between atoms: C_15  and  OXT_17
REMARK    8  A    between atoms: C_21  and  C_22
REMARK    9  A    between atoms: C_22  and  N_23
REMARK                            x       y       z     vdW  Elec       q    Type
REMARK                         _______ _______ _______ _____ _____    ______ ____
ROOT
ATOM      1  C   UNL     1      45.980   4.732  14.047  0.00  0.00    +0.000 A 
ATOM      2  C   UNL     1      44.832   3.948  13.961  0.00  0.00    +0.000 A 
ATOM      3  N   UNL     1      43.919   4.004  12.946  0.00  0.00    +0.000 NA
ATOM      4  C   UNL     1      44.130   4.914  11.960  0.00  0.00    +0.000 A 
ATOM      5  C   UNL     1      45.199   5.800  12.015  0.00  0.00    +0.000 A 
ATOM      6  C   UNL     1      46.158   5.706  13.054  0.00  0.00    +0.000 A 
ENDROOT
BRANCH   1   8
ATOM      7  C   UNL     1      47.924   4.332  15.943  0.00  0.00    +0.000 C 
ATOM      8  C   UNL     1      46.963   4.497  15.077  0.00  0.00    +0.000 C 
BRANCH   7  10
ATOM      9  C   UNL     1      49.338   2.660  17.128  0.00  0.00    +0.000 C 
ATOM     10  C   UNL     1      49.044   4.139  16.953  0.00  0.00    +0.000 C 
ENDBRANCH   7  10
ENDBRANCH   1   8
BRANCH   4  11
ATOM     11  C   UNL     1      43.285   4.834  10.689  0.00  0.00    +0.000 C 
BRANCH  11  12
ATOM     12  N   UNL     1      44.016   5.049   9.448  0.00  0.00    +0.000 N 
ATOM     13  C   UNL     1      44.795   4.024   8.922  0.00  0.00    +0.000 A 
ATOM     14  C   UNL     1      44.524   2.655   9.080  0.00  0.00    +0.000 A 
ATOM     15  N   UNL     1      45.290   1.639   8.581  0.00  0.00    +0.000 NA
ATOM     16  CA  UNL     1      46.348   2.059   7.840  0.00  0.00    +0.000 A 
ATOM     17  C   UNL     1      46.608   3.403   7.619  0.00  0.00    +0.000 A 
ATOM     18  N   UNL     1      45.853   4.396   8.170  0.00  0.00    +0.000 NA
ATOM     19  H   UNL     1      44.519   5.930   9.365  0.00  0.00    +0.000 HD
BRANCH  16  20
ATOM     20  C   UNL     1      47.255   1.016   7.296  0.00  0.00    +0.000 C 
ATOM     21  O   UNL     1      48.174   1.236   6.535  0.00  0.00    +0.000 OA
BRANCH  20  22
ATOM     22  OXT UNL     1      46.949  -0.216   7.779  0.00  0.00    +0.000 OA
ATOM     23  HXT UNL     1      47.416  -0.372   8.631  0.00  0.00    +0.000 HD
ENDBRANCH  20  22
ENDBRANCH  16  20
ENDBRANCH  11  12
ENDBRANCH   4  11
BRANCH   6  24
ATOM     24  C   UNL     1      47.335   6.649  13.038  0.00  0.00    +0.000 C 
BRANCH  24  25
ATOM     25  N   UNL     1      47.037   7.892  13.746  0.00  0.00    +0.000 NA
ATOM     26  H   UNL     1      46.965   7.689  14.743  0.00  0.00    +0.000 HD
ATOM     27  H   UNL     1      46.114   8.214  13.461  0.00  0.00    +0.000 HD
ENDBRANCH  24  25
ENDBRANCH   6  24
TORSDOF 8
ENDMDL
MODEL 6
REMARK VINA RESULT:    -6.244      4.791      7.014
REMARK INTER + INTRA:          -9.417
REMARK INTER:                  -9.027
REMARK INTRA:                  -0.390
REMARK UNBOUND:                -0.618
REMARK  Name = 
REMARK  9 active torsions:
REMARK  status: ('A' for Active; 'I' for Inactive)
REMARK    1  A    between atoms: C_1  and  C_2
REMARK    2  A    between atoms: C_2  and  C_3
REMARK    3  A    between atoms: C_4  and  C_5
REMARK    4  A    between atoms: C_8  and  C_9
REMARK    5  A    between atoms: C_9  and  N_10
REMARK    6  A    between atoms: CA_14  and  C_15
REMARK    7  A    between atoms: C_15  and  OXT_17
REMARK    8  A    between atoms: C_21  and  C_22
REMARK    9  A    between atoms: C_22  and  N_23
REMARK                            x       y       z     vdW  Elec       q    Type
REMARK                         _______ _______ _______ _____ _____    ______ ____
ROOT
ATOM      1  C   UNL     1      51.181   2.473  17.552  0.00  0.00    +0.000 A 
ATOM      2  C   UNL     1      50.386   1.655  16.752  0.00  0.00    +0.000 A 
ATOM      3  N   UNL     1      49.164   2.002  16.248  0.00  0.00    +0.000 NA
ATOM      4  C   UNL     1      48.673   3.225  16.575  0.00  0.00    +0.000 A 
ATOM      5  C   UNL     1      49.358   4.067  17.443  0.00  0.00    +0.000 A 
ATOM      6  C   UNL     1      50.640   3.710  17.929  0.00  0.00    +0.000 A 
ENDROOT
BRANCH   1   8
ATOM      7  C   UNL     1      53.728   1.649  18.160  0.00  0.00    +0.000 C 
ATOM      8  C   UNL     1      52.522   2.079  17.912  0.00  0.00    +0.000 C 
BRANCH   7  10
ATOM      9  C   UNL     1      55.088  -0.308  18.880  0.00  0.00    +0.000 C 
ATOM     10  C   UNL     1      55.134   1.146  18.449  0.00  0.00    +0.000 C 
ENDBRANCH   7  10
ENDBRANCH   1   8
BRANCH   4  11
ATOM     11  C   UNL     1      47.445   3.748  15.831  0.00  0.00    +0.000 C 
BRANCH  11  12
ATOM     12  N   UNL     1      47.268   3.221  14.485  0.00  0.00    +0.000 N 
ATOM     13  C   UNL     1      46.300   3.770  13.652  0.00  0.00    +0.000 A 
ATOM     14  C   UNL     1      45.881   5.111  13.693  0.00  0.00    +0.000 A 
ATOM     15  N   UNL     1      44.920   5.660  12.890  0.00  0.00    +0.000 NA
ATOM     16  CA  UNL     1      44.414   4.799  11.969  0.00  0.00    +0.000 A 
ATOM     17  C   UNL     1      44.850   3.486  11.868  0.00  0.00    +0.000 A 
ATOM     18  N   UNL     1      45.776   2.953  12.715  0.00  0.00    +0.000 NA
ATOM     19  H   UNL     1      47.252   2.207  14.394  0.00  0.00    +0.000 HD
BRANCH  16  20
ATOM     20  C   UNL     1      43.334   5.307  11.085  0.00  0.00    +0.000 C 
ATOM     21  O   UNL     1      42.385   5.959  11.467  0.00  0.00    +0.000 OA
BRANCH  20  22
ATOM     22  OXT UNL     1      43.552   4.976   9.786  0.00  0.00    +0.000 OA
ATOM     23  HXT UNL     1      44.413   5.346   9.482  0.00  0.00    +0.000 HD
ENDBRANCH  20  22
ENDBRANCH  16  20
ENDBRANCH  11  12
ENDBRANCH   4  11
BRANCH   6  24
ATOM     24  C   UNL     1      51.372   4.683  18.819  0.00  0.00    +0.000 C 
BRANCH  24  25
ATOM     25  N   UNL     1      51.226   4.334  20.231  0.00  0.00    +0.000 NA
ATOM     26  H   UNL     1      51.629   3.410  20.379  0.00  0.00    +0.000 HD
ATOM     27  H   UNL     1      50.234   4.241  20.440  0.00  0.00    +0.000 HD
ENDBRANCH  24  25
ENDBRANCH   6  24
TORSDOF 8
ENDMDL
MODEL 7
REMARK VINA RESULT:    -5.667      3.881      5.871
REMARK INTER + INTRA:          -8.604
REMARK INTER:                  -8.035
REMARK INTRA:                  -0.569
REMARK UNBOUND:                -0.618
REMARK  Name = 
REMARK  9 active torsions:
REMARK  status: ('A' for Active; 'I' for Inactive)
REMARK    1  A    between atoms: C_1  and  C_2
REMARK    2  A    between atoms: C_2  and  C_3
REMARK    3  A    between atoms: C_4  and  C_5
REMARK    4  A    between atoms: C_8  and  C_9
REMARK    5  A    between atoms: C_9  and  N_10
REMARK    6  A    between atoms: CA_14  and  C_15
REMARK    7  A    between atoms: C_15  and  OXT_17
REMARK    8  A    between atoms: C_21  and  C_22
REMARK    9  A    between atoms: C_22  and  N_23
REMARK                            x       y       z     vdW  Elec       q    Type
REMARK                         _______ _______ _______ _____ _____    ______ ____
ROOT
ATOM      1  C   UNL     1      48.283   7.404  18.294  0.00  0.00    +0.000 A 
ATOM      2  C   UNL     1      48.620   8.359  17.338  0.00  0.00    +0.000 A 
ATOM      3  N   UNL     1      48.765   8.114  16.002  0.00  0.00    +0.000 NA
ATOM      4  C   UNL     1      48.597   6.835  15.576  0.00  0.00    +0.000 A 
ATOM      5  C   UNL     1      48.352   5.803  16.474  0.00  0.00    +0.000 A 
ATOM      6  C   UNL     1      48.168   6.078  17.852  0.00  0.00    +0.000 A 
ENDROOT
BRANCH   1   8
ATOM      7  C   UNL     1      47.663   8.180  20.853  0.00  0.00    +0.000 C 
ATOM      8  C   UNL     1      48.005   7.785  19.658  0.00  0.00    +0.000 C 
BRANCH   7  10
ATOM      9  C   UNL     1      46.301   9.808  22.154  0.00  0.00    +0.000 C 
ATOM     10  C   UNL     1      47.267   8.640  22.247  0.00  0.00    +0.000 C 
ENDBRANCH   7  10
ENDBRANCH   1   8
BRANCH   4  11
ATOM     11  C   UNL     1      48.495   6.566  14.075  0.00  0.00    +0.000 C 
BRANCH  11  12
ATOM     12  N   UNL     1      47.207   6.891  13.477  0.00  0.00    +0.000 N 
ATOM     13  C   UNL     1      46.414   5.875  12.954  0.00  0.00    +0.000 A 
ATOM     14  C   UNL     1      46.394   4.554  13.433  0.00  0.00    +0.000 A 
ATOM     15  N   UNL     1      45.631   3.544  12.919  0.00  0.00    +0.000 NA
ATOM     16  CA  UNL     1      44.815   3.930  11.904  0.00  0.00    +0.000 A 
ATOM     17  C   UNL     1      44.772   5.240  11.449  0.00  0.00    +0.000 A 
ATOM     18  N   UNL     1      45.580   6.217  11.950  0.00  0.00    +0.000 NA
ATOM     19  H   UNL     1      47.189   7.690  12.845  0.00  0.00    +0.000 HD
BRANCH  16  20
ATOM     20  C   UNL     1      43.983   2.880  11.262  0.00  0.00    +0.000 C 
ATOM     21  O   UNL     1      43.915   2.696  10.065  0.00  0.00    +0.000 OA
BRANCH  20  22
ATOM     22  OXT UNL     1      43.326   2.128  12.182  0.00  0.00    +0.000 OA
ATOM     23  HXT UNL     1      43.074   1.260  11.794  0.00  0.00    +0.000 HD
ENDBRANCH  20  22
ENDBRANCH  16  20
ENDBRANCH  11  12
ENDBRANCH   4  11
BRANCH   6  24
ATOM     24  C   UNL     1      47.842   4.934  18.779  0.00  0.00    +0.000 C 
BRANCH  24  25
ATOM     25  N   UNL     1      47.007   3.931  18.121  0.00  0.00    +0.000 NA
ATOM     26  H   UNL     1      46.308   4.411  17.555  0.00  0.00    +0.000 HD
ATOM     27  H   UNL     1      46.485   3.425  18.835  0.00  0.00    +0.000 HD
ENDBRANCH  24  25
ENDBRANCH   6  24
TORSDOF 8
ENDMDL
MODEL 8
REMARK VINA RESULT:    -5.447      4.044      5.959
REMARK INTER + INTRA:          -8.294
REMARK INTER:                  -7.919
REMARK INTRA:                  -0.375
REMARK UNBOUND:                -0.618
REMARK  Name = 
REMARK  9 active torsions:
REMARK  status: ('A' for Active; 'I' for Inactive)
REMARK    1  A    between atoms: C_1  and  C_2
REMARK    2  A    between atoms: C_2  and  C_3
REMARK    3  A    between atoms: C_4  and  C_5
REMARK    4  A    between atoms: C_8  and  C_9
REMARK    5  A    between atoms: C_9  and  N_10
REMARK    6  A    between atoms: CA_14  and  C_15
REMARK    7  A    between atoms: C_15  and  OXT_17
REMARK    8  A    between atoms: C_21  and  C_22
REMARK    9  A    between atoms: C_22  and  N_23
REMARK                            x       y       z     vdW  Elec       q    Type
REMARK                         _______ _______ _______ _____ _____    ______ ____
ROOT
ATOM      1  C   UNL     1      49.419   4.954  19.015  0.00  0.00    +0.000 A 
ATOM      2  C   UNL     1      49.915   4.104  18.029  0.00  0.00    +0.000 A 
ATOM      3  N   UNL     1      49.218   3.689  16.930  0.00  0.00    +0.000 NA
ATOM      4  C   UNL     1      47.935   4.114  16.800  0.00  0.00    +0.000 A 
ATOM      5  C   UNL     1      47.331   4.889  17.784  0.00  0.00    +0.000 A 
ATOM      6  C   UNL     1      48.076   5.342  18.901  0.00  0.00    +0.000 A 
ENDROOT
BRANCH   1   8
ATOM      7  C   UNL     1      51.086   5.811  21.020  0.00  0.00    +0.000 C 
ATOM      8  C   UNL     1      50.277   5.458  20.060  0.00  0.00    +0.000 C 
BRANCH   7  10
ATOM      9  C   UNL     1      53.470   6.080  21.686  0.00  0.00    +0.000 C 
ATOM     10  C   UNL     1      52.029   6.223  22.140  0.00  0.00    +0.000 C 
ENDBRANCH   7  10
ENDBRANCH   1   8
BRANCH   4  11
ATOM     11  C   UNL     1      47.214   3.890  15.472  0.00  0.00    +0.000 C 
BRANCH  11  12
ATOM     12  N   UNL     1      46.836   5.104  14.762  0.00  0.00    +0.000 N 
ATOM     13  C   UNL     1      46.367   5.021  13.456  0.00  0.00    +0.000 A 
ATOM     14  C   UNL     1      45.658   3.927  12.932  0.00  0.00    +0.000 A 
ATOM     15  N   UNL     1      45.204   3.827  11.646  0.00  0.00    +0.000 NA
ATOM     16  CA  UNL     1      45.447   4.928  10.889  0.00  0.00    +0.000 A 
ATOM     17  C   UNL     1      46.095   6.045  11.395  0.00  0.00    +0.000 A 
ATOM     18  N   UNL     1      46.578   6.097  12.669  0.00  0.00    +0.000 NA
ATOM     19  H   UNL     1      47.477   5.892  14.839  0.00  0.00    +0.000 HD
BRANCH  16  20
ATOM     20  C   UNL     1      45.023   4.882   9.466  0.00  0.00    +0.000 C 
ATOM     21  O   UNL     1      45.781   4.959   8.522  0.00  0.00    +0.000 OA
BRANCH  20  22
ATOM     22  OXT UNL     1      43.681   4.712   9.348  0.00  0.00    +0.000 OA
ATOM     23  HXT UNL     1      43.461   3.753   9.324  0.00  0.00    +0.000 HD
ENDBRANCH  20  22
ENDBRANCH  16  20
ENDBRANCH  11  12
ENDBRANCH   4  11
BRANCH   6  24
ATOM     24  C   UNL     1      47.395   6.231  19.910  0.00  0.00    +0.000 C 
BRANCH  24  25
ATOM     25  N   UNL     1      47.008   5.487  21.108  0.00  0.00    +0.000 NA
ATOM     26  H   UNL     1      46.557   4.620  20.819  0.00  0.00    +0.000 HD
ATOM     27  H   UNL     1      46.295   6.020  21.603  0.00  0.00    +0.000 HD
ENDBRANCH  24  25
ENDBRANCH   6  24
TORSDOF 8
ENDMDL
MODEL 9
REMARK VINA RESULT:    -5.261      3.508      5.382
REMARK INTER + INTRA:          -8.032
REMARK INTER:                  -7.560
REMARK INTRA:                  -0.472
REMARK UNBOUND:                -0.618
REMARK  Name = 
REMARK  9 active torsions:
REMARK  status: ('A' for Active; 'I' for Inactive)
REMARK    1  A    between atoms: C_1  and  C_2
REMARK    2  A    between atoms: C_2  and  C_3
REMARK    3  A    between atoms: C_4  and  C_5
REMARK    4  A    between atoms: C_8  and  C_9
REMARK    5  A    between atoms: C_9  and  N_10
REMARK    6  A    between atoms: CA_14  and  C_15
REMARK    7  A    between atoms: C_15  and  OXT_17
REMARK    8  A    between atoms: C_21  and  C_22
REMARK    9  A    between atoms: C_22  and  N_23
REMARK                            x       y       z     vdW  Elec       q    Type
REMARK                         _______ _______ _______ _____ _____    ______ ____
ROOT
ATOM      1  C   UNL     1      50.334   4.367  17.640  0.00  0.00    +0.000 A 
ATOM      2  C   UNL     1      49.612   3.185  17.484  0.00  0.00    +0.000 A 
ATOM      3  N   UNL     1      48.444   3.067  16.785  0.00  0.00    +0.000 NA
ATOM      4  C   UNL     1      47.931   4.192  16.222  0.00  0.00    +0.000 A 
ATOM      5  C   UNL     1      48.537   5.429  16.406  0.00  0.00    +0.000 A 
ATOM      6  C   UNL     1      49.767   5.531  17.103  0.00  0.00    +0.000 A 
ENDROOT
BRANCH   1   8
ATOM      7  C   UNL     1      52.847   4.315  18.744  0.00  0.00    +0.000 C 
ATOM      8  C   UNL     1      51.633   4.364  18.267  0.00  0.00    +0.000 C 
BRANCH   7  10
ATOM      9  C   UNL     1      54.273   3.490  20.610  0.00  0.00    +0.000 C 
ATOM     10  C   UNL     1      54.260   4.257  19.300  0.00  0.00    +0.000 C 
ENDBRANCH   7  10
ENDBRANCH   1   8
BRANCH   4  11
ATOM     11  C   UNL     1      46.780   4.058  15.226  0.00  0.00    +0.000 C 
BRANCH  11  12
ATOM     12  N   UNL     1      46.547   5.230  14.393  0.00  0.00    +0.000 N 
ATOM     13  C   UNL     1      46.147   5.068  13.072  0.00  0.00    +0.000 A 
ATOM     14  C   UNL     1      45.378   3.991  12.599  0.00  0.00    +0.000 A 
ATOM     15  N   UNL     1      44.991   3.812  11.300  0.00  0.00    +0.000 NA
ATOM     16  CA  UNL     1      45.367   4.818  10.469  0.00  0.00    +0.000 A 
ATOM     17  C   UNL     1      46.077   5.921  10.919  0.00  0.00    +0.000 A 
ATOM     18  N   UNL     1      46.491   6.049  12.212  0.00  0.00    +0.000 NA
ATOM     19  H   UNL     1      47.246   5.969  14.444  0.00  0.00    +0.000 HD
BRANCH  16  20
ATOM     20  C   UNL     1      45.021   4.678   9.031  0.00  0.00    +0.000 C 
ATOM     21  O   UNL     1      45.831   4.681   8.127  0.00  0.00    +0.000 OA
BRANCH  20  22
ATOM     22  OXT UNL     1      43.685   4.517   8.850  0.00  0.00    +0.000 OA
ATOM     23  HXT UNL     1      43.514   3.765   8.238  0.00  0.00    +0.000 HD
ENDBRANCH  20  22
ENDBRANCH  16  20
ENDBRANCH  11  12
ENDBRANCH   4  11
BRANCH   6  24
ATOM     24  C   UNL     1      50.418   6.886  17.224  0.00  0.00    +0.000 C 
BRANCH  24  25
ATOM     25  N   UNL     1      51.214   7.207  16.041  0.00  0.00    +0.000 NA
ATOM     26  H   UNL     1      50.741   6.829  15.220  0.00  0.00    +0.000 HD
ATOM     27  H   UNL     1      52.101   6.711  16.103  0.00  0.00    +0.000 HD
ENDBRANCH  24  25
ENDBRANCH   6  24
TORSDOF 8
ENDMDL
