MODEL 1
REMARK VINA RESULT:    -8.098      0.000      0.000
REMARK INTER + INTRA:         -11.290
REMARK INTER:                 -10.465
REMARK INTRA:                  -0.825
REMARK UNBOUND:                -0.825
REMARK  Name = 
REMARK  6 active torsions:
REMARK  status: ('A' for Active; 'I' for Inactive)
REMARK    1  A    between atoms: C_1  and  C_2
REMARK    2  A    between atoms: C_4  and  C_5
REMARK    3  A    between atoms: C_5  and  O_6
REMARK    4  A    between atoms: O_6  and  C_7
REMARK    5  A    between atoms: C_10  and  C_11
REMARK    6  A    between atoms: C_17  and  C_18
REMARK                            x       y       z     vdW  Elec       q    Type
REMARK                         _______ _______ _______ _____ _____    ______ ____
ROOT
ATOM      1  C   UNL     1      47.360   3.668  14.705  0.00  0.00    +0.000 C 
ATOM      2  C   UNL     1      46.559   4.414  13.681  0.00  0.00    +0.000 A 
ATOM      3  C   UNL     1      45.566   3.786  12.933  0.00  0.00    +0.000 A 
ATOM      4  C   UNL     1      44.848   4.529  11.997  0.00  0.00    +0.000 A 
ATOM      5  N   UNL     1      45.079   5.854  11.788  0.00  0.00    +0.000 NA
ATOM      6  C   UNL     1      46.041   6.468  12.522  0.00  0.00    +0.000 A 
ATOM      7  C   UNL     1      46.794   5.773  13.467  0.00  0.00    +0.000 A 
ENDROOT
BRANCH   6   8
ATOM      8  C   UNL     1      46.234   7.911  12.276  0.00  0.00    +0.000 A 
ATOM      9  C   UNL     1      47.519   8.484  12.269  0.00  0.00    +0.000 A 
ATOM     10  C   UNL     1      47.708   9.847  12.010  0.00  0.00    +0.000 A 
ATOM     11  C   UNL     1      46.611  10.667  11.758  0.00  0.00    +0.000 A 
ATOM     12  C   UNL     1      45.333  10.123  11.771  0.00  0.00    +0.000 A 
ATOM     13 CL   UNL     1      43.968  11.125  11.460  0.00  0.00    +0.000 Cl
ATOM     14  C   UNL     1      45.143   8.765  12.027  0.00  0.00    +0.000 A 
ENDBRANCH   6   8
BRANCH   4  15
ATOM     15  C   UNL     1      43.776   3.859  11.160  0.00  0.00    +0.000 C 
BRANCH  15  16
ATOM     16  O   UNL     1      43.789   4.367   9.814  0.00  0.00    +0.000 OA
BRANCH  16  17
ATOM     17  C   UNL     1      44.741   3.744   9.031  0.00  0.00    +0.000 A 
ATOM     18  C   UNL     1      44.926   2.367   9.155  0.00  0.00    +0.000 A 
ATOM     19  N   UNL     1      45.835   1.664   8.418  0.00  0.00    +0.000 NA
ATOM     20  C   UNL     1      46.545   2.418   7.529  0.00  0.00    +0.000 A 
ATOM     21  C   UNL     1      46.363   3.788   7.410  0.00  0.00    +0.000 A 
ATOM     22  N   UNL     1      45.467   4.481   8.163  0.00  0.00    +0.000 NA
BRANCH  20  23
ATOM     23  C   UNL     1      47.540   1.739   6.648  0.00  0.00    +0.000 C 
ATOM     24  N   UNL     1      48.695   2.422   6.364  0.00  0.00    +0.000 N 
ATOM     25  O   UNL     1      47.343   0.617   6.197  0.00  0.00    +0.000 OA
ATOM     26  H   UNL     1      48.869   3.343   6.748  0.00  0.00    +0.000 HD
ATOM     27  H   UNL     1      49.392   1.978   5.788  0.00  0.00    +0.000 HD
ENDBRANCH  20  23
ENDBRANCH  16  17
ENDBRANCH  15  16
ENDBRANCH   4  15
TORSDOF 5
ENDMDL
MODEL 2
REMARK VINA RESULT:    -7.833      2.667      4.183
REMARK INTER + INTRA:         -10.947
REMARK INTER:                 -10.250
REMARK INTRA:                  -0.698
REMARK UNBOUND:                -0.825
REMARK  Name = 
REMARK  6 active torsions:
REMARK  status: ('A' for Active; 'I' for Inactive)
REMARK    1  A    between atoms: C_1  and  C_2
REMARK    2  A    between atoms: C_4  and  C_5
REMARK    3  A    between atoms: C_5  and  O_6
REMARK    4  A    between atoms: O_6  and  C_7
REMARK    5  A    between atoms: C_10  and  C_11
REMARK    6  A    between atoms: C_17  and  C_18
REMARK                            x       y       z     vdW  Elec       q    Type
REMARK                         _______ _______ _______ _____ _____    ______ ____
ROOT
ATOM      1  C   UNL     1      44.673   8.164  11.338  0.00  0.00    +0.000 C 
ATOM      2  C   UNL     1      45.020   6.823  11.908  0.00  0.00    +0.000 A 
ATOM      3  C   UNL     1      44.495   5.646  11.378  0.00  0.00    +0.000 A 
ATOM      4  C   UNL     1      44.855   4.425  11.945  0.00  0.00    +0.000 A 
ATOM      5  N   UNL     1      45.709   4.337  13.002  0.00  0.00    +0.000 NA
ATOM      6  C   UNL     1      46.227   5.482  13.514  0.00  0.00    +0.000 A 
ATOM      7  C   UNL     1      45.897   6.731  12.990  0.00  0.00    +0.000 A 
ENDROOT
BRANCH   6   8
ATOM      8  C   UNL     1      47.168   5.330  14.641  0.00  0.00    +0.000 A 
ATOM      9  C   UNL     1      48.190   6.270  14.869  0.00  0.00    +0.000 A 
ATOM     10  C   UNL     1      49.068   6.144  15.953  0.00  0.00    +0.000 A 
ATOM     11  C   UNL     1      48.943   5.069  16.830  0.00  0.00    +0.000 A 
ATOM     12  C   UNL     1      47.947   4.124  16.616  0.00  0.00    +0.000 A 
ATOM     13 CL   UNL     1      47.780   2.791  17.692  0.00  0.00    +0.000 Cl
ATOM     14  C   UNL     1      47.071   4.249  15.538  0.00  0.00    +0.000 A 
ENDBRANCH   6   8
BRANCH   4  15
ATOM     15  C   UNL     1      44.279   3.135  11.395  0.00  0.00    +0.000 C 
BRANCH  15  16
ATOM     16  O   UNL     1      43.779   3.328  10.060  0.00  0.00    +0.000 OA
BRANCH  16  17
ATOM     17  C   UNL     1      44.708   2.975   9.100  0.00  0.00    +0.000 A 
ATOM     18  C   UNL     1      45.086   3.917   8.144  0.00  0.00    +0.000 A 
ATOM     19  N   UNL     1      46.002   3.663   7.163  0.00  0.00    +0.000 NA
ATOM     20  C   UNL     1      46.537   2.408   7.203  0.00  0.00    +0.000 A 
ATOM     21  C   UNL     1      46.157   1.471   8.153  0.00  0.00    +0.000 A 
ATOM     22  N   UNL     1      45.229   1.729   9.113  0.00  0.00    +0.000 NA
BRANCH  20  23
ATOM     23  C   UNL     1      47.576   2.040   6.196  0.00  0.00    +0.000 C 
ATOM     24  N   UNL     1      48.796   2.656   6.302  0.00  0.00    +0.000 N 
ATOM     25  O   UNL     1      47.357   1.218   5.314  0.00  0.00    +0.000 OA
ATOM     26  H   UNL     1      48.986   3.322   7.040  0.00  0.00    +0.000 HD
ATOM     27  H   UNL     1      49.522   2.410   5.648  0.00  0.00    +0.000 HD
ENDBRANCH  20  23
ENDBRANCH  16  17
ENDBRANCH  15  16
ENDBRANCH   4  15
TORSDOF 5
ENDMDL
MODEL 3
REMARK VINA RESULT:    -7.531      1.462      2.233
REMARK INTER + INTRA:         -10.558
REMARK INTER:                  -9.754
REMARK INTRA:                  -0.804
REMARK UNBOUND:                -0.825
REMARK  Name = 
REMARK  6 active torsions:
REMARK  status: ('A' for Active; 'I' for Inactive)
REMARK    1  A    between atoms: C_1  and  C_2
REMARK    2  A    between atoms: C_4  and  C_5
REMARK    3  A    between atoms: C_5  and  O_6
REMARK    4  A    between atoms: O_6  and  C_7
REMARK    5  A    between atoms: C_10  and  C_11
REMARK    6  A    between atoms: C_17  and  C_18
REMARK                            x       y       z     vdW  Elec       q    Type
REMARK                         _______ _______ _______ _____ _____    ______ ____
ROOT
ATOM      1  C   UNL     1      48.561   6.557  12.919  0.00  0.00    +0.000 C 
ATOM      2  C   UNL     1      47.157   6.683  12.410  0.00  0.00    +0.000 A 
ATOM      3  C   UNL     1      46.360   5.564  12.180  0.00  0.00    +0.000 A 
ATOM      4  C   UNL     1      45.060   5.740  11.710  0.00  0.00    +0.000 A 
ATOM      5  N   UNL     1      44.534   6.972  11.470  0.00  0.00    +0.000 NA
ATOM      6  C   UNL     1      45.306   8.064  11.702  0.00  0.00    +0.000 A 
ATOM      7  C   UNL     1      46.616   7.946  12.166  0.00  0.00    +0.000 A 
ENDROOT
BRANCH   6   8
ATOM      8  C   UNL     1      44.679   9.377  11.452  0.00  0.00    +0.000 A 
ATOM      9  C   UNL     1      45.374  10.575  11.698  0.00  0.00    +0.000 A 
ATOM     10  C   UNL     1      44.793  11.822  11.438  0.00  0.00    +0.000 A 
ATOM     11  C   UNL     1      43.499  11.895  10.928  0.00  0.00    +0.000 A 
ATOM     12  C   UNL     1      42.792  10.723  10.687  0.00  0.00    +0.000 A 
ATOM     13 CL   UNL     1      41.192  10.798  10.056  0.00  0.00    +0.000 Cl
ATOM     14  C   UNL     1      43.370   9.480  10.945  0.00  0.00    +0.000 A 
ENDBRANCH   6   8
BRANCH   4  15
ATOM     15  C   UNL     1      44.184   4.534  11.435  0.00  0.00    +0.000 C 
BRANCH  15  16
ATOM     16  O   UNL     1      43.789   4.494  10.052  0.00  0.00    +0.000 OA
BRANCH  16  17
ATOM     17  C   UNL     1      44.713   3.836   9.265  0.00  0.00    +0.000 A 
ATOM     18  C   UNL     1      45.545   4.581   8.429  0.00  0.00    +0.000 A 
ATOM     19  N   UNL     1      46.493   4.019   7.622  0.00  0.00    +0.000 NA
ATOM     20  C   UNL     1      46.577   2.660   7.712  0.00  0.00    +0.000 A 
ATOM     21  C   UNL     1      45.747   1.920   8.543  0.00  0.00    +0.000 A 
ATOM     22  N   UNL     1      44.793   2.489   9.327  0.00  0.00    +0.000 NA
BRANCH  20  23
ATOM     23  C   UNL     1      47.608   1.950   6.899  0.00  0.00    +0.000 C 
ATOM     24  N   UNL     1      48.530   2.723   6.242  0.00  0.00    +0.000 N 
ATOM     25  O   UNL     1      47.639   0.728   6.821  0.00  0.00    +0.000 OA
ATOM     26  H   UNL     1      48.518   3.733   6.318  0.00  0.00    +0.000 HD
ATOM     27  H   UNL     1      49.249   2.269   5.703  0.00  0.00    +0.000 HD
ENDBRANCH  20  23
ENDBRANCH  16  17
ENDBRANCH  15  16
ENDBRANCH   4  15
TORSDOF 5
ENDMDL
MODEL 4
REMARK VINA RESULT:    -7.441      2.594      4.516
REMARK INTER + INTRA:         -10.441
REMARK INTER:                  -9.835
REMARK INTRA:                  -0.606
REMARK UNBOUND:                -0.825
REMARK  Name = 
REMARK  6 active torsions:
REMARK  status: ('A' for Active; 'I' for Inactive)
REMARK    1  A    between atoms: C_1  and  C_2
REMARK    2  A    between atoms: C_4  and  C_5
REMARK    3  A    between atoms: C_5  and  O_6
REMARK    4  A    between atoms: O_6  and  C_7
REMARK    5  A    between atoms: C_10  and  C_11
REMARK    6  A    between atoms: C_17  and  C_18
REMARK                            x       y       z     vdW  Elec       q    Type
REMARK                         _______ _______ _______ _____ _____    ______ ____
ROOT
ATOM      1  C   UNL     1      48.270   8.117  11.721  0.00  0.00    +0.000 C 
ATOM      2  C   UNL     1      47.557   6.940  12.312  0.00  0.00    +0.000 A 
ATOM      3  C   UNL     1      46.527   6.293  11.634  0.00  0.00    +0.000 A 
ATOM      4  C   UNL     1      45.901   5.200  12.229  0.00  0.00    +0.000 A 
ATOM      5  N   UNL     1      46.263   4.734  13.456  0.00  0.00    +0.000 NA
ATOM      6  C   UNL     1      47.272   5.357  14.115  0.00  0.00    +0.000 A 
ATOM      7  C   UNL     1      47.929   6.460  13.569  0.00  0.00    +0.000 A 
ENDROOT
BRANCH   6   8
ATOM      8  C   UNL     1      47.644   4.797  15.429  0.00  0.00    +0.000 A 
ATOM      9  C   UNL     1      47.345   3.463  15.764  0.00  0.00    +0.000 A 
ATOM     10  C   UNL     1      47.720   2.920  16.999  0.00  0.00    +0.000 A 
ATOM     11  C   UNL     1      48.399   3.705  17.928  0.00  0.00    +0.000 A 
ATOM     12  C   UNL     1      48.695   5.027  17.620  0.00  0.00    +0.000 A 
ATOM     13 CL   UNL     1      49.534   6.008  18.759  0.00  0.00    +0.000 Cl
ATOM     14  C   UNL     1      48.323   5.569  16.390  0.00  0.00    +0.000 A 
ENDBRANCH   6   8
BRANCH   4  15
ATOM     15  C   UNL     1      44.764   4.496  11.515  0.00  0.00    +0.000 C 
BRANCH  15  16
ATOM     16  O   UNL     1      44.643   4.966  10.161  0.00  0.00    +0.000 OA
BRANCH  16  17
ATOM     17  C   UNL     1      45.336   4.170   9.269  0.00  0.00    +0.000 A 
ATOM     18  C   UNL     1      45.241   2.784   9.384  0.00  0.00    +0.000 A 
ATOM     19  N   UNL     1      45.882   1.918   8.544  0.00  0.00    +0.000 NA
ATOM     20  C   UNL     1      46.615   2.521   7.563  0.00  0.00    +0.000 A 
ATOM     21  C   UNL     1      46.710   3.901   7.453  0.00  0.00    +0.000 A 
ATOM     22  N   UNL     1      46.083   4.753   8.308  0.00  0.00    +0.000 NA
BRANCH  20  23
ATOM     23  C   UNL     1      47.325   1.664   6.569  0.00  0.00    +0.000 C 
ATOM     24  N   UNL     1      48.291   2.262   5.802  0.00  0.00    +0.000 N 
ATOM     25  O   UNL     1      47.065   0.473   6.442  0.00  0.00    +0.000 OA
ATOM     26  H   UNL     1      48.520   3.242   5.916  0.00  0.00    +0.000 HD
ATOM     27  H   UNL     1      48.800   1.702   5.137  0.00  0.00    +0.000 HD
ENDBRANCH  20  23
ENDBRANCH  16  17
ENDBRANCH  15  16
ENDBRANCH   4  15
TORSDOF 5
ENDMDL
MODEL 5
REMARK VINA RESULT:    -7.251      2.570      3.692
REMARK INTER + INTRA:         -10.195
REMARK INTER:                  -9.476
REMARK INTRA:                  -0.718
REMARK UNBOUND:                -0.825
REMARK  Name = 
REMARK  6 active torsions:
REMARK  status: ('A' for Active; 'I' for Inactive)
REMARK    1  A    between atoms: C_1  and  C_2
REMARK    2  A    between atoms: C_4  and  C_5
REMARK    3  A    between atoms: C_5  and  O_6
REMARK    4  A    between atoms: O_6  and  C_7
REMARK    5  A    between atoms: C_10  and  C_11
REMARK    6  A    between atoms: C_17  and  C_18
REMARK                            x       y       z     vdW  Elec       q    Type
REMARK                         _______ _______ _______ _____ _____    ______ ____
ROOT
ATOM      1  C   UNL     1      44.523   9.431  11.372  0.00  0.00    +0.000 C 
ATOM      2  C   UNL     1      45.150   8.150  11.835  0.00  0.00    +0.000 A 
ATOM      3  C   UNL     1      44.661   6.911  11.430  0.00  0.00    +0.000 A 
ATOM      4  C   UNL     1      45.284   5.752  11.887  0.00  0.00    +0.000 A 
ATOM      5  N   UNL     1      46.363   5.785  12.716  0.00  0.00    +0.000 NA
ATOM      6  C   UNL     1      46.845   6.992  13.105  0.00  0.00    +0.000 A 
ATOM      7  C   UNL     1      46.257   8.183  12.684  0.00  0.00    +0.000 A 
ENDROOT
BRANCH   6   8
ATOM      8  C   UNL     1      48.032   6.973  13.983  0.00  0.00    +0.000 A 
ATOM      9  C   UNL     1      49.186   7.713  13.665  0.00  0.00    +0.000 A 
ATOM     10  C   UNL     1      50.304   7.718  14.508  0.00  0.00    +0.000 A 
ATOM     11  C   UNL     1      50.291   6.978  15.688  0.00  0.00    +0.000 A 
ATOM     12  C   UNL     1      49.165   6.234  16.015  0.00  0.00    +0.000 A 
ATOM     13 CL   UNL     1      49.135   5.314  17.471  0.00  0.00    +0.000 Cl
ATOM     14  C   UNL     1      48.050   6.228  15.177  0.00  0.00    +0.000 A 
ENDBRANCH   6   8
BRANCH   4  15
ATOM     15  C   UNL     1      44.755   4.392  11.473  0.00  0.00    +0.000 C 
BRANCH  15  16
ATOM     16  O   UNL     1      44.226   4.437  10.136  0.00  0.00    +0.000 OA
BRANCH  16  17
ATOM     17  C   UNL     1      45.043   3.789   9.231  0.00  0.00    +0.000 A 
ATOM     18  C   UNL     1      45.147   2.399   9.285  0.00  0.00    +0.000 A 
ATOM     19  N   UNL     1      45.922   1.672   8.427  0.00  0.00    +0.000 NA
ATOM     20  C   UNL     1      46.581   2.417   7.492  0.00  0.00    +0.000 A 
ATOM     21  C   UNL     1      46.478   3.800   7.442  0.00  0.00    +0.000 A 
ATOM     22  N   UNL     1      45.718   4.515   8.314  0.00  0.00    +0.000 NA
BRANCH  20  23
ATOM     23  C   UNL     1      47.427   1.716   6.482  0.00  0.00    +0.000 C 
ATOM     24  N   UNL     1      48.453   2.429   5.919  0.00  0.00    +0.000 N 
ATOM     25  O   UNL     1      47.222   0.549   6.167  0.00  0.00    +0.000 OA
ATOM     26  H   UNL     1      48.636   3.388   6.189  0.00  0.00    +0.000 HD
ATOM     27  H   UNL     1      49.052   1.973   5.250  0.00  0.00    +0.000 HD
ENDBRANCH  20  23
ENDBRANCH  16  17
ENDBRANCH  15  16
ENDBRANCH   4  15
TORSDOF 5
ENDMDL
MODEL 6
REMARK VINA RESULT:    -6.902      5.148      7.833
REMARK INTER + INTRA:          -9.745
REMARK INTER:                  -8.977
REMARK INTRA:                  -0.767
REMARK UNBOUND:                -0.825
REMARK  Name = 
REMARK  6 active torsions:
REMARK  status: ('A' for Active; 'I' for Inactive)
REMARK    1  A    between atoms: C_1  and  C_2
REMARK    2  A    between atoms: C_4  and  C_5
REMARK    3  A    between atoms: C_5  and  O_6
REMARK    4  A    between atoms: O_6  and  C_7
REMARK    5  A    between atoms: C_10  and  C_11
REMARK    6  A    between atoms: C_17  and  C_18
REMARK                            x       y       z     vdW  Elec       q    Type
REMARK                         _______ _______ _______ _____ _____    ______ ____
ROOT
ATOM      1  C   UNL     1      49.716   8.314  11.564  0.00  0.00    +0.000 C 
ATOM      2  C   UNL     1      48.870   7.489  12.486  0.00  0.00    +0.000 A 
ATOM      3  C   UNL     1      49.182   7.354  13.837  0.00  0.00    +0.000 A 
ATOM      4  C   UNL     1      48.358   6.578  14.650  0.00  0.00    +0.000 A 
ATOM      5  N   UNL     1      47.252   5.946  14.173  0.00  0.00    +0.000 NA
ATOM      6  C   UNL     1      46.942   6.083  12.859  0.00  0.00    +0.000 A 
ATOM      7  C   UNL     1      47.734   6.842  11.998  0.00  0.00    +0.000 A 
ENDROOT
BRANCH   6   8
ATOM      8  C   UNL     1      45.717   5.401  12.397  0.00  0.00    +0.000 A 
ATOM      9  C   UNL     1      44.710   5.018  13.302  0.00  0.00    +0.000 A 
ATOM     10  C   UNL     1      43.536   4.394  12.864  0.00  0.00    +0.000 A 
ATOM     11  C   UNL     1      43.347   4.135  11.509  0.00  0.00    +0.000 A 
ATOM     12  C   UNL     1      44.334   4.496  10.600  0.00  0.00    +0.000 A 
ATOM     13 CL   UNL     1      44.115   4.182   8.921  0.00  0.00    +0.000 Cl
ATOM     14  C   UNL     1      45.505   5.119  11.034  0.00  0.00    +0.000 A 
ENDBRANCH   6   8
BRANCH   4  15
ATOM     15  C   UNL     1      48.692   6.403  16.119  0.00  0.00    +0.000 C 
BRANCH  15  16
ATOM     16  O   UNL     1      48.121   5.185  16.630  0.00  0.00    +0.000 OA
BRANCH  16  17
ATOM     17  C   UNL     1      49.080   4.216  16.855  0.00  0.00    +0.000 A 
ATOM     18  C   UNL     1      50.288   4.582  17.447  0.00  0.00    +0.000 A 
ATOM     19  N   UNL     1      51.290   3.693  17.717  0.00  0.00    +0.000 NA
ATOM     20  C   UNL     1      51.006   2.403  17.374  0.00  0.00    +0.000 A 
ATOM     21  C   UNL     1      49.805   2.041  16.783  0.00  0.00    +0.000 A 
ATOM     22  N   UNL     1      48.823   2.939  16.501  0.00  0.00    +0.000 NA
BRANCH  20  23
ATOM     23  C   UNL     1      52.021   1.346  17.662  0.00  0.00    +0.000 C 
ATOM     24  N   UNL     1      51.563   0.164  18.183  0.00  0.00    +0.000 N 
ATOM     25  O   UNL     1      53.213   1.519  17.439  0.00  0.00    +0.000 OA
ATOM     26  H   UNL     1      50.577   0.011  18.352  0.00  0.00    +0.000 HD
ATOM     27  H   UNL     1      52.224  -0.574  18.367  0.00  0.00    +0.000 HD
ENDBRANCH  20  23
ENDBRANCH  16  17
ENDBRANCH  15  16
ENDBRANCH   4  15
TORSDOF 5
ENDMDL
MODEL 7
REMARK VINA RESULT:    -6.854      5.389      8.259
REMARK INTER + INTRA:          -9.682
REMARK INTER:                  -9.008
REMARK INTRA:                  -0.674
REMARK UNBOUND:                -0.825
REMARK  Name = 
REMARK  6 active torsions:
REMARK  status: ('A' for Active; 'I' for Inactive)
REMARK    1  A    between atoms: C_1  and  C_2
REMARK    2  A    between atoms: C_4  and  C_5
REMARK    3  A    between atoms: C_5  and  O_6
REMARK    4  A    between atoms: O_6  and  C_7
REMARK    5  A    between atoms: C_10  and  C_11
REMARK    6  A    between atoms: C_17  and  C_18
REMARK                            x       y       z     vdW  Elec       q    Type
REMARK                         _______ _______ _______ _____ _____    ______ ____
ROOT
ATOM      1  C   UNL     1      49.839   7.813  17.566  0.00  0.00    +0.000 C 
ATOM      2  C   UNL     1      49.658   6.346  17.322  0.00  0.00    +0.000 A 
ATOM      3  C   UNL     1      48.497   5.840  16.741  0.00  0.00    +0.000 A 
ATOM      4  C   UNL     1      48.383   4.467  16.534  0.00  0.00    +0.000 A 
ATOM      5  N   UNL     1      49.371   3.596  16.877  0.00  0.00    +0.000 NA
ATOM      6  C   UNL     1      50.505   4.087  17.436  0.00  0.00    +0.000 A 
ATOM      7  C   UNL     1      50.670   5.451  17.672  0.00  0.00    +0.000 A 
ENDROOT
BRANCH   6   8
ATOM      8  C   UNL     1      51.556   3.104  17.764  0.00  0.00    +0.000 A 
ATOM      9  C   UNL     1      51.461   1.766  17.339  0.00  0.00    +0.000 A 
ATOM     10  C   UNL     1      52.468   0.836  17.626  0.00  0.00    +0.000 A 
ATOM     11  C   UNL     1      53.592   1.228  18.351  0.00  0.00    +0.000 A 
ATOM     12  C   UNL     1      53.699   2.542  18.789  0.00  0.00    +0.000 A 
ATOM     13 CL   UNL     1      55.082   3.039  19.685  0.00  0.00    +0.000 Cl
ATOM     14  C   UNL     1      52.698   3.469  18.502  0.00  0.00    +0.000 A 
ENDBRANCH   6   8
BRANCH   4  15
ATOM     15  C   UNL     1      47.120   3.896  15.920  0.00  0.00    +0.000 C 
BRANCH  15  16
ATOM     16  O   UNL     1      47.364   3.447  14.575  0.00  0.00    +0.000 OA
BRANCH  16  17
ATOM     17  C   UNL     1      46.430   3.940  13.685  0.00  0.00    +0.000 A 
ATOM     18  C   UNL     1      46.225   5.318  13.610  0.00  0.00    +0.000 A 
ATOM     19  N   UNL     1      45.332   5.897  12.755  0.00  0.00    +0.000 NA
ATOM     20  C   UNL     1      44.660   5.015  11.959  0.00  0.00    +0.000 A 
ATOM     21  C   UNL     1      44.863   3.645  12.036  0.00  0.00    +0.000 A 
ATOM     22  N   UNL     1      45.742   3.078  12.906  0.00  0.00    +0.000 NA
BRANCH  20  23
ATOM     23  C   UNL     1      43.686   5.549  10.961  0.00  0.00    +0.000 C 
ATOM     24  N   UNL     1      43.141   6.781  11.215  0.00  0.00    +0.000 N 
ATOM     25  O   UNL     1      43.386   4.920   9.954  0.00  0.00    +0.000 OA
ATOM     26  H   UNL     1      43.400   7.311  12.038  0.00  0.00    +0.000 HD
ATOM     27  H   UNL     1      42.496   7.173  10.548  0.00  0.00    +0.000 HD
ENDBRANCH  20  23
ENDBRANCH  16  17
ENDBRANCH  15  16
ENDBRANCH   4  15
TORSDOF 5
ENDMDL
MODEL 8
REMARK VINA RESULT:    -6.818      4.469      8.210
REMARK INTER + INTRA:          -9.636
REMARK INTER:                  -8.905
REMARK INTRA:                  -0.731
REMARK UNBOUND:                -0.825
REMARK  Name = 
REMARK  6 active torsions:
REMARK  status: ('A' for Active; 'I' for Inactive)
REMARK    1  A    between atoms: C_1  and  C_2
REMARK    2  A    between atoms: C_4  and  C_5
REMARK    3  A    between atoms: C_5  and  O_6
REMARK    4  A    between atoms: O_6  and  C_7
REMARK    5  A    between atoms: C_10  and  C_11
REMARK    6  A    between atoms: C_17  and  C_18
REMARK                            x       y       z     vdW  Elec       q    Type
REMARK                         _______ _______ _______ _____ _____    ______ ____
ROOT
ATOM      1  C   UNL     1      44.386  10.205  11.819  0.00  0.00    +0.000 C 
ATOM      2  C   UNL     1      45.182   8.951  12.021  0.00  0.00    +0.000 A 
ATOM      3  C   UNL     1      46.296   8.920  12.857  0.00  0.00    +0.000 A 
ATOM      4  C   UNL     1      46.997   7.726  13.011  0.00  0.00    +0.000 A 
ATOM      5  N   UNL     1      46.629   6.580  12.376  0.00  0.00    +0.000 NA
ATOM      6  C   UNL     1      45.540   6.606  11.568  0.00  0.00    +0.000 A 
ATOM      7  C   UNL     1      44.805   7.775  11.372  0.00  0.00    +0.000 A 
ENDROOT
BRANCH   6   8
ATOM      8  C   UNL     1      45.168   5.331  10.924  0.00  0.00    +0.000 A 
ATOM      9  C   UNL     1      44.405   4.365  11.605  0.00  0.00    +0.000 A 
ATOM     10  C   UNL     1      44.029   3.166  10.989  0.00  0.00    +0.000 A 
ATOM     11  C   UNL     1      44.413   2.907   9.675  0.00  0.00    +0.000 A 
ATOM     12  C   UNL     1      45.175   3.843   8.988  0.00  0.00    +0.000 A 
ATOM     13 CL   UNL     1      45.656   3.537   7.364  0.00  0.00    +0.000 Cl
ATOM     14  C   UNL     1      45.550   5.039   9.600  0.00  0.00    +0.000 A 
ENDBRANCH   6   8
BRANCH   4  15
ATOM     15  C   UNL     1      48.223   7.677  13.901  0.00  0.00    +0.000 C 
BRANCH  15  16
ATOM     16  O   UNL     1      48.634   6.317  14.129  0.00  0.00    +0.000 OA
BRANCH  16  17
ATOM     17  C   UNL     1      48.521   5.955  15.458  0.00  0.00    +0.000 A 
ATOM     18  C   UNL     1      49.100   6.766  16.433  0.00  0.00    +0.000 A 
ATOM     19  N   UNL     1      49.032   6.495  17.770  0.00  0.00    +0.000 NA
ATOM     20  C   UNL     1      48.331   5.366  18.081  0.00  0.00    +0.000 A 
ATOM     21  C   UNL     1      47.758   4.558  17.109  0.00  0.00    +0.000 A 
ATOM     22  N   UNL     1      47.850   4.829  15.779  0.00  0.00    +0.000 NA
BRANCH  20  23
ATOM     23  C   UNL     1      48.166   4.998  19.519  0.00  0.00    +0.000 C 
ATOM     24  N   UNL     1      48.564   3.742  19.894  0.00  0.00    +0.000 N 
ATOM     25  O   UNL     1      47.700   5.784  20.335  0.00  0.00    +0.000 OA
ATOM     26  H   UNL     1      48.965   3.095  19.226  0.00  0.00    +0.000 HD
ATOM     27  H   UNL     1      48.482   3.475  20.863  0.00  0.00    +0.000 HD
ENDBRANCH  20  23
ENDBRANCH  16  17
ENDBRANCH  15  16
ENDBRANCH   4  15
TORSDOF 5
ENDMDL
MODEL 9
REMARK VINA RESULT:    -6.618      5.287      8.243
REMARK INTER + INTRA:          -9.377
REMARK INTER:                  -8.619
REMARK INTRA:                  -0.758
REMARK UNBOUND:                -0.825
REMARK  Name = 
REMARK  6 active torsions:
REMARK  status: ('A' for Active; 'I' for Inactive)
REMARK    1  A    between atoms: C_1  and  C_2
REMARK    2  A    between atoms: C_4  and  C_5
REMARK    3  A    between atoms: C_5  and  O_6
REMARK    4  A    between atoms: O_6  and  C_7
REMARK    5  A    between atoms: C_10  and  C_11
REMARK    6  A    between atoms: C_17  and  C_18
REMARK                            x       y       z     vdW  Elec       q    Type
REMARK                         _______ _______ _______ _____ _____    ______ ____
ROOT
ATOM      1  C   UNL     1      47.517   6.150  20.207  0.00  0.00    +0.000 C 
ATOM      2  C   UNL     1      48.252   5.781  18.955  0.00  0.00    +0.000 A 
ATOM      3  C   UNL     1      48.011   6.432  17.747  0.00  0.00    +0.000 A 
ATOM      4  C   UNL     1      48.726   6.050  16.614  0.00  0.00    +0.000 A 
ATOM      5  N   UNL     1      49.661   5.062  16.643  0.00  0.00    +0.000 NA
ATOM      6  C   UNL     1      49.903   4.432  17.821  0.00  0.00    +0.000 A 
ATOM      7  C   UNL     1      49.212   4.768  18.984  0.00  0.00    +0.000 A 
ENDROOT
BRANCH   6   8
ATOM      8  C   UNL     1      50.945   3.386  17.805  0.00  0.00    +0.000 A 
ATOM      9  C   UNL     1      50.654   2.073  17.392  0.00  0.00    +0.000 A 
ATOM     10  C   UNL     1      51.645   1.085  17.350  0.00  0.00    +0.000 A 
ATOM     11  C   UNL     1      52.951   1.391  17.727  0.00  0.00    +0.000 A 
ATOM     12  C   UNL     1      53.256   2.679  18.148  0.00  0.00    +0.000 A 
ATOM     13 CL   UNL     1      54.866   3.072  18.616  0.00  0.00    +0.000 Cl
ATOM     14  C   UNL     1      52.271   3.665  18.189  0.00  0.00    +0.000 A 
ENDBRANCH   6   8
BRANCH   4  15
ATOM     15  C   UNL     1      48.464   6.734  15.287  0.00  0.00    +0.000 C 
BRANCH  15  16
ATOM     16  O   UNL     1      48.517   5.787  14.205  0.00  0.00    +0.000 OA
BRANCH  16  17
ATOM     17  C   UNL     1      47.260   5.468  13.731  0.00  0.00    +0.000 A 
ATOM     18  C   UNL     1      46.864   4.131  13.705  0.00  0.00    +0.000 A 
ATOM     19  N   UNL     1      45.638   3.721  13.262  0.00  0.00    +0.000 NA
ATOM     20  C   UNL     1      44.817   4.734  12.858  0.00  0.00    +0.000 A 
ATOM     21  C   UNL     1      45.214   6.063  12.882  0.00  0.00    +0.000 A 
ATOM     22  N   UNL     1      46.444   6.457  13.307  0.00  0.00    +0.000 NA
BRANCH  20  23
ATOM     23  C   UNL     1      43.440   4.396  12.391  0.00  0.00    +0.000 C 
ATOM     24  N   UNL     1      43.185   3.084  12.089  0.00  0.00    +0.000 N 
ATOM     25  O   UNL     1      42.568   5.250  12.284  0.00  0.00    +0.000 OA
ATOM     26  H   UNL     1      43.898   2.372  12.192  0.00  0.00    +0.000 HD
ATOM     27  H   UNL     1      42.258   2.825  11.790  0.00  0.00    +0.000 HD
ENDBRANCH  20  23
ENDBRANCH  16  17
ENDBRANCH  15  16
ENDBRANCH   4  15
TORSDOF 5
ENDMDL
