MODEL 1
REMARK VINA RESULT:    -7.264      0.000      0.000
REMARK INTER + INTRA:         -11.144
REMARK INTER:                  -9.812
REMARK INTRA:                  -1.332
REMARK UNBOUND:                -1.332
REMARK  Name = 
REMARK  7 active torsions:
REMARK  status: ('A' for Active; 'I' for Inactive)
REMARK    1  A    between atoms: C_1  and  N_2
REMARK    2  A    between atoms: N_2  and  C_3
REMARK    3  A    between atoms: C_3  and  C_4
REMARK    4  A    between atoms: C_8  and  O_9
REMARK    5  A    between atoms: O_9  and  C_10
REMARK    6  A    between atoms: C_10  and  C_11
REMARK    7  A    between atoms: C_18  and  C_20
REMARK                            x       y       z     vdW  Elec       q    Type
REMARK                         _______ _______ _______ _____ _____    ______ ____
ROOT
ATOM      1  C   UNL     1      47.800   6.193  14.101  0.00  0.00    +0.000 C 
ATOM      2  N   UNL     1      47.180   7.075  13.116  0.00  0.00    +0.000 N 
ATOM      3  C   UNL     1      47.068   8.424  13.495  0.00  0.00    +0.000 C 
ATOM      4  O   UNL     1      47.457   8.808  14.596  0.00  0.00    +0.000 OA
ENDROOT
BRANCH   3   5
ATOM      5  C   UNL     1      46.446   9.385  12.574  0.00  0.00    +0.000 A 
ATOM      6  C   UNL     1      45.091   9.672  12.535  0.00  0.00    +0.000 A 
ATOM      7  S   UNL     1      44.681  10.882  11.404  0.00  0.00    +0.000 S 
ATOM      8  C   UNL     1      46.319  11.165  11.039  0.00  0.00    +0.000 A 
ATOM      9  N   UNL     1      46.682  12.174  10.203  0.00  0.00    +0.000 NA
ATOM     10  C   UNL     1      47.960  12.318  10.077  0.00  0.00    +0.000 A 
ATOM     11  N   UNL     1      48.900  11.521  10.677  0.00  0.00    +0.000 N 
ATOM     12  C   UNL     1      48.575  10.399  11.412  0.00  0.00    +0.000 A 
ATOM     13  O   UNL     1      49.428   9.573  11.715  0.00  0.00    +0.000 OA
ATOM     14  C   UNL     1      47.156  10.279  11.691  0.00  0.00    +0.000 A 
ATOM     15  H   UNL     1      49.882  11.646  10.476  0.00  0.00    +0.000 HD
ENDBRANCH   3   5
BRANCH   2  16
ATOM     16  C   UNL     1      46.887   6.582  11.763  0.00  0.00    +0.000 C 
BRANCH  16  17
ATOM     17  C   UNL     1      45.601   5.824  11.582  0.00  0.00    +0.000 A 
ATOM     18  C   UNL     1      44.551   5.920  12.504  0.00  0.00    +0.000 A 
ATOM     19  C   UNL     1      43.393   5.160  12.330  0.00  0.00    +0.000 A 
ATOM     20  C   UNL     1      43.289   4.287  11.247  0.00  0.00    +0.000 A 
ATOM     21  C   UNL     1      44.340   4.171  10.337  0.00  0.00    +0.000 A 
ATOM     22  C   UNL     1      45.473   4.968  10.486  0.00  0.00    +0.000 A 
BRANCH  21  23
ATOM     23  O   UNL     1      44.187   3.240   9.346  0.00  0.00    +0.000 OA
BRANCH  23  24
ATOM     24  C   UNL     1      44.605   3.686   8.054  0.00  0.00    +0.000 C 
BRANCH  24  25
ATOM     25  C   UNL     1      45.781   2.869   7.608  0.00  0.00    +0.000 A 
ATOM     26  C   UNL     1      46.689   3.378   6.677  0.00  0.00    +0.000 A 
ATOM     27  C   UNL     1      47.764   2.586   6.308  0.00  0.00    +0.000 A 
ATOM     28  N   UNL     1      47.987   1.347   6.796  0.00  0.00    +0.000 NA
ATOM     29  C   UNL     1      47.091   0.874   7.688  0.00  0.00    +0.000 A 
ATOM     30  C   UNL     1      45.987   1.586   8.123  0.00  0.00    +0.000 A 
ENDBRANCH  24  25
ENDBRANCH  23  24
ENDBRANCH  21  23
ENDBRANCH  16  17
ENDBRANCH   2  16
TORSDOF 6
ENDMDL
MODEL 2
REMARK VINA RESULT:    -7.076      3.580      7.806
REMARK INTER + INTRA:         -10.891
REMARK INTER:                  -9.826
REMARK INTRA:                  -1.064
REMARK UNBOUND:                -1.332
REMARK  Name = 
REMARK  7 active torsions:
REMARK  status: ('A' for Active; 'I' for Inactive)
REMARK    1  A    between atoms: C_1  and  N_2
REMARK    2  A    between atoms: N_2  and  C_3
REMARK    3  A    between atoms: C_3  and  C_4
REMARK    4  A    between atoms: C_8  and  O_9
REMARK    5  A    between atoms: O_9  and  C_10
REMARK    6  A    between atoms: C_10  and  C_11
REMARK    7  A    between atoms: C_18  and  C_20
REMARK                            x       y       z     vdW  Elec       q    Type
REMARK                         _______ _______ _______ _____ _____    ______ ____
ROOT
ATOM      1  C   UNL     1      46.268   8.477  12.562  0.00  0.00    +0.000 C 
ATOM      2  N   UNL     1      46.051   7.038  12.440  0.00  0.00    +0.000 N 
ATOM      3  C   UNL     1      44.859   6.655  11.801  0.00  0.00    +0.000 C 
ATOM      4  O   UNL     1      44.059   7.495  11.396  0.00  0.00    +0.000 OA
ENDROOT
BRANCH   3   5
ATOM      5  C   UNL     1      44.550   5.228  11.643  0.00  0.00    +0.000 A 
ATOM      6  C   UNL     1      43.824   4.475  12.553  0.00  0.00    +0.000 A 
ATOM      7  S   UNL     1      43.571   2.863  12.058  0.00  0.00    +0.000 S 
ATOM      8  C   UNL     1      44.291   3.161  10.546  0.00  0.00    +0.000 A 
ATOM      9  N   UNL     1      44.304   2.205   9.579  0.00  0.00    +0.000 NA
ATOM     10  C   UNL     1      44.817   2.596   8.459  0.00  0.00    +0.000 A 
ATOM     11  N   UNL     1      45.353   3.838   8.235  0.00  0.00    +0.000 N 
ATOM     12  C   UNL     1      45.495   4.785   9.230  0.00  0.00    +0.000 A 
ATOM     13  O   UNL     1      46.200   5.773   9.065  0.00  0.00    +0.000 OA
ATOM     14  C   UNL     1      44.811   4.439  10.462  0.00  0.00    +0.000 A 
ATOM     15  H   UNL     1      45.804   4.051   7.358  0.00  0.00    +0.000 HD
ENDBRANCH   3   5
BRANCH   2  16
ATOM     16  C   UNL     1      47.122   6.097  12.800  0.00  0.00    +0.000 C 
BRANCH  16  17
ATOM     17  C   UNL     1      48.214   6.621  13.691  0.00  0.00    +0.000 A 
ATOM     18  C   UNL     1      49.359   7.240  13.170  0.00  0.00    +0.000 A 
ATOM     19  C   UNL     1      50.376   7.666  14.025  0.00  0.00    +0.000 A 
ATOM     20  C   UNL     1      50.263   7.456  15.400  0.00  0.00    +0.000 A 
ATOM     21  C   UNL     1      49.136   6.822  15.922  0.00  0.00    +0.000 A 
ATOM     22  C   UNL     1      48.100   6.443  15.070  0.00  0.00    +0.000 A 
BRANCH  21  23
ATOM     23  O   UNL     1      49.139   6.591  17.270  0.00  0.00    +0.000 OA
BRANCH  23  24
ATOM     24  C   UNL     1      48.313   5.497  17.678  0.00  0.00    +0.000 C 
BRANCH  24  25
ATOM     25  C   UNL     1      49.021   4.208  17.383  0.00  0.00    +0.000 A 
ATOM     26  C   UNL     1      48.356   3.161  16.743  0.00  0.00    +0.000 A 
ATOM     27  C   UNL     1      49.060   1.996  16.485  0.00  0.00    +0.000 A 
ATOM     28  N   UNL     1      50.356   1.813  16.816  0.00  0.00    +0.000 NA
ATOM     29  C   UNL     1      50.975   2.836  17.442  0.00  0.00    +0.000 A 
ATOM     30  C   UNL     1      50.361   4.040  17.743  0.00  0.00    +0.000 A 
ENDBRANCH  24  25
ENDBRANCH  23  24
ENDBRANCH  21  23
ENDBRANCH  16  17
ENDBRANCH   2  16
TORSDOF 6
ENDMDL
MODEL 3
REMARK VINA RESULT:    -6.707      2.512      3.577
REMARK INTER + INTRA:         -10.392
REMARK INTER:                  -9.185
REMARK INTRA:                  -1.206
REMARK UNBOUND:                -1.332
REMARK  Name = 
REMARK  7 active torsions:
REMARK  status: ('A' for Active; 'I' for Inactive)
REMARK    1  A    between atoms: C_1  and  N_2
REMARK    2  A    between atoms: N_2  and  C_3
REMARK    3  A    between atoms: C_3  and  C_4
REMARK    4  A    between atoms: C_8  and  O_9
REMARK    5  A    between atoms: O_9  and  C_10
REMARK    6  A    between atoms: C_10  and  C_11
REMARK    7  A    between atoms: C_18  and  C_20
REMARK                            x       y       z     vdW  Elec       q    Type
REMARK                         _______ _______ _______ _____ _____    ______ ____
ROOT
ATOM      1  C   UNL     1      45.118   8.806  12.574  0.00  0.00    +0.000 C 
ATOM      2  N   UNL     1      46.488   8.299  12.568  0.00  0.00    +0.000 N 
ATOM      3  C   UNL     1      47.496   9.274  12.459  0.00  0.00    +0.000 C 
ATOM      4  O   UNL     1      47.216  10.466  12.357  0.00  0.00    +0.000 OA
ENDROOT
BRANCH   3   5
ATOM      5  C   UNL     1      48.904   8.858  12.433  0.00  0.00    +0.000 A 
ATOM      6  C   UNL     1      49.644   8.661  11.278  0.00  0.00    +0.000 A 
ATOM      7  S   UNL     1      51.272   8.247  11.572  0.00  0.00    +0.000 S 
ATOM      8  C   UNL     1      51.077   8.466  13.248  0.00  0.00    +0.000 A 
ATOM      9  N   UNL     1      52.139   8.372  14.092  0.00  0.00    +0.000 NA
ATOM     10  C   UNL     1      51.856   8.634  15.325  0.00  0.00    +0.000 A 
ATOM     11  N   UNL     1      50.604   8.941  15.792  0.00  0.00    +0.000 N 
ATOM     12  C   UNL     1      49.476   8.902  14.998  0.00  0.00    +0.000 A 
ATOM     13  O   UNL     1      48.355   8.927  15.492  0.00  0.00    +0.000 OA
ATOM     14  C   UNL     1      49.766   8.746  13.584  0.00  0.00    +0.000 A 
ATOM     15  H   UNL     1      50.442   9.063  16.781  0.00  0.00    +0.000 HD
ENDBRANCH   3   5
BRANCH   2  16
ATOM     16  C   UNL     1      46.753   6.882  12.855  0.00  0.00    +0.000 C 
BRANCH  16  17
ATOM     17  C   UNL     1      45.768   5.884  12.311  0.00  0.00    +0.000 A 
ATOM     18  C   UNL     1      44.960   5.109  13.154  0.00  0.00    +0.000 A 
ATOM     19  C   UNL     1      44.096   4.156  12.614  0.00  0.00    +0.000 A 
ATOM     20  C   UNL     1      44.051   3.959  11.233  0.00  0.00    +0.000 A 
ATOM     21  C   UNL     1      44.869   4.712  10.391  0.00  0.00    +0.000 A 
ATOM     22  C   UNL     1      45.693   5.698  10.930  0.00  0.00    +0.000 A 
BRANCH  21  23
ATOM     23  O   UNL     1      44.816   4.405   9.059  0.00  0.00    +0.000 OA
BRANCH  23  24
ATOM     24  C   UNL     1      44.630   3.013   8.786  0.00  0.00    +0.000 C 
BRANCH  24  25
ATOM     25  C   UNL     1      45.831   2.490   8.057  0.00  0.00    +0.000 A 
ATOM     26  C   UNL     1      46.154   1.132   8.099  0.00  0.00    +0.000 A 
ATOM     27  C   UNL     1      47.267   0.700   7.399  0.00  0.00    +0.000 A 
ATOM     28  N   UNL     1      48.063   1.516   6.675  0.00  0.00    +0.000 NA
ATOM     29  C   UNL     1      47.736   2.825   6.656  0.00  0.00    +0.000 A 
ATOM     30  C   UNL     1      46.643   3.356   7.320  0.00  0.00    +0.000 A 
ENDBRANCH  24  25
ENDBRANCH  23  24
ENDBRANCH  21  23
ENDBRANCH  16  17
ENDBRANCH   2  16
TORSDOF 6
ENDMDL
MODEL 4
REMARK VINA RESULT:    -6.608      4.468      7.437
REMARK INTER + INTRA:         -10.258
REMARK INTER:                  -8.882
REMARK INTRA:                  -1.376
REMARK UNBOUND:                -1.332
REMARK  Name = 
REMARK  7 active torsions:
REMARK  status: ('A' for Active; 'I' for Inactive)
REMARK    1  A    between atoms: C_1  and  N_2
REMARK    2  A    between atoms: N_2  and  C_3
REMARK    3  A    between atoms: C_3  and  C_4
REMARK    4  A    between atoms: C_8  and  O_9
REMARK    5  A    between atoms: O_9  and  C_10
REMARK    6  A    between atoms: C_10  and  C_11
REMARK    7  A    between atoms: C_18  and  C_20
REMARK                            x       y       z     vdW  Elec       q    Type
REMARK                         _______ _______ _______ _____ _____    ______ ____
ROOT
ATOM      1  C   UNL     1      48.962   8.513  17.317  0.00  0.00    +0.000 C 
ATOM      2  N   UNL     1      49.168   7.121  16.925  0.00  0.00    +0.000 N 
ATOM      3  C   UNL     1      48.456   6.168  17.675  0.00  0.00    +0.000 C 
ATOM      4  O   UNL     1      47.731   6.507  18.607  0.00  0.00    +0.000 OA
ENDROOT
BRANCH   3   5
ATOM      5  C   UNL     1      48.609   4.741  17.361  0.00  0.00    +0.000 A 
ATOM      6  C   UNL     1      47.722   4.007  16.589  0.00  0.00    +0.000 A 
ATOM      7  S   UNL     1      48.206   2.390  16.346  0.00  0.00    +0.000 S 
ATOM      8  C   UNL     1      49.688   2.661  17.136  0.00  0.00    +0.000 A 
ATOM      9  N   UNL     1      50.640   1.692  17.185  0.00  0.00    +0.000 NA
ATOM     10  C   UNL     1      51.740   2.063  17.751  0.00  0.00    +0.000 A 
ATOM     11  N   UNL     1      51.957   3.298  18.307  0.00  0.00    +0.000 N 
ATOM     12  C   UNL     1      50.970   4.257  18.411  0.00  0.00    +0.000 A 
ATOM     13  O   UNL     1      51.116   5.238  19.131  0.00  0.00    +0.000 OA
ATOM     14  C   UNL     1      49.765   3.934  17.669  0.00  0.00    +0.000 A 
ATOM     15  H   UNL     1      52.816   3.495  18.798  0.00  0.00    +0.000 HD
ENDBRANCH   3   5
BRANCH   2  16
ATOM     16  C   UNL     1      49.919   6.801  15.703  0.00  0.00    +0.000 C 
BRANCH  16  17
ATOM     17  C   UNL     1      49.282   7.182  14.395  0.00  0.00    +0.000 A 
ATOM     18  C   UNL     1      49.896   8.076  13.507  0.00  0.00    +0.000 A 
ATOM     19  C   UNL     1      49.250   8.447  12.328  0.00  0.00    +0.000 A 
ATOM     20  C   UNL     1      47.980   7.945  12.041  0.00  0.00    +0.000 A 
ATOM     21  C   UNL     1      47.354   7.072  12.932  0.00  0.00    +0.000 A 
ATOM     22  C   UNL     1      48.024   6.664  14.084  0.00  0.00    +0.000 A 
BRANCH  21  23
ATOM     23  O   UNL     1      46.082   6.685  12.611  0.00  0.00    +0.000 OA
BRANCH  23  24
ATOM     24  C   UNL     1      45.946   6.165  11.285  0.00  0.00    +0.000 C 
BRANCH  24  25
ATOM     25  C   UNL     1      45.039   4.971  11.317  0.00  0.00    +0.000 A 
ATOM     26  C   UNL     1      44.334   4.642  12.477  0.00  0.00    +0.000 A 
ATOM     27  C   UNL     1      43.502   3.535  12.448  0.00  0.00    +0.000 A 
ATOM     28  N   UNL     1      43.331   2.752  11.362  0.00  0.00    +0.000 NA
ATOM     29  C   UNL     1      44.030   3.084  10.256  0.00  0.00    +0.000 A 
ATOM     30  C   UNL     1      44.885   4.171  10.181  0.00  0.00    +0.000 A 
ENDBRANCH  24  25
ENDBRANCH  23  24
ENDBRANCH  21  23
ENDBRANCH  16  17
ENDBRANCH   2  16
TORSDOF 6
ENDMDL
MODEL 5
REMARK VINA RESULT:    -6.537      3.165      5.075
REMARK INTER + INTRA:         -10.162
REMARK INTER:                  -8.730
REMARK INTRA:                  -1.432
REMARK UNBOUND:                -1.332
REMARK  Name = 
REMARK  7 active torsions:
REMARK  status: ('A' for Active; 'I' for Inactive)
REMARK    1  A    between atoms: C_1  and  N_2
REMARK    2  A    between atoms: N_2  and  C_3
REMARK    3  A    between atoms: C_3  and  C_4
REMARK    4  A    between atoms: C_8  and  O_9
REMARK    5  A    between atoms: O_9  and  C_10
REMARK    6  A    between atoms: C_10  and  C_11
REMARK    7  A    between atoms: C_18  and  C_20
REMARK                            x       y       z     vdW  Elec       q    Type
REMARK                         _______ _______ _______ _____ _____    ______ ____
ROOT
ATOM      1  C   UNL     1      49.597   7.280  12.223  0.00  0.00    +0.000 C 
ATOM      2  N   UNL     1      48.904   7.558  13.479  0.00  0.00    +0.000 N 
ATOM      3  C   UNL     1      49.704   8.078  14.512  0.00  0.00    +0.000 C 
ATOM      4  O   UNL     1      50.909   8.259  14.350  0.00  0.00    +0.000 OA
ENDROOT
BRANCH   3   5
ATOM      5  C   UNL     1      49.098   8.378  15.815  0.00  0.00    +0.000 A 
ATOM      6  C   UNL     1      48.518   9.591  16.152  0.00  0.00    +0.000 A 
ATOM      7  S   UNL     1      47.838   9.611  17.716  0.00  0.00    +0.000 S 
ATOM      8  C   UNL     1      48.163   7.956  17.934  0.00  0.00    +0.000 A 
ATOM      9  N   UNL     1      47.730   7.300  19.044  0.00  0.00    +0.000 NA
ATOM     10  C   UNL     1      47.984   6.033  19.040  0.00  0.00    +0.000 A 
ATOM     11  N   UNL     1      48.665   5.375  18.048  0.00  0.00    +0.000 N 
ATOM     12  C   UNL     1      49.249   6.026  16.979  0.00  0.00    +0.000 A 
ATOM     13  O   UNL     1      50.057   5.454  16.258  0.00  0.00    +0.000 OA
ATOM     14  C   UNL     1      48.873   7.424  16.874  0.00  0.00    +0.000 A 
ATOM     15  H   UNL     1      48.892   4.397  18.144  0.00  0.00    +0.000 HD
ENDBRANCH   3   5
BRANCH   2  16
ATOM     16  C   UNL     1      47.439   7.470  13.550  0.00  0.00    +0.000 C 
BRANCH  16  17
ATOM     17  C   UNL     1      46.833   6.104  13.385  0.00  0.00    +0.000 A 
ATOM     18  C   UNL     1      47.414   4.964  13.958  0.00  0.00    +0.000 A 
ATOM     19  C   UNL     1      46.853   3.706  13.739  0.00  0.00    +0.000 A 
ATOM     20  C   UNL     1      45.723   3.578  12.931  0.00  0.00    +0.000 A 
ATOM     21  C   UNL     1      45.152   4.706  12.340  0.00  0.00    +0.000 A 
ATOM     22  C   UNL     1      45.686   5.966  12.602  0.00  0.00    +0.000 A 
BRANCH  21  23
ATOM     23  O   UNL     1      44.092   4.484  11.505  0.00  0.00    +0.000 OA
BRANCH  23  24
ATOM     24  C   UNL     1      44.262   5.019  10.189  0.00  0.00    +0.000 C 
BRANCH  24  25
ATOM     25  C   UNL     1      44.975   4.012   9.337  0.00  0.00    +0.000 A 
ATOM     26  C   UNL     1      44.778   2.644   9.537  0.00  0.00    +0.000 A 
ATOM     27  C   UNL     1      45.452   1.756   8.715  0.00  0.00    +0.000 A 
ATOM     28  N   UNL     1      46.292   2.136   7.728  0.00  0.00    +0.000 NA
ATOM     29  C   UNL     1      46.473   3.463   7.560  0.00  0.00    +0.000 A 
ATOM     30  C   UNL     1      45.845   4.430   8.326  0.00  0.00    +0.000 A 
ENDBRANCH  24  25
ENDBRANCH  23  24
ENDBRANCH  21  23
ENDBRANCH  16  17
ENDBRANCH   2  16
TORSDOF 6
ENDMDL
MODEL 6
REMARK VINA RESULT:    -6.513      4.535      7.132
REMARK INTER + INTRA:         -10.130
REMARK INTER:                  -9.665
REMARK INTRA:                  -0.465
REMARK UNBOUND:                -1.332
REMARK  Name = 
REMARK  7 active torsions:
REMARK  status: ('A' for Active; 'I' for Inactive)
REMARK    1  A    between atoms: C_1  and  N_2
REMARK    2  A    between atoms: N_2  and  C_3
REMARK    3  A    between atoms: C_3  and  C_4
REMARK    4  A    between atoms: C_8  and  O_9
REMARK    5  A    between atoms: O_9  and  C_10
REMARK    6  A    between atoms: C_10  and  C_11
REMARK    7  A    between atoms: C_18  and  C_20
REMARK                            x       y       z     vdW  Elec       q    Type
REMARK                         _______ _______ _______ _____ _____    ______ ____
ROOT
ATOM      1  C   UNL     1      46.863   3.930  14.546  0.00  0.00    +0.000 C 
ATOM      2  N   UNL     1      47.411   4.740  15.630  0.00  0.00    +0.000 N 
ATOM      3  C   UNL     1      47.241   4.217  16.925  0.00  0.00    +0.000 C 
ATOM      4  O   UNL     1      46.650   3.155  17.107  0.00  0.00    +0.000 OA
ENDROOT
BRANCH   3   5
ATOM      5  C   UNL     1      47.748   4.968  18.080  0.00  0.00    +0.000 A 
ATOM      6  C   UNL     1      46.974   5.784  18.889  0.00  0.00    +0.000 A 
ATOM      7  S   UNL     1      47.834   6.468  20.194  0.00  0.00    +0.000 S 
ATOM      8  C   UNL     1      49.230   5.576  19.806  0.00  0.00    +0.000 A 
ATOM      9  N   UNL     1      50.328   5.615  20.607  0.00  0.00    +0.000 NA
ATOM     10  C   UNL     1      51.283   4.832  20.229  0.00  0.00    +0.000 A 
ATOM     11  N   UNL     1      51.255   4.049  19.104  0.00  0.00    +0.000 N 
ATOM     12  C   UNL     1      50.224   4.091  18.187  0.00  0.00    +0.000 A 
ATOM     13  O   UNL     1      50.344   3.580  17.079  0.00  0.00    +0.000 OA
ATOM     14  C   UNL     1      49.074   4.851  18.639  0.00  0.00    +0.000 A 
ATOM     15  H   UNL     1      52.067   3.516  18.830  0.00  0.00    +0.000 HD
ENDBRANCH   3   5
BRANCH   2  16
ATOM     16  C   UNL     1      48.244   5.913  15.329  0.00  0.00    +0.000 C 
BRANCH  16  17
ATOM     17  C   UNL     1      48.154   6.467  13.933  0.00  0.00    +0.000 A 
ATOM     18  C   UNL     1      49.260   7.047  13.297  0.00  0.00    +0.000 A 
ATOM     19  C   UNL     1      49.125   7.598  12.022  0.00  0.00    +0.000 A 
ATOM     20  C   UNL     1      47.882   7.591  11.388  0.00  0.00    +0.000 A 
ATOM     21  C   UNL     1      46.773   7.034  12.025  0.00  0.00    +0.000 A 
ATOM     22  C   UNL     1      46.923   6.439  13.276  0.00  0.00    +0.000 A 
BRANCH  21  23
ATOM     23  O   UNL     1      45.579   7.134  11.365  0.00  0.00    +0.000 OA
BRANCH  23  24
ATOM     24  C   UNL     1      44.485   6.502  12.036  0.00  0.00    +0.000 C 
BRANCH  24  25
ATOM     25  C   UNL     1      44.258   5.146  11.437  0.00  0.00    +0.000 A 
ATOM     26  C   UNL     1      44.642   4.876  10.122  0.00  0.00    +0.000 A 
ATOM     27  C   UNL     1      44.419   3.603   9.622  0.00  0.00    +0.000 A 
ATOM     28  N   UNL     1      43.850   2.606  10.332  0.00  0.00    +0.000 NA
ATOM     29  C   UNL     1      43.480   2.894  11.597  0.00  0.00    +0.000 A 
ATOM     30  C   UNL     1      43.661   4.132  12.191  0.00  0.00    +0.000 A 
ENDBRANCH  24  25
ENDBRANCH  23  24
ENDBRANCH  21  23
ENDBRANCH  16  17
ENDBRANCH   2  16
TORSDOF 6
ENDMDL
MODEL 7
REMARK VINA RESULT:    -6.462      4.318      7.925
REMARK INTER + INTRA:         -10.060
REMARK INTER:                  -8.534
REMARK INTRA:                  -1.527
REMARK UNBOUND:                -1.332
REMARK  Name = 
REMARK  7 active torsions:
REMARK  status: ('A' for Active; 'I' for Inactive)
REMARK    1  A    between atoms: C_1  and  N_2
REMARK    2  A    between atoms: N_2  and  C_3
REMARK    3  A    between atoms: C_3  and  C_4
REMARK    4  A    between atoms: C_8  and  O_9
REMARK    5  A    between atoms: O_9  and  C_10
REMARK    6  A    between atoms: C_10  and  C_11
REMARK    7  A    between atoms: C_18  and  C_20
REMARK                            x       y       z     vdW  Elec       q    Type
REMARK                         _______ _______ _______ _____ _____    ______ ____
ROOT
ATOM      1  C   UNL     1      50.758   8.002  14.475  0.00  0.00    +0.000 C 
ATOM      2  N   UNL     1      49.314   8.097  14.272  0.00  0.00    +0.000 N 
ATOM      3  C   UNL     1      48.800   7.341  13.204  0.00  0.00    +0.000 C 
ATOM      4  O   UNL     1      49.540   6.667  12.491  0.00  0.00    +0.000 OA
ENDROOT
BRANCH   3   5
ATOM      5  C   UNL     1      47.361   7.383  12.916  0.00  0.00    +0.000 A 
ATOM      6  C   UNL     1      46.724   8.411  12.239  0.00  0.00    +0.000 A 
ATOM      7  S   UNL     1      45.058   8.141  11.997  0.00  0.00    +0.000 S 
ATOM      8  C   UNL     1      45.164   6.576  12.656  0.00  0.00    +0.000 A 
ATOM      9  N   UNL     1      44.091   5.742  12.650  0.00  0.00    +0.000 NA
ATOM     10  C   UNL     1      44.338   4.562  13.114  0.00  0.00    +0.000 A 
ATOM     11  N   UNL     1      45.547   4.157  13.619  0.00  0.00    +0.000 N 
ATOM     12  C   UNL     1      46.618   5.013  13.779  0.00  0.00    +0.000 A 
ATOM     13  O   UNL     1      47.585   4.694  14.459  0.00  0.00    +0.000 OA
ATOM     14  C   UNL     1      46.428   6.306  13.147  0.00  0.00    +0.000 A 
ATOM     15  H   UNL     1      45.650   3.242  14.032  0.00  0.00    +0.000 HD
ENDBRANCH   3   5
BRANCH   2  16
ATOM     16  C   UNL     1      48.474   8.790  15.259  0.00  0.00    +0.000 C 
BRANCH  16  17
ATOM     17  C   UNL     1      48.766   8.519  16.709  0.00  0.00    +0.000 A 
ATOM     18  C   UNL     1      49.315   9.499  17.547  0.00  0.00    +0.000 A 
ATOM     19  C   UNL     1      49.622   9.194  18.874  0.00  0.00    +0.000 A 
ATOM     20  C   UNL     1      49.403   7.905  19.362  0.00  0.00    +0.000 A 
ATOM     21  C   UNL     1      48.877   6.920  18.525  0.00  0.00    +0.000 A 
ATOM     22  C   UNL     1      48.524   7.241  17.216  0.00  0.00    +0.000 A 
BRANCH  21  23
ATOM     23  O   UNL     1      48.762   5.666  19.061  0.00  0.00    +0.000 OA
BRANCH  23  24
ATOM     24  C   UNL     1      49.984   4.924  19.081  0.00  0.00    +0.000 C 
BRANCH  24  25
ATOM     25  C   UNL     1      49.874   3.771  18.129  0.00  0.00    +0.000 A 
ATOM     26  C   UNL     1      48.651   3.452  17.536  0.00  0.00    +0.000 A 
ATOM     27  C   UNL     1      48.607   2.384  16.655  0.00  0.00    +0.000 A 
ATOM     28  N   UNL     1      49.680   1.630  16.334  0.00  0.00    +0.000 NA
ATOM     29  C   UNL     1      50.850   1.952  16.926  0.00  0.00    +0.000 A 
ATOM     30  C   UNL     1      50.999   3.001  17.818  0.00  0.00    +0.000 A 
ENDBRANCH  24  25
ENDBRANCH  23  24
ENDBRANCH  21  23
ENDBRANCH  16  17
ENDBRANCH   2  16
TORSDOF 6
ENDMDL
MODEL 8
REMARK VINA RESULT:    -6.343      3.037      4.754
REMARK INTER + INTRA:          -9.901
REMARK INTER:                  -8.894
REMARK INTRA:                  -1.006
REMARK UNBOUND:                -1.332
REMARK  Name = 
REMARK  7 active torsions:
REMARK  status: ('A' for Active; 'I' for Inactive)
REMARK    1  A    between atoms: C_1  and  N_2
REMARK    2  A    between atoms: N_2  and  C_3
REMARK    3  A    between atoms: C_3  and  C_4
REMARK    4  A    between atoms: C_8  and  O_9
REMARK    5  A    between atoms: O_9  and  C_10
REMARK    6  A    between atoms: C_10  and  C_11
REMARK    7  A    between atoms: C_18  and  C_20
REMARK                            x       y       z     vdW  Elec       q    Type
REMARK                         _______ _______ _______ _____ _____    ______ ____
ROOT
ATOM      1  C   UNL     1      46.368   8.722  13.425  0.00  0.00    +0.000 C 
ATOM      2  N   UNL     1      47.726   8.190  13.515  0.00  0.00    +0.000 N 
ATOM      3  C   UNL     1      48.597   8.892  14.367  0.00  0.00    +0.000 C 
ATOM      4  O   UNL     1      48.223   9.895  14.970  0.00  0.00    +0.000 OA
ENDROOT
BRANCH   3   5
ATOM      5  C   UNL     1      49.986   8.438  14.513  0.00  0.00    +0.000 A 
ATOM      6  C   UNL     1      51.078   9.040  13.906  0.00  0.00    +0.000 A 
ATOM      7  S   UNL     1      52.570   8.326  14.322  0.00  0.00    +0.000 S 
ATOM      8  C   UNL     1      51.819   7.288  15.441  0.00  0.00    +0.000 A 
ATOM      9  N   UNL     1      52.557   6.471  16.238  0.00  0.00    +0.000 NA
ATOM     10  C   UNL     1      51.859   5.795  17.090  0.00  0.00    +0.000 A 
ATOM     11  N   UNL     1      50.491   5.834  17.187  0.00  0.00    +0.000 N 
ATOM     12  C   UNL     1      49.696   6.536  16.303  0.00  0.00    +0.000 A 
ATOM     13  O   UNL     1      48.486   6.348  16.257  0.00  0.00    +0.000 OA
ATOM     14  C   UNL     1      50.442   7.413  15.420  0.00  0.00    +0.000 A 
ATOM     15  H   UNL     1      50.005   5.225  17.828  0.00  0.00    +0.000 HD
ENDBRANCH   3   5
BRANCH   2  16
ATOM     16  C   UNL     1      48.056   6.900  12.895  0.00  0.00    +0.000 C 
BRANCH  16  17
ATOM     17  C   UNL     1      46.909   6.097  12.347  0.00  0.00    +0.000 A 
ATOM     18  C   UNL     1      46.117   5.283  13.168  0.00  0.00    +0.000 A 
ATOM     19  C   UNL     1      45.094   4.512  12.614  0.00  0.00    +0.000 A 
ATOM     20  C   UNL     1      44.872   4.535  11.237  0.00  0.00    +0.000 A 
ATOM     21  C   UNL     1      45.671   5.327  10.411  0.00  0.00    +0.000 A 
ATOM     22  C   UNL     1      46.658   6.134  10.974  0.00  0.00    +0.000 A 
BRANCH  21  23
ATOM     23  O   UNL     1      45.435   5.235   9.067  0.00  0.00    +0.000 OA
BRANCH  23  24
ATOM     24  C   UNL     1      44.749   4.043   8.674  0.00  0.00    +0.000 C 
BRANCH  24  25
ATOM     25  C   UNL     1      45.722   3.108   8.021  0.00  0.00    +0.000 A 
ATOM     26  C   UNL     1      45.807   1.773   8.424  0.00  0.00    +0.000 A 
ATOM     27  C   UNL     1      46.716   0.950   7.780  0.00  0.00    +0.000 A 
ATOM     28  N   UNL     1      47.527   1.361   6.782  0.00  0.00    +0.000 NA
ATOM     29  C   UNL     1      47.432   2.657   6.416  0.00  0.00    +0.000 A 
ATOM     30  C   UNL     1      46.556   3.560   6.995  0.00  0.00    +0.000 A 
ENDBRANCH  24  25
ENDBRANCH  23  24
ENDBRANCH  21  23
ENDBRANCH  16  17
ENDBRANCH   2  16
TORSDOF 6
ENDMDL
MODEL 9
REMARK VINA RESULT:    -5.963      4.489      6.703
REMARK INTER + INTRA:          -9.386
REMARK INTER:                  -7.878
REMARK INTRA:                  -1.509
REMARK UNBOUND:                -1.332
REMARK  Name = 
REMARK  7 active torsions:
REMARK  status: ('A' for Active; 'I' for Inactive)
REMARK    1  A    between atoms: C_1  and  N_2
REMARK    2  A    between atoms: N_2  and  C_3
REMARK    3  A    between atoms: C_3  and  C_4
REMARK    4  A    between atoms: C_8  and  O_9
REMARK    5  A    between atoms: O_9  and  C_10
REMARK    6  A    between atoms: C_10  and  C_11
REMARK    7  A    between atoms: C_18  and  C_20
REMARK                            x       y       z     vdW  Elec       q    Type
REMARK                         _______ _______ _______ _____ _____    ______ ____
ROOT
ATOM      1  C   UNL     1      49.366   5.127  21.062  0.00  0.00    +0.000 C 
ATOM      2  N   UNL     1      48.848   5.871  19.917  0.00  0.00    +0.000 N 
ATOM      3  C   UNL     1      49.617   6.976  19.512  0.00  0.00    +0.000 C 
ATOM      4  O   UNL     1      50.644   7.287  20.111  0.00  0.00    +0.000 OA
ENDROOT
BRANCH   3   5
ATOM      5  C   UNL     1      49.169   7.792  18.377  0.00  0.00    +0.000 A 
ATOM      6  C   UNL     1      48.319   8.882  18.479  0.00  0.00    +0.000 A 
ATOM      7  S   UNL     1      48.036   9.669  16.992  0.00  0.00    +0.000 S 
ATOM      8  C   UNL     1      49.158   8.671  16.193  0.00  0.00    +0.000 A 
ATOM      9  N   UNL     1      49.480   8.889  14.890  0.00  0.00    +0.000 NA
ATOM     10  C   UNL     1      50.399   8.102  14.437  0.00  0.00    +0.000 A 
ATOM     11  N   UNL     1      50.992   7.095  15.155  0.00  0.00    +0.000 N 
ATOM     12  C   UNL     1      50.590   6.746  16.429  0.00  0.00    +0.000 A 
ATOM     13  O   UNL     1      50.956   5.694  16.939  0.00  0.00    +0.000 OA
ATOM     14  C   UNL     1      49.659   7.687  17.024  0.00  0.00    +0.000 A 
ATOM     15  H   UNL     1      51.651   6.471  14.715  0.00  0.00    +0.000 HD
ENDBRANCH   3   5
BRANCH   2  16
ATOM     16  C   UNL     1      47.706   5.350  19.153  0.00  0.00    +0.000 C 
BRANCH  16  17
ATOM     17  C   UNL     1      48.005   4.295  18.123  0.00  0.00    +0.000 A 
ATOM     18  C   UNL     1      48.950   3.286  18.352  0.00  0.00    +0.000 A 
ATOM     19  C   UNL     1      49.239   2.356  17.353  0.00  0.00    +0.000 A 
ATOM     20  C   UNL     1      48.601   2.443  16.114  0.00  0.00    +0.000 A 
ATOM     21  C   UNL     1      47.676   3.459  15.873  0.00  0.00    +0.000 A 
ATOM     22  C   UNL     1      47.353   4.354  16.890  0.00  0.00    +0.000 A 
BRANCH  21  23
ATOM     23  O   UNL     1      47.153   3.516  14.610  0.00  0.00    +0.000 OA
BRANCH  23  24
ATOM     24  C   UNL     1      46.907   4.844  14.139  0.00  0.00    +0.000 C 
BRANCH  24  25
ATOM     25  C   UNL     1      45.993   4.783  12.951  0.00  0.00    +0.000 A 
ATOM     26  C   UNL     1      45.469   3.563  12.518  0.00  0.00    +0.000 A 
ATOM     27  C   UNL     1      44.621   3.564  11.423  0.00  0.00    +0.000 A 
ATOM     28  N   UNL     1      44.269   4.678  10.747  0.00  0.00    +0.000 NA
ATOM     29  C   UNL     1      44.795   5.844  11.179  0.00  0.00    +0.000 A 
ATOM     30  C   UNL     1      45.649   5.950  12.263  0.00  0.00    +0.000 A 
ENDBRANCH  24  25
ENDBRANCH  23  24
ENDBRANCH  21  23
ENDBRANCH  16  17
ENDBRANCH   2  16
TORSDOF 6
ENDMDL
