MODEL 1
REMARK VINA RESULT:    -6.802      0.000      0.000
REMARK INTER + INTRA:         -14.505
REMARK INTER:                 -12.171
REMARK INTRA:                  -2.334
REMARK UNBOUND:                -2.334
REMARK  Name = 
REMARK  17 active torsions:
REMARK  status: ('A' for Active; 'I' for Inactive)
REMARK    1  A    between atoms: C_1  and  C_2
REMARK    2  A    between atoms: C_2  and  C_3
REMARK    3  A    between atoms: C_3  and  C_4
REMARK    4  A    between atoms: C_4  and  N_5
REMARK    5  A    between atoms: C_4  and  C_19
REMARK    6  A    between atoms: N_5  and  C_6
REMARK    7  A    between atoms: C_6  and  C_7
REMARK    8  A    between atoms: C_10  and  C_11
REMARK    9  A    between atoms: C_11  and  O_12
REMARK   10  A    between atoms: C_11  and  C_13
REMARK   11  A    between atoms: C_13  and  N_14
REMARK   12  A    between atoms: N_14  and  C_15
REMARK   13  A    between atoms: N_14  and  C_16
REMARK   14  A    between atoms: C_22  and  C_23
REMARK   15  A    between atoms: C_23  and  N_24
REMARK   16  A    between atoms: N_24  and  C_25
REMARK   17  A    between atoms: C_25  and  C_26
REMARK                            x       y       z     vdW  Elec       q    Type
REMARK                         _______ _______ _______ _____ _____    ______ ____
ROOT
ATOM      1  C   UNL     1      44.416   5.575  11.949  0.00  0.00    +0.000 C 
ENDROOT
BRANCH   1   2
ATOM      2  C   UNL     1      45.498   6.648  12.011  0.00  0.00    +0.000 A 
ATOM      3  C   UNL     1      45.243   7.864  12.666  0.00  0.00    +0.000 A 
ATOM      4  C   UNL     1      46.238   8.842  12.772  0.00  0.00    +0.000 A 
ATOM      5  C   UNL     1      47.512   8.627  12.228  0.00  0.00    +0.000 A 
ATOM      6  C   UNL     1      47.757   7.432  11.543  0.00  0.00    +0.000 A 
ATOM      7  C   UNL     1      46.757   6.465  11.419  0.00  0.00    +0.000 A 
BRANCH   5   8
ATOM      8  C   UNL     1      48.598   9.670  12.358  0.00  0.00    +0.000 C 
BRANCH   8   9
ATOM      9  N   UNL     1      49.693   9.187  13.195  0.00  0.00    +0.000 NA
ATOM     10  H   UNL     1      50.572   9.553  12.827  0.00  0.00    +0.000 HD
BRANCH   9  11
ATOM     11  C   UNL     1      49.544   9.661  14.576  0.00  0.00    +0.000 C 
BRANCH  11  12
ATOM     12  C   UNL     1      49.276   8.519  15.538  0.00  0.00    +0.000 A 
ATOM     13  C   UNL     1      48.988   7.246  15.047  0.00  0.00    +0.000 A 
ATOM     14  C   UNL     1      48.763   6.211  15.949  0.00  0.00    +0.000 A 
ATOM     15  C   UNL     1      48.824   6.473  17.312  0.00  0.00    +0.000 A 
ATOM     16  C   UNL     1      49.111   7.765  17.718  0.00  0.00    +0.000 A 
ATOM     17  N   UNL     1      49.341   8.790  16.868  0.00  0.00    +0.000 NA
ENDBRANCH  11  12
ENDBRANCH   9  11
ENDBRANCH   8   9
ENDBRANCH   5   8
ENDBRANCH   1   2
BRANCH   1  18
ATOM     18  N   UNL     1      44.026   5.359  10.534  0.00  0.00    +0.000 NA
ATOM     19  H   UNL     1      43.091   5.746  10.401  0.00  0.00    +0.000 HD
BRANCH  18  20
ATOM     20  C   UNL     1      43.996   3.933  10.215  0.00  0.00    +0.000 C 
BRANCH  20  21
ATOM     21  C   UNL     1      45.029   3.436   9.240  0.00  0.00    +0.000 A 
ATOM     22  C   UNL     1      45.312   2.084   9.023  0.00  0.00    +0.000 A 
ATOM     23  C   UNL     1      46.156   1.698   7.973  0.00  0.00    +0.000 A 
ATOM     24  C   UNL     1      46.720   2.658   7.120  0.00  0.00    +0.000 A 
ATOM     25  C   UNL     1      46.427   4.011   7.342  0.00  0.00    +0.000 A 
ATOM     26  C   UNL     1      45.597   4.393   8.388  0.00  0.00    +0.000 A 
BRANCH  24  27
ATOM     27  C   UNL     1      47.615   2.245   5.964  0.00  0.00    +0.000 C 
BRANCH  27  28
ATOM     28  O   UNL     1      48.971   2.471   6.364  0.00  0.00    +0.000 OA
ATOM     29  H   UNL     1      49.016   3.335   6.800  0.00  0.00    +0.000 HD
ENDBRANCH  27  28
BRANCH  27  30
ATOM     30  C   UNL     1      47.349   0.755   5.590  0.00  0.00    +0.000 C 
BRANCH  30  31
ATOM     31  N   UNL     1      47.314   0.398   4.152  0.00  0.00    +0.000 NA
ATOM     32  C   UNL     1      46.929  -0.999   3.950  0.00  0.00    +0.000 C 
ATOM     33  C   UNL     1      46.359   1.275   3.467  0.00  0.00    +0.000 C 
ENDBRANCH  30  31
ENDBRANCH  27  30
ENDBRANCH  24  27
ENDBRANCH  20  21
ENDBRANCH  18  20
ENDBRANCH   1  18
BRANCH   1  34
ATOM     34  C   UNL     1      44.832   4.252  12.654  0.00  0.00    +0.000 C 
BRANCH  34  36
ATOM     35  C   UNL     1      47.034   3.684  13.785  0.00  0.00    +0.000 C 
ATOM     36  C   UNL     1      45.696   4.400  13.907  0.00  0.00    +0.000 C 
ENDBRANCH  34  36
ENDBRANCH   1  34
TORSDOF 14
ENDMDL
MODEL 2
REMARK VINA RESULT:    -6.763      3.295     10.566
REMARK INTER + INTRA:         -14.435
REMARK INTER:                 -12.474
REMARK INTRA:                  -1.962
REMARK UNBOUND:                -2.334
REMARK  Name = 
REMARK  17 active torsions:
REMARK  status: ('A' for Active; 'I' for Inactive)
REMARK    1  A    between atoms: C_1  and  C_2
REMARK    2  A    between atoms: C_2  and  C_3
REMARK    3  A    between atoms: C_3  and  C_4
REMARK    4  A    between atoms: C_4  and  N_5
REMARK    5  A    between atoms: C_4  and  C_19
REMARK    6  A    between atoms: N_5  and  C_6
REMARK    7  A    between atoms: C_6  and  C_7
REMARK    8  A    between atoms: C_10  and  C_11
REMARK    9  A    between atoms: C_11  and  O_12
REMARK   10  A    between atoms: C_11  and  C_13
REMARK   11  A    between atoms: C_13  and  N_14
REMARK   12  A    between atoms: N_14  and  C_15
REMARK   13  A    between atoms: N_14  and  C_16
REMARK   14  A    between atoms: C_22  and  C_23
REMARK   15  A    between atoms: C_23  and  N_24
REMARK   16  A    between atoms: N_24  and  C_25
REMARK   17  A    between atoms: C_25  and  C_26
REMARK                            x       y       z     vdW  Elec       q    Type
REMARK                         _______ _______ _______ _____ _____    ______ ____
ROOT
ATOM      1  C   UNL     1      48.094   7.121  12.912  0.00  0.00    +0.000 C 
ENDROOT
BRANCH   1   2
ATOM      2  C   UNL     1      46.932   6.227  12.492  0.00  0.00    +0.000 A 
ATOM      3  C   UNL     1      46.149   6.573  11.378  0.00  0.00    +0.000 A 
ATOM      4  C   UNL     1      45.107   5.741  10.951  0.00  0.00    +0.000 A 
ATOM      5  C   UNL     1      44.826   4.544  11.624  0.00  0.00    +0.000 A 
ATOM      6  C   UNL     1      45.581   4.217  12.755  0.00  0.00    +0.000 A 
ATOM      7  C   UNL     1      46.607   5.057  13.194  0.00  0.00    +0.000 A 
BRANCH   5   8
ATOM      8  C   UNL     1      43.717   3.632  11.154  0.00  0.00    +0.000 C 
BRANCH   8   9
ATOM      9  N   UNL     1      43.823   3.370   9.722  0.00  0.00    +0.000 NA
ATOM     10  H   UNL     1      44.397   4.100   9.297  0.00  0.00    +0.000 HD
BRANCH   9  11
ATOM     11  C   UNL     1      44.471   2.077   9.471  0.00  0.00    +0.000 C 
BRANCH  11  12
ATOM     12  C   UNL     1      45.597   2.197   8.462  0.00  0.00    +0.000 A 
ATOM     13  C   UNL     1      45.867   3.426   7.861  0.00  0.00    +0.000 A 
ATOM     14  C   UNL     1      46.916   3.515   6.951  0.00  0.00    +0.000 A 
ATOM     15  C   UNL     1      47.661   2.380   6.660  0.00  0.00    +0.000 A 
ATOM     16  C   UNL     1      47.326   1.196   7.296  0.00  0.00    +0.000 A 
ATOM     17  N   UNL     1      46.318   1.078   8.188  0.00  0.00    +0.000 NA
ENDBRANCH  11  12
ENDBRANCH   9  11
ENDBRANCH   8   9
ENDBRANCH   5   8
ENDBRANCH   1   2
BRANCH   1  18
ATOM     18  N   UNL     1      49.056   6.324  13.710  0.00  0.00    +0.000 NA
ATOM     19  H   UNL     1      48.601   5.451  13.977  0.00  0.00    +0.000 HD
BRANCH  18  20
ATOM     20  C   UNL     1      49.445   7.042  14.923  0.00  0.00    +0.000 C 
BRANCH  20  21
ATOM     21  C   UNL     1      49.019   6.437  16.234  0.00  0.00    +0.000 A 
ATOM     22  C   UNL     1      48.227   5.290  16.344  0.00  0.00    +0.000 A 
ATOM     23  C   UNL     1      48.023   4.689  17.592  0.00  0.00    +0.000 A 
ATOM     24  C   UNL     1      48.617   5.220  18.747  0.00  0.00    +0.000 A 
ATOM     25  C   UNL     1      49.414   6.368  18.626  0.00  0.00    +0.000 A 
ATOM     26  C   UNL     1      49.608   6.968  17.389  0.00  0.00    +0.000 A 
BRANCH  24  27
ATOM     27  C   UNL     1      48.422   4.559  20.100  0.00  0.00    +0.000 C 
BRANCH  27  28
ATOM     28  O   UNL     1      48.505   3.143  19.907  0.00  0.00    +0.000 OA
ATOM     29  H   UNL     1      47.748   2.868  19.368  0.00  0.00    +0.000 HD
ENDBRANCH  27  28
BRANCH  27  30
ATOM     30  C   UNL     1      49.490   5.081  21.108  0.00  0.00    +0.000 C 
BRANCH  30  31
ATOM     31  N   UNL     1      49.021   5.892  22.256  0.00  0.00    +0.000 NA
ATOM     32  C   UNL     1      49.499   7.273  22.176  0.00  0.00    +0.000 C 
ATOM     33  C   UNL     1      47.555   5.881  22.279  0.00  0.00    +0.000 C 
ENDBRANCH  30  31
ENDBRANCH  27  30
ENDBRANCH  24  27
ENDBRANCH  20  21
ENDBRANCH  18  20
ENDBRANCH   1  18
BRANCH   1  34
ATOM     34  C   UNL     1      48.775   7.838  11.711  0.00  0.00    +0.000 C 
BRANCH  34  36
ATOM     35  C   UNL     1      47.826   9.931  12.794  0.00  0.00    +0.000 C 
ATOM     36  C   UNL     1      48.790   9.366  11.759  0.00  0.00    +0.000 C 
ENDBRANCH  34  36
ENDBRANCH   1  34
TORSDOF 14
ENDMDL
MODEL 3
REMARK VINA RESULT:    -6.520      3.870      9.825
REMARK INTER + INTRA:         -13.999
REMARK INTER:                 -12.134
REMARK INTRA:                  -1.865
REMARK UNBOUND:                -2.334
REMARK  Name = 
REMARK  17 active torsions:
REMARK  status: ('A' for Active; 'I' for Inactive)
REMARK    1  A    between atoms: C_1  and  C_2
REMARK    2  A    between atoms: C_2  and  C_3
REMARK    3  A    between atoms: C_3  and  C_4
REMARK    4  A    between atoms: C_4  and  N_5
REMARK    5  A    between atoms: C_4  and  C_19
REMARK    6  A    between atoms: N_5  and  C_6
REMARK    7  A    between atoms: C_6  and  C_7
REMARK    8  A    between atoms: C_10  and  C_11
REMARK    9  A    between atoms: C_11  and  O_12
REMARK   10  A    between atoms: C_11  and  C_13
REMARK   11  A    between atoms: C_13  and  N_14
REMARK   12  A    between atoms: N_14  and  C_15
REMARK   13  A    between atoms: N_14  and  C_16
REMARK   14  A    between atoms: C_22  and  C_23
REMARK   15  A    between atoms: C_23  and  N_24
REMARK   16  A    between atoms: N_24  and  C_25
REMARK   17  A    between atoms: C_25  and  C_26
REMARK                            x       y       z     vdW  Elec       q    Type
REMARK                         _______ _______ _______ _____ _____    ______ ____
ROOT
ATOM      1  C   UNL     1      47.835   7.180  13.297  0.00  0.00    +0.000 C 
ENDROOT
BRANCH   1   2
ATOM      2  C   UNL     1      46.699   6.335  12.727  0.00  0.00    +0.000 A 
ATOM      3  C   UNL     1      46.237   5.213  13.434  0.00  0.00    +0.000 A 
ATOM      4  C   UNL     1      45.167   4.453  12.949  0.00  0.00    +0.000 A 
ATOM      5  C   UNL     1      44.531   4.798  11.748  0.00  0.00    +0.000 A 
ATOM      6  C   UNL     1      45.014   5.893  11.024  0.00  0.00    +0.000 A 
ATOM      7  C   UNL     1      46.095   6.639  11.497  0.00  0.00    +0.000 A 
BRANCH   5   8
ATOM      8  C   UNL     1      43.361   3.994  11.230  0.00  0.00    +0.000 C 
BRANCH   8   9
ATOM      9  N   UNL     1      43.619   3.503   9.879  0.00  0.00    +0.000 NA
ATOM     10  H   UNL     1      44.044   4.254   9.333  0.00  0.00    +0.000 HD
BRANCH   9  11
ATOM     11  C   UNL     1      44.554   2.372   9.902  0.00  0.00    +0.000 C 
BRANCH  11  12
ATOM     12  C   UNL     1      45.513   2.408   8.727  0.00  0.00    +0.000 A 
ATOM     13  C   UNL     1      45.725   3.601   8.037  0.00  0.00    +0.000 A 
ATOM     14  C   UNL     1      46.622   3.614   6.974  0.00  0.00    +0.000 A 
ATOM     15  C   UNL     1      47.276   2.439   6.623  0.00  0.00    +0.000 A 
ATOM     16  C   UNL     1      47.006   1.296   7.356  0.00  0.00    +0.000 A 
ATOM     17  N   UNL     1      46.146   1.252   8.397  0.00  0.00    +0.000 NA
ENDBRANCH  11  12
ENDBRANCH   9  11
ENDBRANCH   8   9
ENDBRANCH   5   8
ENDBRANCH   1   2
BRANCH   1  18
ATOM     18  N   UNL     1      47.943   6.929  14.754  0.00  0.00    +0.000 NA
ATOM     19  H   UNL     1      47.128   7.341  15.208  0.00  0.00    +0.000 HD
BRANCH  18  20
ATOM     20  C   UNL     1      49.150   7.548  15.299  0.00  0.00    +0.000 C 
BRANCH  20  21
ATOM     21  C   UNL     1      49.932   6.740  16.299  0.00  0.00    +0.000 A 
ATOM     22  C   UNL     1      49.475   5.547  16.869  0.00  0.00    +0.000 A 
ATOM     23  C   UNL     1      50.332   4.764  17.652  0.00  0.00    +0.000 A 
ATOM     24  C   UNL     1      51.662   5.156  17.867  0.00  0.00    +0.000 A 
ATOM     25  C   UNL     1      52.113   6.351  17.288  0.00  0.00    +0.000 A 
ATOM     26  C   UNL     1      51.260   7.131  16.520  0.00  0.00    +0.000 A 
BRANCH  24  27
ATOM     27  C   UNL     1      52.605   4.299  18.694  0.00  0.00    +0.000 C 
BRANCH  27  28
ATOM     28  O   UNL     1      51.896   3.881  19.866  0.00  0.00    +0.000 OA
ATOM     29  H   UNL     1      52.516   3.890  20.611  0.00  0.00    +0.000 HD
ENDBRANCH  27  28
BRANCH  27  30
ATOM     30  C   UNL     1      53.109   3.092  17.846  0.00  0.00    +0.000 C 
BRANCH  30  31
ATOM     31  N   UNL     1      52.739   1.729  18.294  0.00  0.00    +0.000 NA
ATOM     32  C   UNL     1      51.662   1.164  17.480  0.00  0.00    +0.000 C 
ATOM     33  C   UNL     1      53.920   0.864  18.214  0.00  0.00    +0.000 C 
ENDBRANCH  30  31
ENDBRANCH  27  30
ENDBRANCH  24  27
ENDBRANCH  20  21
ENDBRANCH  18  20
ENDBRANCH   1  18
BRANCH   1  34
ATOM     34  C   UNL     1      49.186   6.958  12.558  0.00  0.00    +0.000 C 
BRANCH  34  36
ATOM     35  C   UNL     1      48.828   9.337  11.740  0.00  0.00    +0.000 C 
ATOM     36  C   UNL     1      49.578   8.027  11.537  0.00  0.00    +0.000 C 
ENDBRANCH  34  36
ENDBRANCH   1  34
TORSDOF 14
ENDMDL
MODEL 4
REMARK VINA RESULT:    -6.324      2.684      9.217
REMARK INTER + INTRA:         -13.650
REMARK INTER:                 -11.764
REMARK INTRA:                  -1.886
REMARK UNBOUND:                -2.334
REMARK  Name = 
REMARK  17 active torsions:
REMARK  status: ('A' for Active; 'I' for Inactive)
REMARK    1  A    between atoms: C_1  and  C_2
REMARK    2  A    between atoms: C_2  and  C_3
REMARK    3  A    between atoms: C_3  and  C_4
REMARK    4  A    between atoms: C_4  and  N_5
REMARK    5  A    between atoms: C_4  and  C_19
REMARK    6  A    between atoms: N_5  and  C_6
REMARK    7  A    between atoms: C_6  and  C_7
REMARK    8  A    between atoms: C_10  and  C_11
REMARK    9  A    between atoms: C_11  and  O_12
REMARK   10  A    between atoms: C_11  and  C_13
REMARK   11  A    between atoms: C_13  and  N_14
REMARK   12  A    between atoms: N_14  and  C_15
REMARK   13  A    between atoms: N_14  and  C_16
REMARK   14  A    between atoms: C_22  and  C_23
REMARK   15  A    between atoms: C_23  and  N_24
REMARK   16  A    between atoms: N_24  and  C_25
REMARK   17  A    between atoms: C_25  and  C_26
REMARK                            x       y       z     vdW  Elec       q    Type
REMARK                         _______ _______ _______ _____ _____    ______ ____
ROOT
ATOM      1  C   UNL     1      48.515   9.490  12.660  0.00  0.00    +0.000 C 
ENDROOT
BRANCH   1   2
ATOM      2  C   UNL     1      47.377   8.520  12.356  0.00  0.00    +0.000 A 
ATOM      3  C   UNL     1      47.649   7.298  11.719  0.00  0.00    +0.000 A 
ATOM      4  C   UNL     1      46.624   6.377  11.474  0.00  0.00    +0.000 A 
ATOM      5  C   UNL     1      45.306   6.653  11.861  0.00  0.00    +0.000 A 
ATOM      6  C   UNL     1      45.027   7.886  12.461  0.00  0.00    +0.000 A 
ATOM      7  C   UNL     1      46.046   8.814  12.688  0.00  0.00    +0.000 A 
BRANCH   5   8
ATOM      8  C   UNL     1      44.199   5.654  11.618  0.00  0.00    +0.000 C 
BRANCH   8   9
ATOM      9  N   UNL     1      44.075   5.343  10.196  0.00  0.00    +0.000 NA
ATOM     10  H   UNL     1      44.907   5.686   9.712  0.00  0.00    +0.000 HD
BRANCH   9  11
ATOM     11  C   UNL     1      43.988   3.894   9.981  0.00  0.00    +0.000 C 
BRANCH  11  12
ATOM     12  C   UNL     1      45.041   3.404   9.006  0.00  0.00    +0.000 A 
ATOM     13  C   UNL     1      45.349   2.045   8.937  0.00  0.00    +0.000 A 
ATOM     14  C   UNL     1      46.306   1.617   8.022  0.00  0.00    +0.000 A 
ATOM     15  C   UNL     1      46.933   2.551   7.208  0.00  0.00    +0.000 A 
ATOM     16  C   UNL     1      46.573   3.882   7.342  0.00  0.00    +0.000 A 
ATOM     17  N   UNL     1      45.644   4.329   8.215  0.00  0.00    +0.000 NA
ENDBRANCH  11  12
ENDBRANCH   9  11
ENDBRANCH   8   9
ENDBRANCH   5   8
ENDBRANCH   1   2
BRANCH   1  18
ATOM     18  N   UNL     1      49.520   8.809  13.511  0.00  0.00    +0.000 NA
ATOM     19  H   UNL     1      49.494   7.813  13.296  0.00  0.00    +0.000 HD
BRANCH  18  20
ATOM     20  C   UNL     1      49.211   8.995  14.928  0.00  0.00    +0.000 C 
BRANCH  20  21
ATOM     21  C   UNL     1      48.949   7.750  15.732  0.00  0.00    +0.000 A 
ATOM     22  C   UNL     1      48.908   7.717  17.130  0.00  0.00    +0.000 A 
ATOM     23  C   UNL     1      48.483   6.562  17.798  0.00  0.00    +0.000 A 
ATOM     24  C   UNL     1      48.084   5.426  17.077  0.00  0.00    +0.000 A 
ATOM     25  C   UNL     1      48.124   5.470  15.676  0.00  0.00    +0.000 A 
ATOM     26  C   UNL     1      48.554   6.613  15.015  0.00  0.00    +0.000 A 
BRANCH  24  27
ATOM     27  C   UNL     1      47.597   4.178  17.794  0.00  0.00    +0.000 C 
BRANCH  27  28
ATOM     28  O   UNL     1      46.709   3.488  16.908  0.00  0.00    +0.000 OA
ATOM     29  H   UNL     1      46.403   4.119  16.239  0.00  0.00    +0.000 HD
ENDBRANCH  27  28
BRANCH  27  30
ATOM     30  C   UNL     1      48.812   3.298  18.215  0.00  0.00    +0.000 C 
BRANCH  30  31
ATOM     31  N   UNL     1      49.989   3.266  17.315  0.00  0.00    +0.000 NA
ATOM     32  C   UNL     1      51.204   3.717  17.994  0.00  0.00    +0.000 C 
ATOM     33  C   UNL     1      50.179   1.896  16.828  0.00  0.00    +0.000 C 
ENDBRANCH  30  31
ENDBRANCH  27  30
ENDBRANCH  24  27
ENDBRANCH  20  21
ENDBRANCH  18  20
ENDBRANCH   1  18
BRANCH   1  34
ATOM     34  C   UNL     1      49.146  10.105  11.378  0.00  0.00    +0.000 C 
BRANCH  34  36
ATOM     35  C   UNL     1      47.962  11.853   9.964  0.00  0.00    +0.000 C 
ATOM     36  C   UNL     1      48.887  11.595  11.146  0.00  0.00    +0.000 C 
ENDBRANCH  34  36
ENDBRANCH   1  34
TORSDOF 14
ENDMDL
MODEL 5
REMARK VINA RESULT:    -6.250      3.194      4.951
REMARK INTER + INTRA:         -13.517
REMARK INTER:                 -12.173
REMARK INTRA:                  -1.344
REMARK UNBOUND:                -2.334
REMARK  Name = 
REMARK  17 active torsions:
REMARK  status: ('A' for Active; 'I' for Inactive)
REMARK    1  A    between atoms: C_1  and  C_2
REMARK    2  A    between atoms: C_2  and  C_3
REMARK    3  A    between atoms: C_3  and  C_4
REMARK    4  A    between atoms: C_4  and  N_5
REMARK    5  A    between atoms: C_4  and  C_19
REMARK    6  A    between atoms: N_5  and  C_6
REMARK    7  A    between atoms: C_6  and  C_7
REMARK    8  A    between atoms: C_10  and  C_11
REMARK    9  A    between atoms: C_11  and  O_12
REMARK   10  A    between atoms: C_11  and  C_13
REMARK   11  A    between atoms: C_13  and  N_14
REMARK   12  A    between atoms: N_14  and  C_15
REMARK   13  A    between atoms: N_14  and  C_16
REMARK   14  A    between atoms: C_22  and  C_23
REMARK   15  A    between atoms: C_23  and  N_24
REMARK   16  A    between atoms: N_24  and  C_25
REMARK   17  A    between atoms: C_25  and  C_26
REMARK                            x       y       z     vdW  Elec       q    Type
REMARK                         _______ _______ _______ _____ _____    ______ ____
ROOT
ATOM      1  C   UNL     1      44.457   5.610  11.658  0.00  0.00    +0.000 C 
ENDROOT
BRANCH   1   2
ATOM      2  C   UNL     1      44.813   7.092  11.592  0.00  0.00    +0.000 A 
ATOM      3  C   UNL     1      43.915   8.004  11.015  0.00  0.00    +0.000 A 
ATOM      4  C   UNL     1      44.206   9.373  10.987  0.00  0.00    +0.000 A 
ATOM      5  C   UNL     1      45.398   9.863  11.537  0.00  0.00    +0.000 A 
ATOM      6  C   UNL     1      46.310   8.951  12.079  0.00  0.00    +0.000 A 
ATOM      7  C   UNL     1      46.031   7.583  12.089  0.00  0.00    +0.000 A 
BRANCH   5   8
ATOM      8  C   UNL     1      45.708  11.341  11.529  0.00  0.00    +0.000 C 
BRANCH   8   9
ATOM      9  N   UNL     1      44.633  12.106  12.157  0.00  0.00    +0.000 NA
ATOM     10  H   UNL     1      45.047  12.792  12.790  0.00  0.00    +0.000 HD
BRANCH   9  11
ATOM     11  C   UNL     1      43.848  12.830  11.150  0.00  0.00    +0.000 C 
BRANCH  11  12
ATOM     12  C   UNL     1      42.409  12.355  11.107  0.00  0.00    +0.000 A 
ATOM     13  C   UNL     1      41.666  12.485   9.934  0.00  0.00    +0.000 A 
ATOM     14  C   UNL     1      40.353  12.026   9.914  0.00  0.00    +0.000 A 
ATOM     15  C   UNL     1      39.815  11.457  11.062  0.00  0.00    +0.000 A 
ATOM     16  C   UNL     1      40.618  11.369  12.187  0.00  0.00    +0.000 A 
ATOM     17  N   UNL     1      41.897  11.799  12.236  0.00  0.00    +0.000 NA
ENDBRANCH  11  12
ENDBRANCH   9  11
ENDBRANCH   8   9
ENDBRANCH   5   8
ENDBRANCH   1   2
BRANCH   1  18
ATOM     18  N   UNL     1      44.017   5.157  10.316  0.00  0.00    +0.000 NA
ATOM     19  H   UNL     1      43.030   5.389  10.211  0.00  0.00    +0.000 HD
BRANCH  18  20
ATOM     20  C   UNL     1      44.179   3.711  10.178  0.00  0.00    +0.000 C 
BRANCH  20  21
ATOM     21  C   UNL     1      45.143   3.235   9.124  0.00  0.00    +0.000 A 
ATOM     22  C   UNL     1      45.482   1.893   8.924  0.00  0.00    +0.000 A 
ATOM     23  C   UNL     1      46.245   1.515   7.812  0.00  0.00    +0.000 A 
ATOM     24  C   UNL     1      46.671   2.472   6.879  0.00  0.00    +0.000 A 
ATOM     25  C   UNL     1      46.323   3.815   7.086  0.00  0.00    +0.000 A 
ATOM     26  C   UNL     1      45.574   4.190   8.193  0.00  0.00    +0.000 A 
BRANCH  24  27
ATOM     27  C   UNL     1      47.477   2.067   5.656  0.00  0.00    +0.000 C 
BRANCH  27  28
ATOM     28  O   UNL     1      48.861   2.097   6.021  0.00  0.00    +0.000 OA
ATOM     29  H   UNL     1      48.930   1.863   6.958  0.00  0.00    +0.000 HD
ENDBRANCH  27  28
BRANCH  27  30
ATOM     30  C   UNL     1      47.025   0.658   5.164  0.00  0.00    +0.000 C 
BRANCH  30  31
ATOM     31  N   UNL     1      47.121   0.369   3.714  0.00  0.00    +0.000 NA
ATOM     32  C   UNL     1      47.232  -1.068   3.454  0.00  0.00    +0.000 C 
ATOM     33  C   UNL     1      45.930   0.898   3.043  0.00  0.00    +0.000 C 
ENDBRANCH  30  31
ENDBRANCH  27  30
ENDBRANCH  24  27
ENDBRANCH  20  21
ENDBRANCH  18  20
ENDBRANCH   1  18
BRANCH   1  34
ATOM     34  C   UNL     1      45.608   4.733  12.229  0.00  0.00    +0.000 C 
BRANCH  34  36
ATOM     35  C   UNL     1      47.025   4.698  14.337  0.00  0.00    +0.000 C 
ATOM     36  C   UNL     1      45.629   4.555  13.748  0.00  0.00    +0.000 C 
ENDBRANCH  34  36
ENDBRANCH   1  34
TORSDOF 14
ENDMDL
MODEL 6
REMARK VINA RESULT:    -6.207      3.374      8.146
REMARK INTER + INTRA:         -13.440
REMARK INTER:                 -11.700
REMARK INTRA:                  -1.741
REMARK UNBOUND:                -2.334
REMARK  Name = 
REMARK  17 active torsions:
REMARK  status: ('A' for Active; 'I' for Inactive)
REMARK    1  A    between atoms: C_1  and  C_2
REMARK    2  A    between atoms: C_2  and  C_3
REMARK    3  A    between atoms: C_3  and  C_4
REMARK    4  A    between atoms: C_4  and  N_5
REMARK    5  A    between atoms: C_4  and  C_19
REMARK    6  A    between atoms: N_5  and  C_6
REMARK    7  A    between atoms: C_6  and  C_7
REMARK    8  A    between atoms: C_10  and  C_11
REMARK    9  A    between atoms: C_11  and  O_12
REMARK   10  A    between atoms: C_11  and  C_13
REMARK   11  A    between atoms: C_13  and  N_14
REMARK   12  A    between atoms: N_14  and  C_15
REMARK   13  A    between atoms: N_14  and  C_16
REMARK   14  A    between atoms: C_22  and  C_23
REMARK   15  A    between atoms: C_23  and  N_24
REMARK   16  A    between atoms: N_24  and  C_25
REMARK   17  A    between atoms: C_25  and  C_26
REMARK                            x       y       z     vdW  Elec       q    Type
REMARK                         _______ _______ _______ _____ _____    ______ ____
ROOT
ATOM      1  C   UNL     1      45.367   9.032  12.649  0.00  0.00    +0.000 C 
ENDROOT
BRANCH   1   2
ATOM      2  C   UNL     1      45.213   7.545  12.348  0.00  0.00    +0.000 A 
ATOM      3  C   UNL     1      44.169   7.102  11.519  0.00  0.00    +0.000 A 
ATOM      4  C   UNL     1      44.039   5.746  11.196  0.00  0.00    +0.000 A 
ATOM      5  C   UNL     1      44.949   4.802  11.692  0.00  0.00    +0.000 A 
ATOM      6  C   UNL     1      45.967   5.237  12.548  0.00  0.00    +0.000 A 
ATOM      7  C   UNL     1      46.085   6.586  12.887  0.00  0.00    +0.000 A 
BRANCH   5   8
ATOM      8  C   UNL     1      44.827   3.340  11.330  0.00  0.00    +0.000 C 
BRANCH   8   9
ATOM      9  N   UNL     1      44.152   3.172  10.045  0.00  0.00    +0.000 NA
ATOM     10  H   UNL     1      44.431   3.935   9.427  0.00  0.00    +0.000 HD
BRANCH   9  11
ATOM     11  C   UNL     1      44.540   1.907   9.411  0.00  0.00    +0.000 C 
BRANCH  11  12
ATOM     12  C   UNL     1      45.633   2.105   8.378  0.00  0.00    +0.000 A 
ATOM     13  C   UNL     1      45.765   3.333   7.730  0.00  0.00    +0.000 A 
ATOM     14  C   UNL     1      46.786   3.497   6.799  0.00  0.00    +0.000 A 
ATOM     15  C   UNL     1      47.640   2.434   6.534  0.00  0.00    +0.000 A 
ATOM     16  C   UNL     1      47.438   1.246   7.217  0.00  0.00    +0.000 A 
ATOM     17  N   UNL     1      46.462   1.057   8.130  0.00  0.00    +0.000 NA
ENDBRANCH  11  12
ENDBRANCH   9  11
ENDBRANCH   8   9
ENDBRANCH   5   8
ENDBRANCH   1   2
BRANCH   1  18
ATOM     18  N   UNL     1      46.723   9.279  13.197  0.00  0.00    +0.000 NA
ATOM     19  H   UNL     1      46.626   9.853  14.034  0.00  0.00    +0.000 HD
BRANCH  18  20
ATOM     20  C   UNL     1      47.552   9.993  12.228  0.00  0.00    +0.000 C 
BRANCH  20  21
ATOM     21  C   UNL     1      48.900   9.396  11.921  0.00  0.00    +0.000 A 
ATOM     22  C   UNL     1      49.130   8.026  11.762  0.00  0.00    +0.000 A 
ATOM     23  C   UNL     1      50.370   7.566  11.303  0.00  0.00    +0.000 A 
ATOM     24  C   UNL     1      51.395   8.470  10.987  0.00  0.00    +0.000 A 
ATOM     25  C   UNL     1      51.154   9.842  11.146  0.00  0.00    +0.000 A 
ATOM     26  C   UNL     1      49.927  10.297  11.609  0.00  0.00    +0.000 A 
BRANCH  24  27
ATOM     27  C   UNL     1      52.735   7.980  10.464  0.00  0.00    +0.000 C 
BRANCH  27  28
ATOM     28  O   UNL     1      53.186   6.938  11.337  0.00  0.00    +0.000 OA
ATOM     29  H   UNL     1      53.665   6.286  10.804  0.00  0.00    +0.000 HD
ENDBRANCH  27  28
BRANCH  27  30
ATOM     30  C   UNL     1      52.586   7.493   8.991  0.00  0.00    +0.000 C 
BRANCH  30  31
ATOM     31  N   UNL     1      53.453   6.380   8.539  0.00  0.00    +0.000 NA
ATOM     32  C   UNL     1      53.004   5.827   7.260  0.00  0.00    +0.000 C 
ATOM     33  C   UNL     1      54.828   6.871   8.405  0.00  0.00    +0.000 C 
ENDBRANCH  30  31
ENDBRANCH  27  30
ENDBRANCH  24  27
ENDBRANCH  20  21
ENDBRANCH  18  20
ENDBRANCH   1  18
BRANCH   1  34
ATOM     34  C   UNL     1      45.054   9.935  11.421  0.00  0.00    +0.000 C 
BRANCH  34  36
ATOM     35  C   UNL     1      42.667  10.303  10.631  0.00  0.00    +0.000 C 
ATOM     36  C   UNL     1      43.796  10.800  11.524  0.00  0.00    +0.000 C 
ENDBRANCH  34  36
ENDBRANCH   1  34
TORSDOF 14
ENDMDL
MODEL 7
REMARK VINA RESULT:    -5.934      2.583      5.293
REMARK INTER + INTRA:         -12.951
REMARK INTER:                 -10.781
REMARK INTRA:                  -2.170
REMARK UNBOUND:                -2.334
REMARK  Name = 
REMARK  17 active torsions:
REMARK  status: ('A' for Active; 'I' for Inactive)
REMARK    1  A    between atoms: C_1  and  C_2
REMARK    2  A    between atoms: C_2  and  C_3
REMARK    3  A    between atoms: C_3  and  C_4
REMARK    4  A    between atoms: C_4  and  N_5
REMARK    5  A    between atoms: C_4  and  C_19
REMARK    6  A    between atoms: N_5  and  C_6
REMARK    7  A    between atoms: C_6  and  C_7
REMARK    8  A    between atoms: C_10  and  C_11
REMARK    9  A    between atoms: C_11  and  O_12
REMARK   10  A    between atoms: C_11  and  C_13
REMARK   11  A    between atoms: C_13  and  N_14
REMARK   12  A    between atoms: N_14  and  C_15
REMARK   13  A    between atoms: N_14  and  C_16
REMARK   14  A    between atoms: C_22  and  C_23
REMARK   15  A    between atoms: C_23  and  N_24
REMARK   16  A    between atoms: N_24  and  C_25
REMARK   17  A    between atoms: C_25  and  C_26
REMARK                            x       y       z     vdW  Elec       q    Type
REMARK                         _______ _______ _______ _____ _____    ______ ____
ROOT
ATOM      1  C   UNL     1      47.881   8.052  13.556  0.00  0.00    +0.000 C 
ENDROOT
BRANCH   1   2
ATOM      2  C   UNL     1      48.725   7.934  14.822  0.00  0.00    +0.000 A 
ATOM      3  C   UNL     1      48.304   8.560  16.006  0.00  0.00    +0.000 A 
ATOM      4  C   UNL     1      49.042   8.425  17.188  0.00  0.00    +0.000 A 
ATOM      5  C   UNL     1      50.216   7.659  17.214  0.00  0.00    +0.000 A 
ATOM      6  C   UNL     1      50.656   7.066  16.027  0.00  0.00    +0.000 A 
ATOM      7  C   UNL     1      49.932   7.218  14.843  0.00  0.00    +0.000 A 
BRANCH   5   8
ATOM      8  C   UNL     1      51.005   7.492  18.491  0.00  0.00    +0.000 C 
BRANCH   8   9
ATOM      9  N   UNL     1      50.367   6.525  19.381  0.00  0.00    +0.000 NA
ATOM     10  H   UNL     1      49.355   6.585  19.257  0.00  0.00    +0.000 HD
BRANCH   9  11
ATOM     11  C   UNL     1      50.785   5.157  19.055  0.00  0.00    +0.000 C 
BRANCH  11  12
ATOM     12  C   UNL     1      49.689   4.384  18.348  0.00  0.00    +0.000 A 
ATOM     13  C   UNL     1      48.380   4.867  18.354  0.00  0.00    +0.000 A 
ATOM     14  C   UNL     1      47.394   4.151  17.683  0.00  0.00    +0.000 A 
ATOM     15  C   UNL     1      47.736   2.972  17.033  0.00  0.00    +0.000 A 
ATOM     16  C   UNL     1      49.057   2.558  17.078  0.00  0.00    +0.000 A 
ATOM     17  N   UNL     1      50.038   3.234  17.715  0.00  0.00    +0.000 NA
ENDBRANCH  11  12
ENDBRANCH   9  11
ENDBRANCH   8   9
ENDBRANCH   5   8
ENDBRANCH   1   2
BRANCH   1  18
ATOM     18  N   UNL     1      46.587   8.692  13.894  0.00  0.00    +0.000 NA
ATOM     19  H   UNL     1      46.254   8.292  14.771  0.00  0.00    +0.000 HD
BRANCH  18  20
ATOM     20  C   UNL     1      45.595   8.437  12.851  0.00  0.00    +0.000 C 
BRANCH  20  21
ATOM     21  C   UNL     1      45.433   7.008  12.406  0.00  0.00    +0.000 A 
ATOM     22  C   UNL     1      44.930   5.988  13.220  0.00  0.00    +0.000 A 
ATOM     23  C   UNL     1      44.643   4.729  12.680  0.00  0.00    +0.000 A 
ATOM     24  C   UNL     1      44.846   4.474  11.315  0.00  0.00    +0.000 A 
ATOM     25  C   UNL     1      45.347   5.503  10.506  0.00  0.00    +0.000 A 
ATOM     26  C   UNL     1      45.639   6.749  11.044  0.00  0.00    +0.000 A 
BRANCH  24  27
ATOM     27  C   UNL     1      44.514   3.118  10.716  0.00  0.00    +0.000 C 
BRANCH  27  28
ATOM     28  O   UNL     1      43.212   2.746  11.182  0.00  0.00    +0.000 OA
ATOM     29  H   UNL     1      43.034   3.236  11.998  0.00  0.00    +0.000 HD
ENDBRANCH  27  28
BRANCH  27  30
ATOM     30  C   UNL     1      44.586   3.190   9.161  0.00  0.00    +0.000 C 
BRANCH  30  31
ATOM     31  N   UNL     1      45.844   2.760   8.506  0.00  0.00    +0.000 NA
ATOM     32  C   UNL     1      45.881   1.311   8.302  0.00  0.00    +0.000 C 
ATOM     33  C   UNL     1      45.966   3.441   7.214  0.00  0.00    +0.000 C 
ENDBRANCH  30  31
ENDBRANCH  27  30
ENDBRANCH  24  27
ENDBRANCH  20  21
ENDBRANCH  18  20
ENDBRANCH   1  18
BRANCH   1  34
ATOM     34  C   UNL     1      48.620   8.787  12.401  0.00  0.00    +0.000 C 
BRANCH  34  36
ATOM     35  C   UNL     1      50.757   8.032  11.254  0.00  0.00    +0.000 C 
ATOM     36  C   UNL     1      49.242   7.895  11.325  0.00  0.00    +0.000 C 
ENDBRANCH  34  36
ENDBRANCH   1  34
TORSDOF 14
ENDMDL
MODEL 8
REMARK VINA RESULT:    -5.903      3.600      6.758
REMARK INTER + INTRA:         -12.897
REMARK INTER:                 -10.357
REMARK INTRA:                  -2.539
REMARK UNBOUND:                -2.334
REMARK  Name = 
REMARK  17 active torsions:
REMARK  status: ('A' for Active; 'I' for Inactive)
REMARK    1  A    between atoms: C_1  and  C_2
REMARK    2  A    between atoms: C_2  and  C_3
REMARK    3  A    between atoms: C_3  and  C_4
REMARK    4  A    between atoms: C_4  and  N_5
REMARK    5  A    between atoms: C_4  and  C_19
REMARK    6  A    between atoms: N_5  and  C_6
REMARK    7  A    between atoms: C_6  and  C_7
REMARK    8  A    between atoms: C_10  and  C_11
REMARK    9  A    between atoms: C_11  and  O_12
REMARK   10  A    between atoms: C_11  and  C_13
REMARK   11  A    between atoms: C_13  and  N_14
REMARK   12  A    between atoms: N_14  and  C_15
REMARK   13  A    between atoms: N_14  and  C_16
REMARK   14  A    between atoms: C_22  and  C_23
REMARK   15  A    between atoms: C_23  and  N_24
REMARK   16  A    between atoms: N_24  and  C_25
REMARK   17  A    between atoms: C_25  and  C_26
REMARK                            x       y       z     vdW  Elec       q    Type
REMARK                         _______ _______ _______ _____ _____    ______ ____
ROOT
ATOM      1  C   UNL     1      50.108   8.312  14.428  0.00  0.00    +0.000 C 
ENDROOT
BRANCH   1   2
ATOM      2  C   UNL     1      49.899   7.937  15.892  0.00  0.00    +0.000 A 
ATOM      3  C   UNL     1      50.894   7.225  16.583  0.00  0.00    +0.000 A 
ATOM      4  C   UNL     1      50.738   6.912  17.938  0.00  0.00    +0.000 A 
ATOM      5  C   UNL     1      49.588   7.305  18.635  0.00  0.00    +0.000 A 
ATOM      6  C   UNL     1      48.580   7.981  17.940  0.00  0.00    +0.000 A 
ATOM      7  C   UNL     1      48.725   8.276  16.583  0.00  0.00    +0.000 A 
BRANCH   5   8
ATOM      8  C   UNL     1      49.424   6.989  20.104  0.00  0.00    +0.000 C 
BRANCH   8   9
ATOM      9  N   UNL     1      48.329   6.046  20.319  0.00  0.00    +0.000 NA
ATOM     10  H   UNL     1      47.605   6.220  19.620  0.00  0.00    +0.000 HD
BRANCH   9  11
ATOM     11  C   UNL     1      48.791   4.662  20.161  0.00  0.00    +0.000 C 
BRANCH  11  12
ATOM     12  C   UNL     1      48.481   4.117  18.780  0.00  0.00    +0.000 A 
ATOM     13  C   UNL     1      49.340   3.193  18.186  0.00  0.00    +0.000 A 
ATOM     14  C   UNL     1      49.026   2.694  16.926  0.00  0.00    +0.000 A 
ATOM     15  C   UNL     1      47.872   3.134  16.290  0.00  0.00    +0.000 A 
ATOM     16  C   UNL     1      47.074   4.058  16.946  0.00  0.00    +0.000 A 
ATOM     17  N   UNL     1      47.348   4.555  18.171  0.00  0.00    +0.000 NA
ENDBRANCH  11  12
ENDBRANCH   9  11
ENDBRANCH   8   9
ENDBRANCH   5   8
ENDBRANCH   1   2
BRANCH   1  18
ATOM     18  N   UNL     1      49.963   7.097  13.591  0.00  0.00    +0.000 NA
ATOM     19  H   UNL     1      50.875   6.879  13.189  0.00  0.00    +0.000 HD
BRANCH  18  20
ATOM     20  C   UNL     1      49.011   7.325  12.505  0.00  0.00    +0.000 C 
BRANCH  20  21
ATOM     21  C   UNL     1      47.728   6.541  12.554  0.00  0.00    +0.000 A 
ATOM     22  C   UNL     1      47.331   5.759  13.644  0.00  0.00    +0.000 A 
ATOM     23  C   UNL     1      46.045   5.205  13.686  0.00  0.00    +0.000 A 
ATOM     24  C   UNL     1      45.134   5.435  12.644  0.00  0.00    +0.000 A 
ATOM     25  C   UNL     1      45.539   6.223  11.558  0.00  0.00    +0.000 A 
ATOM     26  C   UNL     1      46.817   6.764  11.513  0.00  0.00    +0.000 A 
BRANCH  24  27
ATOM     27  C   UNL     1      43.729   4.859  12.695  0.00  0.00    +0.000 C 
BRANCH  27  28
ATOM     28  O   UNL     1      42.899   5.801  13.383  0.00  0.00    +0.000 OA
ATOM     29  H   UNL     1      41.975   5.550  13.237  0.00  0.00    +0.000 HD
ENDBRANCH  27  28
BRANCH  27  30
ATOM     30  C   UNL     1      43.221   4.566  11.251  0.00  0.00    +0.000 C 
BRANCH  30  31
ATOM     31  N   UNL     1      43.329   3.177  10.747  0.00  0.00    +0.000 NA
ATOM     32  C   UNL     1      44.479   3.011   9.857  0.00  0.00    +0.000 C 
ATOM     33  C   UNL     1      43.455   2.265  11.888  0.00  0.00    +0.000 C 
ENDBRANCH  30  31
ENDBRANCH  27  30
ENDBRANCH  24  27
ENDBRANCH  20  21
ENDBRANCH  18  20
ENDBRANCH   1  18
BRANCH   1  34
ATOM     34  C   UNL     1      49.178   9.467  13.959  0.00  0.00    +0.000 C 
BRANCH  34  36
ATOM     35  C   UNL     1      51.230  10.931  14.268  0.00  0.00    +0.000 C 
ATOM     36  C   UNL     1      49.867  10.785  13.605  0.00  0.00    +0.000 C 
ENDBRANCH  34  36
ENDBRANCH   1  34
TORSDOF 14
ENDMDL
MODEL 9
REMARK VINA RESULT:    -5.641      3.556      6.928
REMARK INTER + INTRA:         -12.427
REMARK INTER:                  -9.750
REMARK INTRA:                  -2.678
REMARK UNBOUND:                -2.334
REMARK  Name = 
REMARK  17 active torsions:
REMARK  status: ('A' for Active; 'I' for Inactive)
REMARK    1  A    between atoms: C_1  and  C_2
REMARK    2  A    between atoms: C_2  and  C_3
REMARK    3  A    between atoms: C_3  and  C_4
REMARK    4  A    between atoms: C_4  and  N_5
REMARK    5  A    between atoms: C_4  and  C_19
REMARK    6  A    between atoms: N_5  and  C_6
REMARK    7  A    between atoms: C_6  and  C_7
REMARK    8  A    between atoms: C_10  and  C_11
REMARK    9  A    between atoms: C_11  and  O_12
REMARK   10  A    between atoms: C_11  and  C_13
REMARK   11  A    between atoms: C_13  and  N_14
REMARK   12  A    between atoms: N_14  and  C_15
REMARK   13  A    between atoms: N_14  and  C_16
REMARK   14  A    between atoms: C_22  and  C_23
REMARK   15  A    between atoms: C_23  and  N_24
REMARK   16  A    between atoms: N_24  and  C_25
REMARK   17  A    between atoms: C_25  and  C_26
REMARK                            x       y       z     vdW  Elec       q    Type
REMARK                         _______ _______ _______ _____ _____    ______ ____
ROOT
ATOM      1  C   UNL     1      50.318   7.726  14.807  0.00  0.00    +0.000 C 
ENDROOT
BRANCH   1   2
ATOM      2  C   UNL     1      49.995   6.778  15.957  0.00  0.00    +0.000 A 
ATOM      3  C   UNL     1      48.661   6.585  16.353  0.00  0.00    +0.000 A 
ATOM      4  C   UNL     1      48.342   5.684  17.376  0.00  0.00    +0.000 A 
ATOM      5  C   UNL     1      49.347   4.954  18.025  0.00  0.00    +0.000 A 
ATOM      6  C   UNL     1      50.679   5.172  17.657  0.00  0.00    +0.000 A 
ATOM      7  C   UNL     1      51.000   6.086  16.651  0.00  0.00    +0.000 A 
BRANCH   5   8
ATOM      8  C   UNL     1      49.008   3.965  19.115  0.00  0.00    +0.000 C 
BRANCH   8   9
ATOM      9  N   UNL     1      49.698   4.296  20.358  0.00  0.00    +0.000 NA
ATOM     10  H   UNL     1      50.513   4.870  20.137  0.00  0.00    +0.000 HD
BRANCH   9  11
ATOM     11  C   UNL     1      48.827   5.068  21.253  0.00  0.00    +0.000 C 
BRANCH  11  12
ATOM     12  C   UNL     1      48.766   6.531  20.857  0.00  0.00    +0.000 A 
ATOM     13  C   UNL     1      49.945   7.252  20.668  0.00  0.00    +0.000 A 
ATOM     14  C   UNL     1      49.864   8.587  20.288  0.00  0.00    +0.000 A 
ATOM     15  C   UNL     1      48.615   9.170  20.115  0.00  0.00    +0.000 A 
ATOM     16  C   UNL     1      47.493   8.386  20.327  0.00  0.00    +0.000 A 
ATOM     17  N   UNL     1      47.538   7.086  20.689  0.00  0.00    +0.000 NA
ENDBRANCH  11  12
ENDBRANCH   9  11
ENDBRANCH   8   9
ENDBRANCH   5   8
ENDBRANCH   1   2
BRANCH   1  18
ATOM     18  N   UNL     1      49.967   7.071  13.524  0.00  0.00    +0.000 NA
ATOM     19  H   UNL     1      50.795   7.078  12.928  0.00  0.00    +0.000 HD
BRANCH  18  20
ATOM     20  C   UNL     1      48.894   7.797  12.847  0.00  0.00    +0.000 C 
BRANCH  20  21
ATOM     21  C   UNL     1      47.518   7.190  12.917  0.00  0.00    +0.000 A 
ATOM     22  C   UNL     1      46.356   7.835  12.480  0.00  0.00    +0.000 A 
ATOM     23  C   UNL     1      45.143   7.138  12.414  0.00  0.00    +0.000 A 
ATOM     24  C   UNL     1      45.077   5.784  12.774  0.00  0.00    +0.000 A 
ATOM     25  C   UNL     1      46.247   5.145  13.207  0.00  0.00    +0.000 A 
ATOM     26  C   UNL     1      47.447   5.839  13.281  0.00  0.00    +0.000 A 
BRANCH  24  27
ATOM     27  C   UNL     1      43.770   5.015  12.680  0.00  0.00    +0.000 C 
BRANCH  27  28
ATOM     28  O   UNL     1      42.786   5.740  13.425  0.00  0.00    +0.000 OA
ATOM     29  H   UNL     1      42.467   6.468  12.871  0.00  0.00    +0.000 HD
ENDBRANCH  27  28
BRANCH  27  30
ATOM     30  C   UNL     1      43.365   4.833  11.186  0.00  0.00    +0.000 C 
BRANCH  30  31
ATOM     31  N   UNL     1      43.443   3.470  10.609  0.00  0.00    +0.000 NA
ATOM     32  C   UNL     1      44.685   3.269   9.861  0.00  0.00    +0.000 C 
ATOM     33  C   UNL     1      43.359   2.488  11.693  0.00  0.00    +0.000 C 
ENDBRANCH  30  31
ENDBRANCH  27  30
ENDBRANCH  24  27
ENDBRANCH  20  21
ENDBRANCH  18  20
ENDBRANCH   1  18
BRANCH   1  34
ATOM     34  C   UNL     1      49.643   9.120  14.962  0.00  0.00    +0.000 C 
BRANCH  34  36
ATOM     35  C   UNL     1      48.911  10.748  16.769  0.00  0.00    +0.000 C 
ATOM     36  C   UNL     1      50.060   9.938  16.185  0.00  0.00    +0.000 C 
ENDBRANCH  34  36
ENDBRANCH   1  34
TORSDOF 14
ENDMDL
