MODEL 1
REMARK VINA RESULT:    -6.294      0.000      0.000
REMARK INTER + INTRA:          -9.201
REMARK INTER:                  -8.685
REMARK INTRA:                  -0.515
REMARK UNBOUND:                -0.515
REMARK  Name = 
REMARK  8 active torsions:
REMARK  status: ('A' for Active; 'I' for Inactive)
REMARK    1  A    between atoms: C_1  and  C_2
REMARK    2  A    between atoms: C_2  and  C_3
REMARK    3  A    between atoms: C_3  and  N_4
REMARK    4  A    between atoms: N_4  and  C_5
REMARK    5  A    between atoms: C_8  and  C_9
REMARK    6  A    between atoms: C_10  and  C_11
REMARK    7  A    between atoms: C_15  and  C_16
REMARK    8  A    between atoms: C_16  and  N_17
REMARK                            x       y       z     vdW  Elec       q    Type
REMARK                         _______ _______ _______ _____ _____    ______ ____
ROOT
ATOM      1  C   UNL     1      44.714   4.643  10.829  0.00  0.00    +0.000 A 
ATOM      2  N   UNL     1      45.662   5.599  10.972  0.00  0.00    +0.000 NA
ATOM      3  C   UNL     1      46.314   5.637  12.160  0.00  0.00    +0.000 A 
ATOM      4  C   UNL     1      46.065   4.745  13.199  0.00  0.00    +0.000 A 
ATOM      5  N   UNL     1      45.115   3.790  13.087  0.00  0.00    +0.000 NA
ATOM      6  C   UNL     1      44.445   3.777  11.907  0.00  0.00    +0.000 A 
ATOM      7 CL   UNL     1      43.272   2.521  11.798  0.00  0.00    +0.000 Cl
ENDROOT
BRANCH   1   8
ATOM      8  N   UNL     1      43.975   4.589   9.626  0.00  0.00    +0.000 N 
ATOM      9  H   UNL     1      43.146   4.012   9.769  0.00  0.00    +0.000 HD
BRANCH   8  10
ATOM     10  C   UNL     1      44.777   4.127   8.494  0.00  0.00    +0.000 C 
BRANCH  10  12
ATOM     11  C   UNL     1      46.250   2.209   7.834  0.00  0.00    +0.000 C 
ATOM     12  C   UNL     1      44.993   2.621   8.588  0.00  0.00    +0.000 C 
ENDBRANCH  10  12
ENDBRANCH   8  10
ENDBRANCH   1   8
BRANCH   4  13
ATOM     13  C   UNL     1      46.822   4.832  14.454  0.00  0.00    +0.000 C 
ATOM     14  C   UNL     1      47.078   3.777  15.245  0.00  0.00    +0.000 C 
BRANCH  14  15
ATOM     15  C   UNL     1      47.756   3.850  16.549  0.00  0.00    +0.000 A 
ATOM     16  C   UNL     1      48.768   2.951  16.914  0.00  0.00    +0.000 A 
ATOM     17  C   UNL     1      49.467   3.118  18.109  0.00  0.00    +0.000 A 
ATOM     18  C   UNL     1      49.179   4.195  18.946  0.00  0.00    +0.000 A 
ATOM     19  C   UNL     1      48.163   5.105  18.615  0.00  0.00    +0.000 A 
ATOM     20  C   UNL     1      47.463   4.919  17.411  0.00  0.00    +0.000 A 
BRANCH  19  21
ATOM     21  C   UNL     1      47.895   6.335  19.448  0.00  0.00    +0.000 C 
BRANCH  21  22
ATOM     22  N   UNL     1      47.224   7.405  18.713  0.00  0.00    +0.000 NA
ATOM     23  H   UNL     1      46.472   7.775  19.293  0.00  0.00    +0.000 HD
ATOM     24  H   UNL     1      46.780   7.010  17.887  0.00  0.00    +0.000 HD
ENDBRANCH  21  22
ENDBRANCH  19  21
ENDBRANCH  14  15
ENDBRANCH   4  13
TORSDOF 7
ENDMDL
MODEL 2
REMARK VINA RESULT:    -5.925      3.115      8.663
REMARK INTER + INTRA:          -8.691
REMARK INTER:                  -8.082
REMARK INTRA:                  -0.609
REMARK UNBOUND:                -0.515
REMARK  Name = 
REMARK  8 active torsions:
REMARK  status: ('A' for Active; 'I' for Inactive)
REMARK    1  A    between atoms: C_1  and  C_2
REMARK    2  A    between atoms: C_2  and  C_3
REMARK    3  A    between atoms: C_3  and  N_4
REMARK    4  A    between atoms: N_4  and  C_5
REMARK    5  A    between atoms: C_8  and  C_9
REMARK    6  A    between atoms: C_10  and  C_11
REMARK    7  A    between atoms: C_15  and  C_16
REMARK    8  A    between atoms: C_16  and  N_17
REMARK                            x       y       z     vdW  Elec       q    Type
REMARK                         _______ _______ _______ _____ _____    ______ ____
ROOT
ATOM      1  C   UNL     1      49.199   4.296  18.655  0.00  0.00    +0.000 A 
ATOM      2  N   UNL     1      48.096   3.515  18.576  0.00  0.00    +0.000 NA
ATOM      3  C   UNL     1      47.416   3.538  17.404  0.00  0.00    +0.000 A 
ATOM      4  C   UNL     1      47.807   4.299  16.306  0.00  0.00    +0.000 A 
ATOM      5  N   UNL     1      48.897   5.097  16.363  0.00  0.00    +0.000 NA
ATOM      6  C   UNL     1      49.556   5.093  17.549  0.00  0.00    +0.000 A 
ATOM      7 CL   UNL     1      50.956   6.095  17.560  0.00  0.00    +0.000 Cl
ENDROOT
BRANCH   1   8
ATOM      8  N   UNL     1      49.919   4.342  19.871  0.00  0.00    +0.000 N 
ATOM      9  H   UNL     1      50.412   3.458  19.999  0.00  0.00    +0.000 HD
BRANCH   8  10
ATOM     10  C   UNL     1      49.068   4.668  21.014  0.00  0.00    +0.000 C 
BRANCH  10  12
ATOM     11  C   UNL     1      47.376   6.518  20.988  0.00  0.00    +0.000 C 
ATOM     12  C   UNL     1      48.856   6.176  21.093  0.00  0.00    +0.000 C 
ENDBRANCH  10  12
ENDBRANCH   8  10
ENDBRANCH   1   8
BRANCH   4  13
ATOM     13  C   UNL     1      47.033   4.263  15.060  0.00  0.00    +0.000 C 
ATOM     14  C   UNL     1      47.052   5.244  14.143  0.00  0.00    +0.000 C 
BRANCH  14  15
ATOM     15  C   UNL     1      46.219   5.275  12.929  0.00  0.00    +0.000 A 
ATOM     16  C   UNL     1      46.531   6.090  11.832  0.00  0.00    +0.000 A 
ATOM     17  C   UNL     1      45.786   6.011  10.656  0.00  0.00    +0.000 A 
ATOM     18  C   UNL     1      44.734   5.103  10.552  0.00  0.00    +0.000 A 
ATOM     19  C   UNL     1      44.388   4.283  11.636  0.00  0.00    +0.000 A 
ATOM     20  C   UNL     1      45.144   4.379  12.817  0.00  0.00    +0.000 A 
BRANCH  19  21
ATOM     21  C   UNL     1      43.320   3.222  11.522  0.00  0.00    +0.000 C 
BRANCH  21  22
ATOM     22  N   UNL     1      43.524   2.088  12.421  0.00  0.00    +0.000 NA
ATOM     23  H   UNL     1      44.015   1.354  11.911  0.00  0.00    +0.000 HD
ATOM     24  H   UNL     1      42.618   1.702  12.677  0.00  0.00    +0.000 HD
ENDBRANCH  21  22
ENDBRANCH  19  21
ENDBRANCH  14  15
ENDBRANCH   4  13
TORSDOF 7
ENDMDL
MODEL 3
REMARK VINA RESULT:    -5.764      1.713      2.044
REMARK INTER + INTRA:          -8.469
REMARK INTER:                  -7.975
REMARK INTRA:                  -0.494
REMARK UNBOUND:                -0.515
REMARK  Name = 
REMARK  8 active torsions:
REMARK  status: ('A' for Active; 'I' for Inactive)
REMARK    1  A    between atoms: C_1  and  C_2
REMARK    2  A    between atoms: C_2  and  C_3
REMARK    3  A    between atoms: C_3  and  N_4
REMARK    4  A    between atoms: N_4  and  C_5
REMARK    5  A    between atoms: C_8  and  C_9
REMARK    6  A    between atoms: C_10  and  C_11
REMARK    7  A    between atoms: C_15  and  C_16
REMARK    8  A    between atoms: C_16  and  N_17
REMARK                            x       y       z     vdW  Elec       q    Type
REMARK                         _______ _______ _______ _____ _____    ______ ____
ROOT
ATOM      1  C   UNL     1      44.647   4.517  10.554  0.00  0.00    +0.000 A 
ATOM      2  N   UNL     1      45.563   5.511  10.628  0.00  0.00    +0.000 NA
ATOM      3  C   UNL     1      46.181   5.682  11.821  0.00  0.00    +0.000 A 
ATOM      4  C   UNL     1      45.930   4.886  12.935  0.00  0.00    +0.000 A 
ATOM      5  N   UNL     1      45.011   3.895  12.892  0.00  0.00    +0.000 NA
ATOM      6  C   UNL     1      44.374   3.749  11.703  0.00  0.00    +0.000 A 
ATOM      7 CL   UNL     1      43.241   2.452  11.687  0.00  0.00    +0.000 Cl
ENDROOT
BRANCH   1   8
ATOM      8  N   UNL     1      43.942   4.326   9.343  0.00  0.00    +0.000 N 
ATOM      9  H   UNL     1      43.167   3.683   9.507  0.00  0.00    +0.000 HD
BRANCH   8  10
ATOM     10  C   UNL     1      44.808   3.877   8.255  0.00  0.00    +0.000 C 
BRANCH  10  12
ATOM     11  C   UNL     1      46.516   2.145   7.647  0.00  0.00    +0.000 C 
ATOM     12  C   UNL     1      45.339   2.479   8.553  0.00  0.00    +0.000 C 
ENDBRANCH  10  12
ENDBRANCH   8  10
ENDBRANCH   1   8
BRANCH   4  13
ATOM     13  C   UNL     1      46.650   5.115  14.193  0.00  0.00    +0.000 C 
ATOM     14  C   UNL     1      47.731   5.905  14.299  0.00  0.00    +0.000 C 
BRANCH  14  15
ATOM     15  C   UNL     1      48.523   6.084  15.527  0.00  0.00    +0.000 A 
ATOM     16  C   UNL     1      49.402   7.164  15.697  0.00  0.00    +0.000 A 
ATOM     17  C   UNL     1      50.050   7.365  16.915  0.00  0.00    +0.000 A 
ATOM     18  C   UNL     1      49.816   6.503  17.985  0.00  0.00    +0.000 A 
ATOM     19  C   UNL     1      48.953   5.406  17.843  0.00  0.00    +0.000 A 
ATOM     20  C   UNL     1      48.312   5.213  16.608  0.00  0.00    +0.000 A 
BRANCH  19  21
ATOM     21  C   UNL     1      48.602   4.514  19.010  0.00  0.00    +0.000 C 
BRANCH  21  22
ATOM     22  N   UNL     1      48.821   3.093  18.747  0.00  0.00    +0.000 NA
ATOM     23  H   UNL     1      49.747   2.979  18.336  0.00  0.00    +0.000 HD
ATOM     24  H   UNL     1      48.156   2.781  18.043  0.00  0.00    +0.000 HD
ENDBRANCH  21  22
ENDBRANCH  19  21
ENDBRANCH  14  15
ENDBRANCH   4  13
TORSDOF 7
ENDMDL
MODEL 4
REMARK VINA RESULT:    -5.719      1.568      1.765
REMARK INTER + INTRA:          -8.408
REMARK INTER:                  -7.922
REMARK INTRA:                  -0.486
REMARK UNBOUND:                -0.515
REMARK  Name = 
REMARK  8 active torsions:
REMARK  status: ('A' for Active; 'I' for Inactive)
REMARK    1  A    between atoms: C_1  and  C_2
REMARK    2  A    between atoms: C_2  and  C_3
REMARK    3  A    between atoms: C_3  and  N_4
REMARK    4  A    between atoms: N_4  and  C_5
REMARK    5  A    between atoms: C_8  and  C_9
REMARK    6  A    between atoms: C_10  and  C_11
REMARK    7  A    between atoms: C_15  and  C_16
REMARK    8  A    between atoms: C_16  and  N_17
REMARK                            x       y       z     vdW  Elec       q    Type
REMARK                         _______ _______ _______ _____ _____    ______ ____
ROOT
ATOM      1  C   UNL     1      44.739   4.316  11.473  0.00  0.00    +0.000 A 
ATOM      2  N   UNL     1      45.318   3.223  12.022  0.00  0.00    +0.000 NA
ATOM      3  C   UNL     1      46.108   3.430  13.104  0.00  0.00    +0.000 A 
ATOM      4  C   UNL     1      46.324   4.686  13.665  0.00  0.00    +0.000 A 
ATOM      5  N   UNL     1      45.768   5.795  13.129  0.00  0.00    +0.000 NA
ATOM      6  C   UNL     1      45.004   5.584  12.027  0.00  0.00    +0.000 A 
ATOM      7 CL   UNL     1      44.289   7.021  11.403  0.00  0.00    +0.000 Cl
ENDROOT
BRANCH   1   8
ATOM      8  N   UNL     1      43.942   4.159  10.317  0.00  0.00    +0.000 N 
ATOM      9  H   UNL     1      43.034   3.780  10.587  0.00  0.00    +0.000 HD
BRANCH   8  10
ATOM     10  C   UNL     1      44.595   3.347   9.291  0.00  0.00    +0.000 C 
BRANCH  10  12
ATOM     11  C   UNL     1      46.185   3.395   7.354  0.00  0.00    +0.000 C 
ATOM     12  C   UNL     1      45.447   4.233   8.388  0.00  0.00    +0.000 C 
ENDBRANCH  10  12
ENDBRANCH   8  10
ENDBRANCH   1   8
BRANCH   4  13
ATOM     13  C   UNL     1      47.178   4.836  14.849  0.00  0.00    +0.000 C 
ATOM     14  C   UNL     1      47.284   3.907  15.814  0.00  0.00    +0.000 C 
BRANCH  14  15
ATOM     15  C   UNL     1      48.063   4.068  17.053  0.00  0.00    +0.000 A 
ATOM     16  C   UNL     1      49.362   3.559  17.188  0.00  0.00    +0.000 A 
ATOM     17  C   UNL     1      50.113   3.827  18.332  0.00  0.00    +0.000 A 
ATOM     18  C   UNL     1      49.584   4.623  19.347  0.00  0.00    +0.000 A 
ATOM     19  C   UNL     1      48.282   5.135  19.249  0.00  0.00    +0.000 A 
ATOM     20  C   UNL     1      47.536   4.851  18.092  0.00  0.00    +0.000 A 
BRANCH  19  21
ATOM     21  C   UNL     1      47.718   6.080  20.283  0.00  0.00    +0.000 C 
BRANCH  21  22
ATOM     22  N   UNL     1      46.975   5.407  21.346  0.00  0.00    +0.000 NA
ATOM     23  H   UNL     1      46.081   5.880  21.467  0.00  0.00    +0.000 HD
ATOM     24  H   UNL     1      47.479   5.519  22.223  0.00  0.00    +0.000 HD
ENDBRANCH  21  22
ENDBRANCH  19  21
ENDBRANCH  14  15
ENDBRANCH   4  13
TORSDOF 7
ENDMDL
MODEL 5
REMARK VINA RESULT:    -5.558      2.986      8.842
REMARK INTER + INTRA:          -8.185
REMARK INTER:                  -7.772
REMARK INTRA:                  -0.414
REMARK UNBOUND:                -0.515
REMARK  Name = 
REMARK  8 active torsions:
REMARK  status: ('A' for Active; 'I' for Inactive)
REMARK    1  A    between atoms: C_1  and  C_2
REMARK    2  A    between atoms: C_2  and  C_3
REMARK    3  A    between atoms: C_3  and  N_4
REMARK    4  A    between atoms: N_4  and  C_5
REMARK    5  A    between atoms: C_8  and  C_9
REMARK    6  A    between atoms: C_10  and  C_11
REMARK    7  A    between atoms: C_15  and  C_16
REMARK    8  A    between atoms: C_16  and  N_17
REMARK                            x       y       z     vdW  Elec       q    Type
REMARK                         _______ _______ _______ _____ _____    ______ ____
ROOT
ATOM      1  C   UNL     1      49.304   4.019  18.508  0.00  0.00    +0.000 A 
ATOM      2  N   UNL     1      48.286   4.909  18.439  0.00  0.00    +0.000 NA
ATOM      3  C   UNL     1      47.546   4.901  17.304  0.00  0.00    +0.000 A 
ATOM      4  C   UNL     1      47.776   4.027  16.246  0.00  0.00    +0.000 A 
ATOM      5  N   UNL     1      48.793   3.137  16.284  0.00  0.00    +0.000 NA
ATOM      6  C   UNL     1      49.549   3.171  17.410  0.00  0.00    +0.000 A 
ATOM      7 CL   UNL     1      50.808   1.997  17.427  0.00  0.00    +0.000 Cl
ENDROOT
BRANCH   1   8
ATOM      8  N   UNL     1      50.133   4.017  19.653  0.00  0.00    +0.000 N 
ATOM      9  H   UNL     1      49.986   3.149  20.169  0.00  0.00    +0.000 HD
BRANCH   8  10
ATOM     10  C   UNL     1      49.932   5.196  20.493  0.00  0.00    +0.000 C 
BRANCH  10  12
ATOM     11  C   UNL     1      52.154   4.648  21.517  0.00  0.00    +0.000 C 
ATOM     12  C   UNL     1      50.712   5.048  21.795  0.00  0.00    +0.000 C 
ENDBRANCH  10  12
ENDBRANCH   8  10
ENDBRANCH   1   8
BRANCH   4  13
ATOM     13  C   UNL     1      46.924   4.061  15.051  0.00  0.00    +0.000 C 
ATOM     14  C   UNL     1      47.002   5.014  14.107  0.00  0.00    +0.000 C 
BRANCH  14  15
ATOM     15  C   UNL     1      46.103   5.123  12.947  0.00  0.00    +0.000 A 
ATOM     16  C   UNL     1      46.203   6.171  12.022  0.00  0.00    +0.000 A 
ATOM     17  C   UNL     1      45.412   6.182  10.874  0.00  0.00    +0.000 A 
ATOM     18  C   UNL     1      44.524   5.137  10.625  0.00  0.00    +0.000 A 
ATOM     19  C   UNL     1      44.390   4.080  11.537  0.00  0.00    +0.000 A 
ATOM     20  C   UNL     1      45.190   4.087  12.693  0.00  0.00    +0.000 A 
BRANCH  19  21
ATOM     21  C   UNL     1      43.512   2.886  11.249  0.00  0.00    +0.000 C 
BRANCH  21  22
ATOM     22  N   UNL     1      44.013   2.040  10.167  0.00  0.00    +0.000 NA
ATOM     23  H   UNL     1      45.030   2.001  10.230  0.00  0.00    +0.000 HD
ATOM     24  H   UNL     1      43.798   2.481   9.276  0.00  0.00    +0.000 HD
ENDBRANCH  21  22
ENDBRANCH  19  21
ENDBRANCH  14  15
ENDBRANCH   4  13
TORSDOF 7
ENDMDL
MODEL 6
REMARK VINA RESULT:    -5.556      2.182      2.734
REMARK INTER + INTRA:          -8.182
REMARK INTER:                  -7.721
REMARK INTRA:                  -0.461
REMARK UNBOUND:                -0.515
REMARK  Name = 
REMARK  8 active torsions:
REMARK  status: ('A' for Active; 'I' for Inactive)
REMARK    1  A    between atoms: C_1  and  C_2
REMARK    2  A    between atoms: C_2  and  C_3
REMARK    3  A    between atoms: C_3  and  N_4
REMARK    4  A    between atoms: N_4  and  C_5
REMARK    5  A    between atoms: C_8  and  C_9
REMARK    6  A    between atoms: C_10  and  C_11
REMARK    7  A    between atoms: C_15  and  C_16
REMARK    8  A    between atoms: C_16  and  N_17
REMARK                            x       y       z     vdW  Elec       q    Type
REMARK                         _______ _______ _______ _____ _____    ______ ____
ROOT
ATOM      1  C   UNL     1      44.784   4.616  11.044  0.00  0.00    +0.000 A 
ATOM      2  N   UNL     1      45.005   3.336  11.426  0.00  0.00    +0.000 NA
ATOM      3  C   UNL     1      45.725   3.154  12.560  0.00  0.00    +0.000 A 
ATOM      4  C   UNL     1      46.215   4.203  13.332  0.00  0.00    +0.000 A 
ATOM      5  N   UNL     1      46.020   5.490  12.967  0.00  0.00    +0.000 NA
ATOM      6  C   UNL     1      45.325   5.665  11.814  0.00  0.00    +0.000 A 
ATOM      7 CL   UNL     1      45.071   7.319  11.410  0.00  0.00    +0.000 Cl
ENDROOT
BRANCH   1   8
ATOM      8  N   UNL     1      44.076   4.859   9.845  0.00  0.00    +0.000 N 
ATOM      9  H   UNL     1      43.076   4.864  10.043  0.00  0.00    +0.000 HD
BRANCH   8  10
ATOM     10  C   UNL     1      44.422   3.911   8.787  0.00  0.00    +0.000 C 
BRANCH  10  12
ATOM     11  C   UNL     1      46.246   3.191   7.225  0.00  0.00    +0.000 C 
ATOM     12  C   UNL     1      45.768   4.281   8.174  0.00  0.00    +0.000 C 
ENDBRANCH  10  12
ENDBRANCH   8  10
ENDBRANCH   1   8
BRANCH   4  13
ATOM     13  C   UNL     1      46.973   3.934  14.559  0.00  0.00    +0.000 C 
ATOM     14  C   UNL     1      47.095   4.813  15.568  0.00  0.00    +0.000 C 
BRANCH  14  15
ATOM     15  C   UNL     1      47.920   4.605  16.769  0.00  0.00    +0.000 A 
ATOM     16  C   UNL     1      47.491   4.995  18.045  0.00  0.00    +0.000 A 
ATOM     17  C   UNL     1      48.246   4.680  19.174  0.00  0.00    +0.000 A 
ATOM     18  C   UNL     1      49.430   3.955  19.046  0.00  0.00    +0.000 A 
ATOM     19  C   UNL     1      49.894   3.561  17.782  0.00  0.00    +0.000 A 
ATOM     20  C   UNL     1      49.124   3.892  16.653  0.00  0.00    +0.000 A 
BRANCH  19  21
ATOM     21  C   UNL     1      51.117   2.691  17.619  0.00  0.00    +0.000 C 
BRANCH  21  22
ATOM     22  N   UNL     1      50.806   1.279  17.408  0.00  0.00    +0.000 NA
ATOM     23  H   UNL     1      50.753   1.104  16.405  0.00  0.00    +0.000 HD
ATOM     24  H   UNL     1      49.880   1.086  17.781  0.00  0.00    +0.000 HD
ENDBRANCH  21  22
ENDBRANCH  19  21
ENDBRANCH  14  15
ENDBRANCH   4  13
TORSDOF 7
ENDMDL
MODEL 7
REMARK VINA RESULT:    -5.134      3.183      8.512
REMARK INTER + INTRA:          -7.600
REMARK INTER:                  -7.144
REMARK INTRA:                  -0.456
REMARK UNBOUND:                -0.515
REMARK  Name = 
REMARK  8 active torsions:
REMARK  status: ('A' for Active; 'I' for Inactive)
REMARK    1  A    between atoms: C_1  and  C_2
REMARK    2  A    between atoms: C_2  and  C_3
REMARK    3  A    between atoms: C_3  and  N_4
REMARK    4  A    between atoms: N_4  and  C_5
REMARK    5  A    between atoms: C_8  and  C_9
REMARK    6  A    between atoms: C_10  and  C_11
REMARK    7  A    between atoms: C_15  and  C_16
REMARK    8  A    between atoms: C_16  and  N_17
REMARK                            x       y       z     vdW  Elec       q    Type
REMARK                         _______ _______ _______ _____ _____    ______ ____
ROOT
ATOM      1  C   UNL     1      49.707   4.020  18.311  0.00  0.00    +0.000 A 
ATOM      2  N   UNL     1      48.837   5.053  18.214  0.00  0.00    +0.000 NA
ATOM      3  C   UNL     1      47.979   5.030  17.166  0.00  0.00    +0.000 A 
ATOM      4  C   UNL     1      47.947   4.006  16.224  0.00  0.00    +0.000 A 
ATOM      5  N   UNL     1      48.813   2.970  16.290  0.00  0.00    +0.000 NA
ATOM      6  C   UNL     1      49.691   3.014  17.324  0.00  0.00    +0.000 A 
ATOM      7 CL   UNL     1      50.747   1.657  17.386  0.00  0.00    +0.000 Cl
ENDROOT
BRANCH   1   8
ATOM      8  N   UNL     1      50.653   4.019  19.361  0.00  0.00    +0.000 N 
ATOM      9  H   UNL     1      50.417   3.279  20.022  0.00  0.00    +0.000 HD
BRANCH   8  10
ATOM     10  C   UNL     1      50.768   5.322  20.013  0.00  0.00    +0.000 C 
BRANCH  10  12
ATOM     11  C   UNL     1      53.201   4.721  19.959  0.00  0.00    +0.000 C 
ATOM     12  C   UNL     1      52.189   5.855  19.868  0.00  0.00    +0.000 C 
ENDBRANCH  10  12
ENDBRANCH   8  10
ENDBRANCH   1   8
BRANCH   4  13
ATOM     13  C   UNL     1      46.978   4.036  15.122  0.00  0.00    +0.000 C 
ATOM     14  C   UNL     1      47.060   4.881  14.081  0.00  0.00    +0.000 C 
BRANCH  14  15
ATOM     15  C   UNL     1      46.056   4.993  13.010  0.00  0.00    +0.000 A 
ATOM     16  C   UNL     1      45.356   3.880  12.524  0.00  0.00    +0.000 A 
ATOM     17  C   UNL     1      44.333   4.038  11.590  0.00  0.00    +0.000 A 
ATOM     18  C   UNL     1      43.982   5.311  11.143  0.00  0.00    +0.000 A 
ATOM     19  C   UNL     1      44.672   6.444  11.599  0.00  0.00    +0.000 A 
ATOM     20  C   UNL     1      45.705   6.268  12.536  0.00  0.00    +0.000 A 
BRANCH  19  21
ATOM     21  C   UNL     1      44.251   7.841  11.212  0.00  0.00    +0.000 C 
BRANCH  21  22
ATOM     22  N   UNL     1      42.811   7.984  11.012  0.00  0.00    +0.000 NA
ATOM     23  H   UNL     1      42.584   8.978  10.984  0.00  0.00    +0.000 HD
ATOM     24  H   UNL     1      42.326   7.604  11.822  0.00  0.00    +0.000 HD
ENDBRANCH  21  22
ENDBRANCH  19  21
ENDBRANCH  14  15
ENDBRANCH   4  13
TORSDOF 7
ENDMDL
MODEL 8
REMARK VINA RESULT:    -4.902      4.981      6.771
REMARK INTER + INTRA:          -7.280
REMARK INTER:                  -6.782
REMARK INTRA:                  -0.499
REMARK UNBOUND:                -0.515
REMARK  Name = 
REMARK  8 active torsions:
REMARK  status: ('A' for Active; 'I' for Inactive)
REMARK    1  A    between atoms: C_1  and  C_2
REMARK    2  A    between atoms: C_2  and  C_3
REMARK    3  A    between atoms: C_3  and  N_4
REMARK    4  A    between atoms: N_4  and  C_5
REMARK    5  A    between atoms: C_8  and  C_9
REMARK    6  A    between atoms: C_10  and  C_11
REMARK    7  A    between atoms: C_15  and  C_16
REMARK    8  A    between atoms: C_16  and  N_17
REMARK                            x       y       z     vdW  Elec       q    Type
REMARK                         _______ _______ _______ _____ _____    ______ ____
ROOT
ATOM      1  C   UNL     1      45.790   4.985  13.348  0.00  0.00    +0.000 A 
ATOM      2  N   UNL     1      45.828   5.783  12.255  0.00  0.00    +0.000 NA
ATOM      3  C   UNL     1      46.965   6.495  12.060  0.00  0.00    +0.000 A 
ATOM      4  C   UNL     1      48.067   6.426  12.907  0.00  0.00    +0.000 A 
ATOM      5  N   UNL     1      48.051   5.647  14.012  0.00  0.00    +0.000 NA
ATOM      6  C   UNL     1      46.899   4.960  14.218  0.00  0.00    +0.000 A 
ATOM      7 CL   UNL     1      46.940   3.956  15.616  0.00  0.00    +0.000 Cl
ENDROOT
BRANCH   1   8
ATOM      8  N   UNL     1      44.611   4.255  13.621  0.00  0.00    +0.000 N 
ATOM      9  H   UNL     1      44.859   3.288  13.830  0.00  0.00    +0.000 HD
BRANCH   8  10
ATOM     10  C   UNL     1      43.631   4.350  12.541  0.00  0.00    +0.000 C 
BRANCH  10  12
ATOM     11  C   UNL     1      44.042   3.142  10.383  0.00  0.00    +0.000 C 
ATOM     12  C   UNL     1      43.528   3.015  11.810  0.00  0.00    +0.000 C 
ENDBRANCH  10  12
ENDBRANCH   8  10
ENDBRANCH   1   8
BRANCH   4  13
ATOM     13  C   UNL     1      49.274   7.213  12.626  0.00  0.00    +0.000 C 
ATOM     14  C   UNL     1      49.519   7.805  11.445  0.00  0.00    +0.000 C 
BRANCH  14  15
ATOM     15  C   UNL     1      50.758   8.524  11.107  0.00  0.00    +0.000 A 
ATOM     16  C   UNL     1      50.832   9.924  11.112  0.00  0.00    +0.000 A 
ATOM     17  C   UNL     1      52.049  10.570  10.898  0.00  0.00    +0.000 A 
ATOM     18  C   UNL     1      53.211   9.828  10.697  0.00  0.00    +0.000 A 
ATOM     19  C   UNL     1      53.169   8.426  10.673  0.00  0.00    +0.000 A 
ATOM     20  C   UNL     1      51.933   7.789  10.883  0.00  0.00    +0.000 A 
BRANCH  19  21
ATOM     21  C   UNL     1      54.423   7.593  10.557  0.00  0.00    +0.000 C 
BRANCH  21  22
ATOM     22  N   UNL     1      54.304   6.269  11.163  0.00  0.00    +0.000 NA
ATOM     23  H   UNL     1      54.824   5.603  10.592  0.00  0.00    +0.000 HD
ATOM     24  H   UNL     1      53.330   5.976  11.128  0.00  0.00    +0.000 HD
ENDBRANCH  21  22
ENDBRANCH  19  21
ENDBRANCH  14  15
ENDBRANCH   4  13
TORSDOF 7
ENDMDL
MODEL 9
REMARK VINA RESULT:    -4.702      2.508      3.422
REMARK INTER + INTRA:          -7.004
REMARK INTER:                  -6.509
REMARK INTRA:                  -0.495
REMARK UNBOUND:                -0.515
REMARK  Name = 
REMARK  8 active torsions:
REMARK  status: ('A' for Active; 'I' for Inactive)
REMARK    1  A    between atoms: C_1  and  C_2
REMARK    2  A    between atoms: C_2  and  C_3
REMARK    3  A    between atoms: C_3  and  N_4
REMARK    4  A    between atoms: N_4  and  C_5
REMARK    5  A    between atoms: C_8  and  C_9
REMARK    6  A    between atoms: C_10  and  C_11
REMARK    7  A    between atoms: C_15  and  C_16
REMARK    8  A    between atoms: C_16  and  N_17
REMARK                            x       y       z     vdW  Elec       q    Type
REMARK                         _______ _______ _______ _____ _____    ______ ____
ROOT
ATOM      1  C   UNL     1      46.399   5.275  12.784  0.00  0.00    +0.000 A 
ATOM      2  N   UNL     1      45.923   4.303  13.598  0.00  0.00    +0.000 NA
ATOM      3  C   UNL     1      46.529   4.167  14.802  0.00  0.00    +0.000 A 
ATOM      4  C   UNL     1      47.579   4.975  15.227  0.00  0.00    +0.000 A 
ATOM      5  N   UNL     1      48.082   5.944  14.429  0.00  0.00    +0.000 NA
ATOM      6  C   UNL     1      47.491   6.055  13.213  0.00  0.00    +0.000 A 
ATOM      7 CL   UNL     1      48.141   7.325  12.248  0.00  0.00    +0.000 Cl
ENDROOT
BRANCH   1   8
ATOM      8  N   UNL     1      45.830   5.429  11.499  0.00  0.00    +0.000 N 
ATOM      9  H   UNL     1      46.165   6.301  11.089  0.00  0.00    +0.000 HD
BRANCH   8  10
ATOM     10  C   UNL     1      44.371   5.356  11.520  0.00  0.00    +0.000 C 
BRANCH  10  12
ATOM     11  C   UNL     1      44.341   3.097  10.432  0.00  0.00    +0.000 C 
ATOM     12  C   UNL     1      43.872   4.542  10.330  0.00  0.00    +0.000 C 
ENDBRANCH  10  12
ENDBRANCH   8  10
ENDBRANCH   1   8
BRANCH   4  13
ATOM     13  C   UNL     1      48.179   4.783  16.553  0.00  0.00    +0.000 C 
ATOM     14  C   UNL     1      49.250   5.464  16.993  0.00  0.00    +0.000 C 
BRANCH  14  15
ATOM     15  C   UNL     1      49.924   5.230  18.280  0.00  0.00    +0.000 A 
ATOM     16  C   UNL     1      51.320   5.227  18.401  0.00  0.00    +0.000 A 
ATOM     17  C   UNL     1      51.924   5.115  19.653  0.00  0.00    +0.000 A 
ATOM     18  C   UNL     1      51.141   5.025  20.803  0.00  0.00    +0.000 A 
ATOM     19  C   UNL     1      49.741   5.012  20.715  0.00  0.00    +0.000 A 
ATOM     20  C   UNL     1      49.148   5.119  19.445  0.00  0.00    +0.000 A 
BRANCH  19  21
ATOM     21  C   UNL     1      48.866   5.016  21.946  0.00  0.00    +0.000 C 
BRANCH  21  22
ATOM     22  N   UNL     1      47.439   4.914  21.650  0.00  0.00    +0.000 NA
ATOM     23  H   UNL     1      47.200   5.623  20.957  0.00  0.00    +0.000 HD
ATOM     24  H   UNL     1      46.910   5.143  22.488  0.00  0.00    +0.000 HD
ENDBRANCH  21  22
ENDBRANCH  19  21
ENDBRANCH  14  15
ENDBRANCH   4  13
TORSDOF 7
ENDMDL
