MODEL 1
REMARK VINA RESULT:    -7.525      0.000      0.000
REMARK INTER + INTRA:         -12.101
REMARK INTER:                 -11.045
REMARK INTRA:                  -1.056
REMARK UNBOUND:                -1.056
REMARK  Name = 
REMARK  9 active torsions:
REMARK  status: ('A' for Active; 'I' for Inactive)
REMARK    1  A    between atoms: C_1  and  C_2
REMARK    2  A    between atoms: C_2  and  N_3
REMARK    3  A    between atoms: C_2  and  C_20
REMARK    4  A    between atoms: N_3  and  C_4
REMARK    5  A    between atoms: C_4  and  C_5
REMARK    6  A    between atoms: C_9  and  C_10
REMARK    7  A    between atoms: C_10  and  C_11
REMARK    8  A    between atoms: C_11  and  O_12
REMARK    9  A    between atoms: O_12  and  C_13
REMARK                            x       y       z     vdW  Elec       q    Type
REMARK                         _______ _______ _______ _____ _____    ______ ____
ROOT
ATOM      1  C   UNL     1      46.300   7.283  12.276  0.00  0.00    +0.000 C 
ENDROOT
BRANCH   1   2
ATOM      2  C   UNL     1      45.304   6.192  11.944  0.00  0.00    +0.000 A 
ATOM      3  C   UNL     1      44.264   5.868  12.820  0.00  0.00    +0.000 A 
ATOM      4  C   UNL     1      43.267   4.975  12.424  0.00  0.00    +0.000 A 
ATOM      5  C   UNL     1      43.308   4.390  11.155  0.00  0.00    +0.000 A 
ATOM      6  C   UNL     1      44.369   4.656  10.277  0.00  0.00    +0.000 A 
ATOM      7  C   UNL     1      45.372   5.543  10.702  0.00  0.00    +0.000 A 
BRANCH   6   8
ATOM      8  C   UNL     1      44.353   4.032   8.895  0.00  0.00    +0.000 C 
BRANCH   8   9
ATOM      9  C   UNL     1      44.728   2.549   8.852  0.00  0.00    +0.000 C 
BRANCH   9  10
ATOM     10  O   UNL     1      46.145   2.387   8.806  0.00  0.00    +0.000 OA
BRANCH  10  11
ATOM     11  C   UNL     1      46.559   2.110   7.513  0.00  0.00    +0.000 A 
ATOM     12  N   UNL     1      46.550   3.152   6.675  0.00  0.00    +0.000 NA
ATOM     13  C   UNL     1      46.945   2.894   5.414  0.00  0.00    +0.000 A 
ATOM     14  C   UNL     1      47.353   1.655   4.979  0.00  0.00    +0.000 A 
ATOM     15  C   UNL     1      47.338   0.663   5.926  0.00  0.00    +0.000 A 
ATOM     16  N   UNL     1      46.943   0.862   7.199  0.00  0.00    +0.000 NA
ENDBRANCH  10  11
ENDBRANCH   9  10
ENDBRANCH   8   9
ENDBRANCH   6   8
ENDBRANCH   1   2
BRANCH   1  17
ATOM     17  N   UNL     1      46.642   7.297  13.688  0.00  0.00    +0.000 NA
ATOM     18  H   UNL     1      46.135   6.558  14.171  0.00  0.00    +0.000 HD
BRANCH  17  20
ATOM     19  C   UNL     1      48.916   6.526  12.879  0.00  0.00    +0.000 C 
ATOM     20  C   UNL     1      48.071   7.190  13.971  0.00  0.00    +0.000 C 
BRANCH  20  21
ATOM     21  C   UNL     1      48.366   6.704  15.379  0.00  0.00    +0.000 A 
ATOM     22  C   UNL     1      49.009   7.500  16.320  0.00  0.00    +0.000 A 
ATOM     23  S   UNL     1      49.666   6.597  17.613  0.00  0.00    +0.000 S 
ATOM     24  C   UNL     1      48.997   5.152  17.013  0.00  0.00    +0.000 A 
ATOM     25  N   UNL     1      49.280   3.950  17.583  0.00  0.00    +0.000 NA
ATOM     26  C   UNL     1      48.631   2.956  17.074  0.00  0.00    +0.000 A 
ATOM     27  N   UNL     1      47.686   3.062  16.085  0.00  0.00    +0.000 N 
ATOM     28  C   UNL     1      47.332   4.265  15.520  0.00  0.00    +0.000 A 
ATOM     29  O   UNL     1      46.354   4.349  14.783  0.00  0.00    +0.000 OA
ATOM     30  C   UNL     1      48.154   5.387  15.940  0.00  0.00    +0.000 A 
ATOM     31  H   UNL     1      47.125   2.267  15.820  0.00  0.00    +0.000 HD
ENDBRANCH  20  21
ENDBRANCH  17  20
ENDBRANCH   1  17
TORSDOF 8
ENDMDL
MODEL 2
REMARK VINA RESULT:    -7.477      2.033      3.184
REMARK INTER + INTRA:         -12.030
REMARK INTER:                 -11.131
REMARK INTRA:                  -0.898
REMARK UNBOUND:                -1.056
REMARK  Name = 
REMARK  9 active torsions:
REMARK  status: ('A' for Active; 'I' for Inactive)
REMARK    1  A    between atoms: C_1  and  C_2
REMARK    2  A    between atoms: C_2  and  N_3
REMARK    3  A    between atoms: C_2  and  C_20
REMARK    4  A    between atoms: N_3  and  C_4
REMARK    5  A    between atoms: C_4  and  C_5
REMARK    6  A    between atoms: C_9  and  C_10
REMARK    7  A    between atoms: C_10  and  C_11
REMARK    8  A    between atoms: C_11  and  O_12
REMARK    9  A    between atoms: O_12  and  C_13
REMARK                            x       y       z     vdW  Elec       q    Type
REMARK                         _______ _______ _______ _____ _____    ______ ____
ROOT
ATOM      1  C   UNL     1      47.290   4.724  15.268  0.00  0.00    +0.000 C 
ENDROOT
BRANCH   1   2
ATOM      2  C   UNL     1      46.761   5.276  13.962  0.00  0.00    +0.000 A 
ATOM      3  C   UNL     1      47.510   6.175  13.197  0.00  0.00    +0.000 A 
ATOM      4  C   UNL     1      47.074   6.544  11.923  0.00  0.00    +0.000 A 
ATOM      5  C   UNL     1      45.881   6.028  11.409  0.00  0.00    +0.000 A 
ATOM      6  C   UNL     1      45.084   5.167  12.176  0.00  0.00    +0.000 A 
ATOM      7  C   UNL     1      45.530   4.822  13.463  0.00  0.00    +0.000 A 
BRANCH   6   8
ATOM      8  C   UNL     1      43.818   4.598  11.565  0.00  0.00    +0.000 C 
BRANCH   8   9
ATOM      9  C   UNL     1      44.039   3.466  10.558  0.00  0.00    +0.000 C 
BRANCH   9  10
ATOM     10  O   UNL     1      44.078   3.975   9.226  0.00  0.00    +0.000 OA
BRANCH  10  11
ATOM     11  C   UNL     1      45.120   3.398   8.517  0.00  0.00    +0.000 A 
ATOM     12  N   UNL     1      45.313   2.094   8.746  0.00  0.00    +0.000 NA
ATOM     13  C   UNL     1      46.327   1.524   8.066  0.00  0.00    +0.000 A 
ATOM     14  C   UNL     1      47.126   2.201   7.175  0.00  0.00    +0.000 A 
ATOM     15  C   UNL     1      46.829   3.529   7.006  0.00  0.00    +0.000 A 
ATOM     16  N   UNL     1      45.834   4.154   7.666  0.00  0.00    +0.000 NA
ENDBRANCH  10  11
ENDBRANCH   9  10
ENDBRANCH   8   9
ENDBRANCH   6   8
ENDBRANCH   1   2
BRANCH   1  17
ATOM     17  N   UNL     1      48.586   5.283  15.610  0.00  0.00    +0.000 NA
ATOM     18  H   UNL     1      48.825   6.022  14.952  0.00  0.00    +0.000 HD
BRANCH  17  20
ATOM     19  C   UNL     1      48.613   7.300  17.144  0.00  0.00    +0.000 C 
ATOM     20  C   UNL     1      48.694   5.779  16.981  0.00  0.00    +0.000 C 
BRANCH  20  21
ATOM     21  C   UNL     1      49.813   5.119  17.768  0.00  0.00    +0.000 A 
ATOM     22  C   UNL     1      50.657   5.840  18.603  0.00  0.00    +0.000 A 
ATOM     23  S   UNL     1      52.102   5.003  18.965  0.00  0.00    +0.000 S 
ATOM     24  C   UNL     1      51.574   3.620  18.127  0.00  0.00    +0.000 A 
ATOM     25  N   UNL     1      52.392   2.552  17.935  0.00  0.00    +0.000 NA
ATOM     26  C   UNL     1      51.824   1.545  17.359  0.00  0.00    +0.000 A 
ATOM     27  N   UNL     1      50.500   1.490  17.007  0.00  0.00    +0.000 N 
ATOM     28  C   UNL     1      49.626   2.528  17.232  0.00  0.00    +0.000 A 
ATOM     29  O   UNL     1      48.417   2.374  17.085  0.00  0.00    +0.000 OA
ATOM     30  C   UNL     1      50.255   3.742  17.722  0.00  0.00    +0.000 A 
ATOM     31  H   UNL     1      50.089   0.630  16.676  0.00  0.00    +0.000 HD
ENDBRANCH  20  21
ENDBRANCH  17  20
ENDBRANCH   1  17
TORSDOF 8
ENDMDL
MODEL 3
REMARK VINA RESULT:    -7.466      1.846      3.161
REMARK INTER + INTRA:         -12.014
REMARK INTER:                 -10.899
REMARK INTRA:                  -1.115
REMARK UNBOUND:                -1.056
REMARK  Name = 
REMARK  9 active torsions:
REMARK  status: ('A' for Active; 'I' for Inactive)
REMARK    1  A    between atoms: C_1  and  C_2
REMARK    2  A    between atoms: C_2  and  N_3
REMARK    3  A    between atoms: C_2  and  C_20
REMARK    4  A    between atoms: N_3  and  C_4
REMARK    5  A    between atoms: C_4  and  C_5
REMARK    6  A    between atoms: C_9  and  C_10
REMARK    7  A    between atoms: C_10  and  C_11
REMARK    8  A    between atoms: C_11  and  O_12
REMARK    9  A    between atoms: O_12  and  C_13
REMARK                            x       y       z     vdW  Elec       q    Type
REMARK                         _______ _______ _______ _____ _____    ______ ____
ROOT
ATOM      1  C   UNL     1      46.974   4.147  14.203  0.00  0.00    +0.000 C 
ENDROOT
BRANCH   1   2
ATOM      2  C   UNL     1      46.162   5.040  13.289  0.00  0.00    +0.000 A 
ATOM      3  C   UNL     1      46.373   6.421  13.250  0.00  0.00    +0.000 A 
ATOM      4  C   UNL     1      45.728   7.201  12.288  0.00  0.00    +0.000 A 
ATOM      5  C   UNL     1      44.858   6.608  11.367  0.00  0.00    +0.000 A 
ATOM      6  C   UNL     1      44.588   5.233  11.419  0.00  0.00    +0.000 A 
ATOM      7  C   UNL     1      45.232   4.469  12.407  0.00  0.00    +0.000 A 
BRANCH   6   8
ATOM      8  C   UNL     1      43.671   4.625  10.376  0.00  0.00    +0.000 C 
BRANCH   8   9
ATOM      9  C   UNL     1      44.377   4.095   9.125  0.00  0.00    +0.000 C 
BRANCH   9  10
ATOM     10  O   UNL     1      44.609   2.692   9.231  0.00  0.00    +0.000 OA
BRANCH  10  11
ATOM     11  C   UNL     1      45.652   2.308   8.403  0.00  0.00    +0.000 A 
ATOM     12  N   UNL     1      46.242   3.303   7.731  0.00  0.00    +0.000 NA
ATOM     13  C   UNL     1      47.253   2.942   6.918  0.00  0.00    +0.000 A 
ATOM     14  C   UNL     1      47.691   1.646   6.772  0.00  0.00    +0.000 A 
ATOM     15  C   UNL     1      47.025   0.710   7.520  0.00  0.00    +0.000 A 
ATOM     16  N   UNL     1      46.000   1.013   8.341  0.00  0.00    +0.000 NA
ENDBRANCH  10  11
ENDBRANCH   9  10
ENDBRANCH   8   9
ENDBRANCH   6   8
ENDBRANCH   1   2
BRANCH   1  17
ATOM     17  N   UNL     1      46.720   4.427  15.605  0.00  0.00    +0.000 NA
ATOM     18  H   UNL     1      45.888   3.925  15.910  0.00  0.00    +0.000 HD
BRANCH  17  20
ATOM     19  C   UNL     1      47.764   2.788  17.232  0.00  0.00    +0.000 C 
ATOM     20  C   UNL     1      47.838   4.131  16.499  0.00  0.00    +0.000 C 
BRANCH  20  21
ATOM     21  C   UNL     1      48.227   5.308  17.377  0.00  0.00    +0.000 A 
ATOM     22  C   UNL     1      48.166   5.250  18.764  0.00  0.00    +0.000 A 
ATOM     23  S   UNL     1      48.156   6.797  19.491  0.00  0.00    +0.000 S 
ATOM     24  C   UNL     1      48.364   7.564  17.986  0.00  0.00    +0.000 A 
ATOM     25  N   UNL     1      48.315   8.917  17.868  0.00  0.00    +0.000 NA
ATOM     26  C   UNL     1      48.577   9.355  16.681  0.00  0.00    +0.000 A 
ATOM     27  N   UNL     1      48.934   8.568  15.617  0.00  0.00    +0.000 N 
ATOM     28  C   UNL     1      49.046   7.200  15.708  0.00  0.00    +0.000 A 
ATOM     29  O   UNL     1      49.554   6.550  14.798  0.00  0.00    +0.000 OA
ATOM     30  C   UNL     1      48.599   6.647  16.975  0.00  0.00    +0.000 A 
ATOM     31  H   UNL     1      49.247   8.980  14.752  0.00  0.00    +0.000 HD
ENDBRANCH  20  21
ENDBRANCH  17  20
ENDBRANCH   1  17
TORSDOF 8
ENDMDL
MODEL 4
REMARK VINA RESULT:    -7.163      1.318      2.200
REMARK INTER + INTRA:         -11.569
REMARK INTER:                 -10.423
REMARK INTRA:                  -1.146
REMARK UNBOUND:                -1.056
REMARK  Name = 
REMARK  9 active torsions:
REMARK  status: ('A' for Active; 'I' for Inactive)
REMARK    1  A    between atoms: C_1  and  C_2
REMARK    2  A    between atoms: C_2  and  N_3
REMARK    3  A    between atoms: C_2  and  C_20
REMARK    4  A    between atoms: N_3  and  C_4
REMARK    5  A    between atoms: C_4  and  C_5
REMARK    6  A    between atoms: C_9  and  C_10
REMARK    7  A    between atoms: C_10  and  C_11
REMARK    8  A    between atoms: C_11  and  O_12
REMARK    9  A    between atoms: O_12  and  C_13
REMARK                            x       y       z     vdW  Elec       q    Type
REMARK                         _______ _______ _______ _____ _____    ______ ____
ROOT
ATOM      1  C   UNL     1      48.548   7.507  13.006  0.00  0.00    +0.000 C 
ENDROOT
BRANCH   1   2
ATOM      2  C   UNL     1      47.127   7.269  12.542  0.00  0.00    +0.000 A 
ATOM      3  C   UNL     1      46.260   8.335  12.283  0.00  0.00    +0.000 A 
ATOM      4  C   UNL     1      45.012   8.097  11.704  0.00  0.00    +0.000 A 
ATOM      5  C   UNL     1      44.615   6.793  11.392  0.00  0.00    +0.000 A 
ATOM      6  C   UNL     1      45.444   5.702  11.690  0.00  0.00    +0.000 A 
ATOM      7  C   UNL     1      46.688   5.960  12.290  0.00  0.00    +0.000 A 
BRANCH   6   8
ATOM      8  C   UNL     1      44.993   4.308  11.297  0.00  0.00    +0.000 C 
BRANCH   8   9
ATOM      9  C   UNL     1      44.213   4.229   9.983  0.00  0.00    +0.000 C 
BRANCH   9  10
ATOM     10  O   UNL     1      44.246   2.904   9.455  0.00  0.00    +0.000 OA
BRANCH  10  11
ATOM     11  C   UNL     1      45.262   2.780   8.520  0.00  0.00    +0.000 A 
ATOM     12  N   UNL     1      45.868   1.588   8.491  0.00  0.00    +0.000 NA
ATOM     13  C   UNL     1      46.861   1.458   7.590  0.00  0.00    +0.000 A 
ATOM     14  C   UNL     1      47.247   2.457   6.728  0.00  0.00    +0.000 A 
ATOM     15  C   UNL     1      46.547   3.631   6.835  0.00  0.00    +0.000 A 
ATOM     16  N   UNL     1      45.552   3.821   7.723  0.00  0.00    +0.000 NA
ENDBRANCH  10  11
ENDBRANCH   9  10
ENDBRANCH   8   9
ENDBRANCH   6   8
ENDBRANCH   1   2
BRANCH   1  17
ATOM     17  N   UNL     1      48.907   6.652  14.125  0.00  0.00    +0.000 NA
ATOM     18  H   UNL     1      49.869   6.337  14.020  0.00  0.00    +0.000 HD
BRANCH  17  20
ATOM     19  C   UNL     1      49.338   8.647  15.627  0.00  0.00    +0.000 C 
ATOM     20  C   UNL     1      48.718   7.259  15.441  0.00  0.00    +0.000 C 
BRANCH  20  21
ATOM     21  C   UNL     1      48.977   6.294  16.585  0.00  0.00    +0.000 A 
ATOM     22  C   UNL     1      49.732   6.648  17.697  0.00  0.00    +0.000 A 
ATOM     23  S   UNL     1      50.297   5.292  18.571  0.00  0.00    +0.000 S 
ATOM     24  C   UNL     1      49.443   4.220  17.564  0.00  0.00    +0.000 A 
ATOM     25  N   UNL     1      49.586   2.873  17.681  0.00  0.00    +0.000 NA
ATOM     26  C   UNL     1      48.809   2.188  16.909  0.00  0.00    +0.000 A 
ATOM     27  N   UNL     1      47.866   2.726  16.071  0.00  0.00    +0.000 N 
ATOM     28  C   UNL     1      47.652   4.081  15.963  0.00  0.00    +0.000 A 
ATOM     29  O   UNL     1      46.678   4.517  15.357  0.00  0.00    +0.000 OA
ATOM     30  C   UNL     1      48.615   4.896  16.684  0.00  0.00    +0.000 A 
ATOM     31  H   UNL     1      47.206   2.136  15.589  0.00  0.00    +0.000 HD
ENDBRANCH  20  21
ENDBRANCH  17  20
ENDBRANCH   1  17
TORSDOF 8
ENDMDL
MODEL 5
REMARK VINA RESULT:    -7.091      3.479      8.311
REMARK INTER + INTRA:         -11.463
REMARK INTER:                 -10.337
REMARK INTRA:                  -1.126
REMARK UNBOUND:                -1.056
REMARK  Name = 
REMARK  9 active torsions:
REMARK  status: ('A' for Active; 'I' for Inactive)
REMARK    1  A    between atoms: C_1  and  C_2
REMARK    2  A    between atoms: C_2  and  N_3
REMARK    3  A    between atoms: C_2  and  C_20
REMARK    4  A    between atoms: N_3  and  C_4
REMARK    5  A    between atoms: C_4  and  C_5
REMARK    6  A    between atoms: C_9  and  C_10
REMARK    7  A    between atoms: C_10  and  C_11
REMARK    8  A    between atoms: C_11  and  O_12
REMARK    9  A    between atoms: O_12  and  C_13
REMARK                            x       y       z     vdW  Elec       q    Type
REMARK                         _______ _______ _______ _____ _____    ______ ____
ROOT
ATOM      1  C   UNL     1      47.975   7.241  13.036  0.00  0.00    +0.000 C 
ENDROOT
BRANCH   1   2
ATOM      2  C   UNL     1      48.630   6.858  14.346  0.00  0.00    +0.000 A 
ATOM      3  C   UNL     1      49.757   7.537  14.820  0.00  0.00    +0.000 A 
ATOM      4  C   UNL     1      50.245   7.274  16.101  0.00  0.00    +0.000 A 
ATOM      5  C   UNL     1      49.620   6.324  16.914  0.00  0.00    +0.000 A 
ATOM      6  C   UNL     1      48.521   5.591  16.443  0.00  0.00    +0.000 A 
ATOM      7  C   UNL     1      48.056   5.856  15.143  0.00  0.00    +0.000 A 
BRANCH   6   8
ATOM      8  C   UNL     1      47.847   4.598  17.371  0.00  0.00    +0.000 C 
BRANCH   8   9
ATOM      9  C   UNL     1      48.755   3.479  17.889  0.00  0.00    +0.000 C 
BRANCH   9  10
ATOM     10  O   UNL     1      49.522   2.918  16.824  0.00  0.00    +0.000 OA
BRANCH  10  11
ATOM     11  C   UNL     1      50.771   2.527  17.281  0.00  0.00    +0.000 A 
ATOM     12  N   UNL     1      51.032   1.219  17.180  0.00  0.00    +0.000 NA
ATOM     13  C   UNL     1      52.241   0.827  17.626  0.00  0.00    +0.000 A 
ATOM     14  C   UNL     1      53.180   1.687  18.145  0.00  0.00    +0.000 A 
ATOM     15  C   UNL     1      52.812   3.007  18.186  0.00  0.00    +0.000 A 
ATOM     16  N   UNL     1      51.614   3.455  17.764  0.00  0.00    +0.000 NA
ENDBRANCH  10  11
ENDBRANCH   9  10
ENDBRANCH   8   9
ENDBRANCH   6   8
ENDBRANCH   1   2
BRANCH   1  17
ATOM     17  N   UNL     1      46.584   6.825  12.981  0.00  0.00    +0.000 NA
ATOM     18  H   UNL     1      46.053   7.307  13.703  0.00  0.00    +0.000 HD
BRANCH  17  20
ATOM     19  C   UNL     1      44.774   8.000  11.652  0.00  0.00    +0.000 C 
ATOM     20  C   UNL     1      45.944   7.010  11.681  0.00  0.00    +0.000 C 
BRANCH  20  21
ATOM     21  C   UNL     1      45.681   5.703  10.953  0.00  0.00    +0.000 A 
ATOM     22  C   UNL     1      45.954   5.540   9.601  0.00  0.00    +0.000 A 
ATOM     23  S   UNL     1      45.129   4.208   8.916  0.00  0.00    +0.000 S 
ATOM     24  C   UNL     1      44.501   3.751  10.430  0.00  0.00    +0.000 A 
ATOM     25  N   UNL     1      43.596   2.743  10.546  0.00  0.00    +0.000 NA
ATOM     26  C   UNL     1      43.279   2.454  11.764  0.00  0.00    +0.000 A 
ATOM     27  N   UNL     1      43.823   3.043  12.876  0.00  0.00    +0.000 N 
ATOM     28  C   UNL     1      44.780   4.029  12.803  0.00  0.00    +0.000 A 
ATOM     29  O   UNL     1      45.383   4.394  13.808  0.00  0.00    +0.000 OA
ATOM     30  C   UNL     1      45.045   4.504  11.456  0.00  0.00    +0.000 A 
ATOM     31  H   UNL     1      43.626   2.686  13.798  0.00  0.00    +0.000 HD
ENDBRANCH  20  21
ENDBRANCH  17  20
ENDBRANCH   1  17
TORSDOF 8
ENDMDL
MODEL 6
REMARK VINA RESULT:    -6.901      1.931      2.997
REMARK INTER + INTRA:         -11.184
REMARK INTER:                 -10.043
REMARK INTRA:                  -1.141
REMARK UNBOUND:                -1.056
REMARK  Name = 
REMARK  9 active torsions:
REMARK  status: ('A' for Active; 'I' for Inactive)
REMARK    1  A    between atoms: C_1  and  C_2
REMARK    2  A    between atoms: C_2  and  N_3
REMARK    3  A    between atoms: C_2  and  C_20
REMARK    4  A    between atoms: N_3  and  C_4
REMARK    5  A    between atoms: C_4  and  C_5
REMARK    6  A    between atoms: C_9  and  C_10
REMARK    7  A    between atoms: C_10  and  C_11
REMARK    8  A    between atoms: C_11  and  O_12
REMARK    9  A    between atoms: O_12  and  C_13
REMARK                            x       y       z     vdW  Elec       q    Type
REMARK                         _______ _______ _______ _____ _____    ______ ____
ROOT
ATOM      1  C   UNL     1      49.142   7.396  13.645  0.00  0.00    +0.000 C 
ENDROOT
BRANCH   1   2
ATOM      2  C   UNL     1      47.679   7.318  13.263  0.00  0.00    +0.000 A 
ATOM      3  C   UNL     1      46.849   8.441  13.334  0.00  0.00    +0.000 A 
ATOM      4  C   UNL     1      45.550   8.385  12.826  0.00  0.00    +0.000 A 
ATOM      5  C   UNL     1      45.066   7.204  12.255  0.00  0.00    +0.000 A 
ATOM      6  C   UNL     1      45.859   6.047  12.220  0.00  0.00    +0.000 A 
ATOM      7  C   UNL     1      47.157   6.119  12.754  0.00  0.00    +0.000 A 
BRANCH   6   8
ATOM      8  C   UNL     1      45.310   4.800  11.556  0.00  0.00    +0.000 C 
BRANCH   8   9
ATOM      9  C   UNL     1      44.746   5.012  10.149  0.00  0.00    +0.000 C 
BRANCH   9  10
ATOM     10  O   UNL     1      44.294   3.778   9.594  0.00  0.00    +0.000 OA
BRANCH  10  11
ATOM     11  C   UNL     1      45.234   3.269   8.712  0.00  0.00    +0.000 A 
ATOM     12  N   UNL     1      45.498   1.965   8.850  0.00  0.00    +0.000 NA
ATOM     13  C   UNL     1      46.415   1.461   8.002  0.00  0.00    +0.000 A 
ATOM     14  C   UNL     1      47.051   2.202   7.034  0.00  0.00    +0.000 A 
ATOM     15  C   UNL     1      46.692   3.524   6.972  0.00  0.00    +0.000 A 
ATOM     16  N   UNL     1      45.789   4.084   7.801  0.00  0.00    +0.000 NA
ENDBRANCH  10  11
ENDBRANCH   9  10
ENDBRANCH   8   9
ENDBRANCH   6   8
ENDBRANCH   1   2
BRANCH   1  17
ATOM     17  N   UNL     1      49.466   6.504  14.745  0.00  0.00    +0.000 NA
ATOM     18  H   UNL     1      50.109   5.783  14.423  0.00  0.00    +0.000 HD
BRANCH  17  20
ATOM     19  C   UNL     1      51.489   6.896  16.220  0.00  0.00    +0.000 C 
ATOM     20  C   UNL     1      50.010   7.167  15.928  0.00  0.00    +0.000 C 
BRANCH  20  21
ATOM     21  C   UNL     1      49.100   7.065  17.140  0.00  0.00    +0.000 A 
ATOM     22  C   UNL     1      48.438   8.168  17.665  0.00  0.00    +0.000 A 
ATOM     23  S   UNL     1      47.905   7.918  19.270  0.00  0.00    +0.000 S 
ATOM     24  C   UNL     1      48.428   6.299  19.247  0.00  0.00    +0.000 A 
ATOM     25  N   UNL     1      48.387   5.526  20.364  0.00  0.00    +0.000 NA
ATOM     26  C   UNL     1      48.734   4.297  20.171  0.00  0.00    +0.000 A 
ATOM     27  N   UNL     1      49.066   3.759  18.955  0.00  0.00    +0.000 N 
ATOM     28  C   UNL     1      49.069   4.494  17.792  0.00  0.00    +0.000 A 
ATOM     29  O   UNL     1      49.179   3.942  16.701  0.00  0.00    +0.000 OA
ATOM     30  C   UNL     1      48.850   5.917  17.985  0.00  0.00    +0.000 A 
ATOM     31  H   UNL     1      49.205   2.766  18.850  0.00  0.00    +0.000 HD
ENDBRANCH  20  21
ENDBRANCH  17  20
ENDBRANCH   1  17
TORSDOF 8
ENDMDL
MODEL 7
REMARK VINA RESULT:    -6.791      4.407      7.957
REMARK INTER + INTRA:         -11.023
REMARK INTER:                  -9.805
REMARK INTRA:                  -1.218
REMARK UNBOUND:                -1.056
REMARK  Name = 
REMARK  9 active torsions:
REMARK  status: ('A' for Active; 'I' for Inactive)
REMARK    1  A    between atoms: C_1  and  C_2
REMARK    2  A    between atoms: C_2  and  N_3
REMARK    3  A    between atoms: C_2  and  C_20
REMARK    4  A    between atoms: N_3  and  C_4
REMARK    5  A    between atoms: C_4  and  C_5
REMARK    6  A    between atoms: C_9  and  C_10
REMARK    7  A    between atoms: C_10  and  C_11
REMARK    8  A    between atoms: C_11  and  O_12
REMARK    9  A    between atoms: O_12  and  C_13
REMARK                            x       y       z     vdW  Elec       q    Type
REMARK                         _______ _______ _______ _____ _____    ______ ____
ROOT
ATOM      1  C   UNL     1      48.180   6.886  12.354  0.00  0.00    +0.000 C 
ENDROOT
BRANCH   1   2
ATOM      2  C   UNL     1      48.684   8.280  12.044  0.00  0.00    +0.000 A 
ATOM      3  C   UNL     1      49.982   8.493  11.568  0.00  0.00    +0.000 A 
ATOM      4  C   UNL     1      50.369   9.763  11.138  0.00  0.00    +0.000 A 
ATOM      5  C   UNL     1      49.469  10.832  11.190  0.00  0.00    +0.000 A 
ATOM      6  C   UNL     1      48.179  10.656  11.712  0.00  0.00    +0.000 A 
ATOM      7  C   UNL     1      47.814   9.375  12.158  0.00  0.00    +0.000 A 
BRANCH   6   8
ATOM      8  C   UNL     1      47.221  11.831  11.712  0.00  0.00    +0.000 C 
BRANCH   8   9
ATOM      9  C   UNL     1      45.870  11.564  11.043  0.00  0.00    +0.000 C 
BRANCH   9  10
ATOM     10  O   UNL     1      44.803  11.729  11.975  0.00  0.00    +0.000 OA
BRANCH  10  11
ATOM     11  C   UNL     1      43.589  11.415  11.383  0.00  0.00    +0.000 A 
ATOM     12  N   UNL     1      43.649  11.122  10.080  0.00  0.00    +0.000 NA
ATOM     13  C   UNL     1      42.475  10.821   9.493  0.00  0.00    +0.000 A 
ATOM     14  C   UNL     1      41.272  10.791  10.159  0.00  0.00    +0.000 A 
ATOM     15  C   UNL     1      41.331  11.093  11.496  0.00  0.00    +0.000 A 
ATOM     16  N   UNL     1      42.474  11.412  12.132  0.00  0.00    +0.000 NA
ENDBRANCH  10  11
ENDBRANCH   9  10
ENDBRANCH   8   9
ENDBRANCH   6   8
ENDBRANCH   1   2
BRANCH   1  17
ATOM     17  N   UNL     1      46.751   6.869  12.613  0.00  0.00    +0.000 NA
ATOM     18  H   UNL     1      46.513   7.610  13.270  0.00  0.00    +0.000 HD
BRANCH  17  20
ATOM     19  C   UNL     1      44.684   7.874  11.547  0.00  0.00    +0.000 C 
ATOM     20  C   UNL     1      45.913   6.969  11.420  0.00  0.00    +0.000 C 
BRANCH  20  21
ATOM     21  C   UNL     1      45.642   5.625  10.767  0.00  0.00    +0.000 A 
ATOM     22  C   UNL     1      45.871   5.397   9.416  0.00  0.00    +0.000 A 
ATOM     23  S   UNL     1      45.039   4.025   8.826  0.00  0.00    +0.000 S 
ATOM     24  C   UNL     1      44.468   3.637  10.381  0.00  0.00    +0.000 A 
ATOM     25  N   UNL     1      43.579   2.628  10.577  0.00  0.00    +0.000 NA
ATOM     26  C   UNL     1      43.305   2.396  11.818  0.00  0.00    +0.000 A 
ATOM     27  N   UNL     1      43.880   3.046  12.881  0.00  0.00    +0.000 N 
ATOM     28  C   UNL     1      44.822   4.036  12.727  0.00  0.00    +0.000 A 
ATOM     29  O   UNL     1      45.455   4.456  13.692  0.00  0.00    +0.000 OA
ATOM     30  C   UNL     1      45.037   4.446  11.350  0.00  0.00    +0.000 A 
ATOM     31  H   UNL     1      43.718   2.733  13.826  0.00  0.00    +0.000 HD
ENDBRANCH  20  21
ENDBRANCH  17  20
ENDBRANCH   1  17
TORSDOF 8
ENDMDL
MODEL 8
REMARK VINA RESULT:    -6.784      1.978      3.007
REMARK INTER + INTRA:         -11.012
REMARK INTER:                  -9.746
REMARK INTRA:                  -1.266
REMARK UNBOUND:                -1.056
REMARK  Name = 
REMARK  9 active torsions:
REMARK  status: ('A' for Active; 'I' for Inactive)
REMARK    1  A    between atoms: C_1  and  C_2
REMARK    2  A    between atoms: C_2  and  N_3
REMARK    3  A    between atoms: C_2  and  C_20
REMARK    4  A    between atoms: N_3  and  C_4
REMARK    5  A    between atoms: C_4  and  C_5
REMARK    6  A    between atoms: C_9  and  C_10
REMARK    7  A    between atoms: C_10  and  C_11
REMARK    8  A    between atoms: C_11  and  O_12
REMARK    9  A    between atoms: O_12  and  C_13
REMARK                            x       y       z     vdW  Elec       q    Type
REMARK                         _______ _______ _______ _____ _____    ______ ____
ROOT
ATOM      1  C   UNL     1      48.197   8.416  14.112  0.00  0.00    +0.000 C 
ENDROOT
BRANCH   1   2
ATOM      2  C   UNL     1      47.562   7.116  13.668  0.00  0.00    +0.000 A 
ATOM      3  C   UNL     1      47.714   5.942  14.412  0.00  0.00    +0.000 A 
ATOM      4  C   UNL     1      46.990   4.798  14.072  0.00  0.00    +0.000 A 
ATOM      5  C   UNL     1      46.118   4.815  12.979  0.00  0.00    +0.000 A 
ATOM      6  C   UNL     1      45.987   5.963  12.184  0.00  0.00    +0.000 A 
ATOM      7  C   UNL     1      46.739   7.098  12.532  0.00  0.00    +0.000 A 
BRANCH   6   8
ATOM      8  C   UNL     1      44.999   5.951  11.033  0.00  0.00    +0.000 C 
BRANCH   8   9
ATOM      9  C   UNL     1      44.316   4.604  10.782  0.00  0.00    +0.000 C 
BRANCH   9  10
ATOM     10  O   UNL     1      43.976   4.459   9.404  0.00  0.00    +0.000 OA
BRANCH  10  11
ATOM     11  C   UNL     1      44.903   3.656   8.758  0.00  0.00    +0.000 A 
ATOM     12  N   UNL     1      45.680   4.283   7.868  0.00  0.00    +0.000 NA
ATOM     13  C   UNL     1      46.580   3.511   7.230  0.00  0.00    +0.000 A 
ATOM     14  C   UNL     1      46.733   2.164   7.461  0.00  0.00    +0.000 A 
ATOM     15  C   UNL     1      45.895   1.629   8.405  0.00  0.00    +0.000 A 
ATOM     16  N   UNL     1      44.969   2.350   9.066  0.00  0.00    +0.000 NA
ENDBRANCH  10  11
ENDBRANCH   9  10
ENDBRANCH   8   9
ENDBRANCH   6   8
ENDBRANCH   1   2
BRANCH   1  17
ATOM     17  N   UNL     1      47.670   8.872  15.387  0.00  0.00    +0.000 NA
ATOM     18  H   UNL     1      47.100   8.139  15.804  0.00  0.00    +0.000 HD
BRANCH  17  20
ATOM     19  C   UNL     1      49.270  10.711  16.081  0.00  0.00    +0.000 C 
ATOM     20  C   UNL     1      48.683   9.320  16.341  0.00  0.00    +0.000 C 
BRANCH  20  21
ATOM     21  C   UNL     1      49.714   8.252  16.662  0.00  0.00    +0.000 A 
ATOM     22  C   UNL     1      51.046   8.370  16.285  0.00  0.00    +0.000 A 
ATOM     23  S   UNL     1      51.873   6.874  16.300  0.00  0.00    +0.000 S 
ATOM     24  C   UNL     1      50.513   6.068  16.930  0.00  0.00    +0.000 A 
ATOM     25  N   UNL     1      50.494   4.716  17.073  0.00  0.00    +0.000 NA
ATOM     26  C   UNL     1      49.429   4.259  17.645  0.00  0.00    +0.000 A 
ATOM     27  N   UNL     1      48.409   5.034  18.134  0.00  0.00    +0.000 N 
ATOM     28  C   UNL     1      48.414   6.407  18.057  0.00  0.00    +0.000 A 
ATOM     29  O   UNL     1      47.588   7.074  18.673  0.00  0.00    +0.000 OA
ATOM     30  C   UNL     1      49.508   6.957  17.274  0.00  0.00    +0.000 A 
ATOM     31  H   UNL     1      47.667   4.625  18.681  0.00  0.00    +0.000 HD
ENDBRANCH  20  21
ENDBRANCH  17  20
ENDBRANCH   1  17
TORSDOF 8
ENDMDL
MODEL 9
REMARK VINA RESULT:    -6.713      2.274      3.145
REMARK INTER + INTRA:         -10.909
REMARK INTER:                  -9.928
REMARK INTRA:                  -0.981
REMARK UNBOUND:                -1.056
REMARK  Name = 
REMARK  9 active torsions:
REMARK  status: ('A' for Active; 'I' for Inactive)
REMARK    1  A    between atoms: C_1  and  C_2
REMARK    2  A    between atoms: C_2  and  N_3
REMARK    3  A    between atoms: C_2  and  C_20
REMARK    4  A    between atoms: N_3  and  C_4
REMARK    5  A    between atoms: C_4  and  C_5
REMARK    6  A    between atoms: C_9  and  C_10
REMARK    7  A    between atoms: C_10  and  C_11
REMARK    8  A    between atoms: C_11  and  O_12
REMARK    9  A    between atoms: O_12  and  C_13
REMARK                            x       y       z     vdW  Elec       q    Type
REMARK                         _______ _______ _______ _____ _____    ______ ____
ROOT
ATOM      1  C   UNL     1      47.820   5.550  14.870  0.00  0.00    +0.000 C 
ENDROOT
BRANCH   1   2
ATOM      2  C   UNL     1      46.961   5.615  13.625  0.00  0.00    +0.000 A 
ATOM      3  C   UNL     1      47.040   6.699  12.745  0.00  0.00    +0.000 A 
ATOM      4  C   UNL     1      46.360   6.662  11.526  0.00  0.00    +0.000 A 
ATOM      5  C   UNL     1      45.587   5.549  11.183  0.00  0.00    +0.000 A 
ATOM      6  C   UNL     1      45.449   4.472  12.070  0.00  0.00    +0.000 A 
ATOM      7  C   UNL     1      46.125   4.536  13.300  0.00  0.00    +0.000 A 
BRANCH   6   8
ATOM      8  C   UNL     1      44.634   3.266  11.641  0.00  0.00    +0.000 C 
BRANCH   8   9
ATOM      9  C   UNL     1      44.111   3.319  10.204  0.00  0.00    +0.000 C 
BRANCH   9  10
ATOM     10  O   UNL     1      44.373   2.091   9.526  0.00  0.00    +0.000 OA
BRANCH  10  11
ATOM     11  C   UNL     1      45.415   2.248   8.625  0.00  0.00    +0.000 A 
ATOM     12  N   UNL     1      46.087   1.130   8.329  0.00  0.00    +0.000 NA
ATOM     13  C   UNL     1      47.106   1.271   7.459  0.00  0.00    +0.000 A 
ATOM     14  C   UNL     1      47.455   2.468   6.879  0.00  0.00    +0.000 A 
ATOM     15  C   UNL     1      46.689   3.546   7.242  0.00  0.00    +0.000 A 
ATOM     16  N   UNL     1      45.666   3.465   8.115  0.00  0.00    +0.000 NA
ENDBRANCH  10  11
ENDBRANCH   9  10
ENDBRANCH   8   9
ENDBRANCH   6   8
ENDBRANCH   1   2
BRANCH   1  17
ATOM     17  N   UNL     1      48.983   6.415  14.775  0.00  0.00    +0.000 NA
ATOM     18  H   UNL     1      48.935   6.961  13.917  0.00  0.00    +0.000 HD
BRANCH  17  20
ATOM     19  C   UNL     1      49.899   8.620  15.624  0.00  0.00    +0.000 C 
ATOM     20  C   UNL     1      49.180   7.300  15.921  0.00  0.00    +0.000 C 
BRANCH  20  21
ATOM     21  C   UNL     1      49.682   6.573  17.157  0.00  0.00    +0.000 A 
ATOM     22  C   UNL     1      50.809   5.762  17.133  0.00  0.00    +0.000 A 
ATOM     23  S   UNL     1      50.877   4.685  18.458  0.00  0.00    +0.000 S 
ATOM     24  C   UNL     1      49.481   5.367  19.152  0.00  0.00    +0.000 A 
ATOM     25  N   UNL     1      48.904   4.828  20.259  0.00  0.00    +0.000 NA
ATOM     26  C   UNL     1      47.905   5.505  20.719  0.00  0.00    +0.000 A 
ATOM     27  N   UNL     1      47.465   6.698  20.206  0.00  0.00    +0.000 N 
ATOM     28  C   UNL     1      48.054   7.304  19.120  0.00  0.00    +0.000 A 
ATOM     29  O   UNL     1      47.764   8.456  18.810  0.00  0.00    +0.000 OA
ATOM     30  C   UNL     1      49.072   6.499  18.467  0.00  0.00    +0.000 A 
ATOM     31  H   UNL     1      46.762   7.239  20.686  0.00  0.00    +0.000 HD
ENDBRANCH  20  21
ENDBRANCH  17  20
ENDBRANCH   1  17
TORSDOF 8
ENDMDL
