MODEL 1
REMARK VINA RESULT:    -7.509      0.000      0.000
REMARK INTER + INTRA:         -12.472
REMARK INTER:                 -11.240
REMARK INTRA:                  -1.232
REMARK UNBOUND:                -1.232
REMARK  Name = 
REMARK  12 active torsions:
REMARK  status: ('A' for Active; 'I' for Inactive)
REMARK    1  A    between atoms: C_1  and  C_2
REMARK    2  A    between atoms: C_2  and  C_3
REMARK    3  A    between atoms: C_2  and  N_10
REMARK    4  A    between atoms: C_3  and  C_4
REMARK    5  A    between atoms: N_10  and  C_11
REMARK    6  A    between atoms: N_10  and  C_12
REMARK    7  A    between atoms: C_12  and  C_13
REMARK    8  A    between atoms: C_16  and  C_17
REMARK    9  A    between atoms: C_17  and  N_18
REMARK   10  A    between atoms: N_18  and  C_19
REMARK   11  A    between atoms: C_20  and  C_22
REMARK   12  A    between atoms: C_29  and  O_30
REMARK                            x       y       z     vdW  Elec       q    Type
REMARK                         _______ _______ _______ _____ _____    ______ ____
ROOT
ATOM      1  C   UNL     1      44.936   6.941  11.511  0.00  0.00    +0.000 A 
ATOM      2  C   UNL     1      46.258   6.509  11.368  0.00  0.00    +0.000 A 
ATOM      3  C   UNL     1      47.318   7.158  11.975  0.00  0.00    +0.000 A 
ATOM      4  C   UNL     1      47.101   8.321  12.706  0.00  0.00    +0.000 A 
ATOM      5  C   UNL     1      45.797   8.822  12.806  0.00  0.00    +0.000 A 
ATOM      6  C   UNL     1      44.721   8.130  12.225  0.00  0.00    +0.000 A 
ENDROOT
BRANCH   1   7
ATOM      7  C   UNL     1      43.795   6.180  10.857  0.00  0.00    +0.000 C 
BRANCH   7   8
ATOM      8  N   UNL     1      43.562   4.767  11.259  0.00  0.00    +0.000 NA
ATOM      9  C   UNL     1      43.088   4.719  12.647  0.00  0.00    +0.000 C 
BRANCH   8  11
ATOM     10  C   UNL     1      45.157   3.104  12.285  0.00  0.00    +0.000 C 
ATOM     11  C   UNL     1      44.688   3.819  10.997  0.00  0.00    +0.000 C 
BRANCH  11  12
ATOM     12  C   UNL     1      44.328   2.703   9.968  0.00  0.00    +0.000 C 
BRANCH  12  13
ATOM     13  C   UNL     1      45.313   2.598   8.816  0.00  0.00    +0.000 A 
ATOM     14  C   UNL     1      45.643   3.731   8.082  0.00  0.00    +0.000 A 
ATOM     15  C   UNL     1      46.574   3.622   7.053  0.00  0.00    +0.000 A 
ATOM     16  C   UNL     1      47.160   2.392   6.788  0.00  0.00    +0.000 A 
ATOM     17  C   UNL     1      46.787   1.315   7.570  0.00  0.00    +0.000 A 
ATOM     18  N   UNL     1      45.887   1.392   8.576  0.00  0.00    +0.000 NA
ENDBRANCH  12  13
ENDBRANCH  11  12
ENDBRANCH   8  11
ENDBRANCH   7   8
ENDBRANCH   1   7
BRANCH   4  19
ATOM     19  C   UNL     1      48.267   8.926  13.431  0.00  0.00    +0.000 C 
BRANCH  19  20
ATOM     20  N   UNL     1      48.588   8.433  14.769  0.00  0.00    +0.000 N 
ATOM     21  C   UNL     1      48.167   9.167  15.954  0.00  0.00    +0.000 C 
ATOM     22  C   UNL     1      49.600   7.468  14.775  0.00  0.00    +0.000 C 
ATOM     23  O   UNL     1      50.115   7.106  13.710  0.00  0.00    +0.000 OA
BRANCH  22  24
ATOM     24  C   UNL     1      50.000   6.817  16.018  0.00  0.00    +0.000 A 
ATOM     25  C   UNL     1      51.030   7.179  16.877  0.00  0.00    +0.000 A 
ATOM     26  N   UNL     1      50.883   6.473  18.042  0.00  0.00    +0.000 N 
ATOM     27  C   UNL     1      49.773   5.680  17.969  0.00  0.00    +0.000 A 
ATOM     28  N   UNL     1      49.288   4.949  18.989  0.00  0.00    +0.000 NA
ATOM     29  C   UNL     1      48.172   4.259  18.657  0.00  0.00    +0.000 A 
ATOM     30  C   UNL     1      47.597   4.197  17.396  0.00  0.00    +0.000 A 
ATOM     31  C   UNL     1      48.167   4.951  16.377  0.00  0.00    +0.000 A 
ATOM     32  C   UNL     1      49.261   5.781  16.682  0.00  0.00    +0.000 A 
ATOM     33  H   UNL     1      51.452   6.555  18.871  0.00  0.00    +0.000 HD
BRANCH  31  34
ATOM     34  O   UNL     1      47.693   4.867  15.096  0.00  0.00    +0.000 OA
ATOM     35  H   UNL     1      46.801   5.243  15.051  0.00  0.00    +0.000 HD
ENDBRANCH  31  34
ENDBRANCH  22  24
ENDBRANCH  19  20
ENDBRANCH   4  19
TORSDOF 9
ENDMDL
MODEL 2
REMARK VINA RESULT:    -7.340      1.901      2.692
REMARK INTER + INTRA:         -12.220
REMARK INTER:                 -11.300
REMARK INTRA:                  -0.921
REMARK UNBOUND:                -1.232
REMARK  Name = 
REMARK  12 active torsions:
REMARK  status: ('A' for Active; 'I' for Inactive)
REMARK    1  A    between atoms: C_1  and  C_2
REMARK    2  A    between atoms: C_2  and  C_3
REMARK    3  A    between atoms: C_2  and  N_10
REMARK    4  A    between atoms: C_3  and  C_4
REMARK    5  A    between atoms: N_10  and  C_11
REMARK    6  A    between atoms: N_10  and  C_12
REMARK    7  A    between atoms: C_12  and  C_13
REMARK    8  A    between atoms: C_16  and  C_17
REMARK    9  A    between atoms: C_17  and  N_18
REMARK   10  A    between atoms: N_18  and  C_19
REMARK   11  A    between atoms: C_20  and  C_22
REMARK   12  A    between atoms: C_29  and  O_30
REMARK                            x       y       z     vdW  Elec       q    Type
REMARK                         _______ _______ _______ _____ _____    ______ ____
ROOT
ATOM      1  C   UNL     1      45.740   6.924  12.219  0.00  0.00    +0.000 A 
ATOM      2  C   UNL     1      46.687   5.911  12.390  0.00  0.00    +0.000 A 
ATOM      3  C   UNL     1      47.769   6.046  13.242  0.00  0.00    +0.000 A 
ATOM      4  C   UNL     1      47.986   7.244  13.914  0.00  0.00    +0.000 A 
ATOM      5  C   UNL     1      47.096   8.305  13.705  0.00  0.00    +0.000 A 
ATOM      6  C   UNL     1      45.974   8.142  12.875  0.00  0.00    +0.000 A 
ENDROOT
BRANCH   1   7
ATOM      7  C   UNL     1      44.545   6.724  11.301  0.00  0.00    +0.000 C 
BRANCH   7   8
ATOM      8  N   UNL     1      43.691   5.521  11.500  0.00  0.00    +0.000 NA
ATOM      9  C   UNL     1      43.341   5.394  12.920  0.00  0.00    +0.000 C 
BRANCH   8  11
ATOM     10  C   UNL     1      43.552   3.003  11.553  0.00  0.00    +0.000 C 
ATOM     11  C   UNL     1      44.209   4.248  10.914  0.00  0.00    +0.000 C 
BRANCH  11  12
ATOM     12  C   UNL     1      43.978   4.139   9.375  0.00  0.00    +0.000 C 
BRANCH  12  13
ATOM     13  C   UNL     1      45.124   3.471   8.634  0.00  0.00    +0.000 A 
ATOM     14  C   UNL     1      45.353   2.110   8.793  0.00  0.00    +0.000 A 
ATOM     15  C   UNL     1      46.385   1.510   8.079  0.00  0.00    +0.000 A 
ATOM     16  C   UNL     1      47.157   2.276   7.217  0.00  0.00    +0.000 A 
ATOM     17  C   UNL     1      46.860   3.622   7.105  0.00  0.00    +0.000 A 
ATOM     18  N   UNL     1      45.863   4.231   7.785  0.00  0.00    +0.000 NA
ENDBRANCH  12  13
ENDBRANCH  11  12
ENDBRANCH   8  11
ENDBRANCH   7   8
ENDBRANCH   1   7
BRANCH   4  19
ATOM     19  C   UNL     1      49.111   7.303  14.904  0.00  0.00    +0.000 C 
BRANCH  19  20
ATOM     20  N   UNL     1      48.785   7.350  16.328  0.00  0.00    +0.000 N 
ATOM     21  C   UNL     1      48.785   8.613  17.052  0.00  0.00    +0.000 C 
ATOM     22  C   UNL     1      48.854   6.100  16.953  0.00  0.00    +0.000 C 
ATOM     23  O   UNL     1      49.153   5.096  16.294  0.00  0.00    +0.000 OA
BRANCH  22  24
ATOM     24  C   UNL     1      48.493   5.949  18.358  0.00  0.00    +0.000 A 
ATOM     25  C   UNL     1      47.231   5.726  18.894  0.00  0.00    +0.000 A 
ATOM     26  N   UNL     1      47.382   5.381  20.211  0.00  0.00    +0.000 N 
ATOM     27  C   UNL     1      48.708   5.353  20.537  0.00  0.00    +0.000 A 
ATOM     28  N   UNL     1      49.195   4.941  21.721  0.00  0.00    +0.000 NA
ATOM     29  C   UNL     1      50.546   5.004  21.784  0.00  0.00    +0.000 A 
ATOM     30  C   UNL     1      51.385   5.515  20.804  0.00  0.00    +0.000 A 
ATOM     31  C   UNL     1      50.814   5.955  19.616  0.00  0.00    +0.000 A 
ATOM     32  C   UNL     1      49.425   5.811  19.440  0.00  0.00    +0.000 A 
ATOM     33  H   UNL     1      46.648   5.115  20.851  0.00  0.00    +0.000 HD
BRANCH  31  34
ATOM     34  O   UNL     1      51.581   6.544  18.648  0.00  0.00    +0.000 OA
ATOM     35  H   UNL     1      51.827   7.439  18.925  0.00  0.00    +0.000 HD
ENDBRANCH  31  34
ENDBRANCH  22  24
ENDBRANCH  19  20
ENDBRANCH   4  19
TORSDOF 9
ENDMDL
MODEL 3
REMARK VINA RESULT:    -6.995      2.788      3.530
REMARK INTER + INTRA:         -11.703
REMARK INTER:                 -11.018
REMARK INTRA:                  -0.685
REMARK UNBOUND:                -1.232
REMARK  Name = 
REMARK  12 active torsions:
REMARK  status: ('A' for Active; 'I' for Inactive)
REMARK    1  A    between atoms: C_1  and  C_2
REMARK    2  A    between atoms: C_2  and  C_3
REMARK    3  A    between atoms: C_2  and  N_10
REMARK    4  A    between atoms: C_3  and  C_4
REMARK    5  A    between atoms: N_10  and  C_11
REMARK    6  A    between atoms: N_10  and  C_12
REMARK    7  A    between atoms: C_12  and  C_13
REMARK    8  A    between atoms: C_16  and  C_17
REMARK    9  A    between atoms: C_17  and  N_18
REMARK   10  A    between atoms: N_18  and  C_19
REMARK   11  A    between atoms: C_20  and  C_22
REMARK   12  A    between atoms: C_29  and  O_30
REMARK                            x       y       z     vdW  Elec       q    Type
REMARK                         _______ _______ _______ _____ _____    ______ ____
ROOT
ATOM      1  C   UNL     1      46.988   6.165  12.898  0.00  0.00    +0.000 A 
ATOM      2  C   UNL     1      47.040   5.053  13.744  0.00  0.00    +0.000 A 
ATOM      3  C   UNL     1      47.634   5.100  14.993  0.00  0.00    +0.000 A 
ATOM      4  C   UNL     1      48.267   6.261  15.423  0.00  0.00    +0.000 A 
ATOM      5  C   UNL     1      48.298   7.369  14.568  0.00  0.00    +0.000 A 
ATOM      6  C   UNL     1      47.652   7.327  13.321  0.00  0.00    +0.000 A 
ENDROOT
BRANCH   1   7
ATOM      7  C   UNL     1      46.295   6.082  11.548  0.00  0.00    +0.000 C 
BRANCH   7   8
ATOM      8  N   UNL     1      44.895   5.583  11.499  0.00  0.00    +0.000 NA
ATOM      9  C   UNL     1      44.219   5.881  12.767  0.00  0.00    +0.000 C 
BRANCH   8  11
ATOM     10  C   UNL     1      43.695   3.409  11.946  0.00  0.00    +0.000 C 
ATOM     11  C   UNL     1      44.722   4.161  11.070  0.00  0.00    +0.000 C 
BRANCH  11  12
ATOM     12  C   UNL     1      44.244   4.017   9.592  0.00  0.00    +0.000 C 
BRANCH  12  13
ATOM     13  C   UNL     1      45.225   3.268   8.706  0.00  0.00    +0.000 A 
ATOM     14  C   UNL     1      45.975   3.959   7.764  0.00  0.00    +0.000 A 
ATOM     15  C   UNL     1      46.894   3.261   6.986  0.00  0.00    +0.000 A 
ATOM     16  C   UNL     1      47.051   1.895   7.174  0.00  0.00    +0.000 A 
ATOM     17  C   UNL     1      46.275   1.281   8.140  0.00  0.00    +0.000 A 
ATOM     18  N   UNL     1      45.376   1.934   8.910  0.00  0.00    +0.000 NA
ENDBRANCH  12  13
ENDBRANCH  11  12
ENDBRANCH   8  11
ENDBRANCH   7   8
ENDBRANCH   1   7
BRANCH   4  19
ATOM     19  C   UNL     1      48.802   6.294  16.824  0.00  0.00    +0.000 C 
BRANCH  19  20
ATOM     20  N   UNL     1      50.199   5.925  17.047  0.00  0.00    +0.000 N 
ATOM     21  C   UNL     1      51.267   6.553  16.283  0.00  0.00    +0.000 C 
ATOM     22  C   UNL     1      50.348   4.717  17.738  0.00  0.00    +0.000 C 
ATOM     23  O   UNL     1      49.348   4.088  18.105  0.00  0.00    +0.000 OA
BRANCH  22  24
ATOM     24  C   UNL     1      51.673   4.231  18.107  0.00  0.00    +0.000 A 
ATOM     25  C   UNL     1      52.665   4.908  18.805  0.00  0.00    +0.000 A 
ATOM     26  N   UNL     1      53.627   4.001  19.166  0.00  0.00    +0.000 N 
ATOM     27  C   UNL     1      53.273   2.753  18.741  0.00  0.00    +0.000 A 
ATOM     28  N   UNL     1      53.948   1.626  19.035  0.00  0.00    +0.000 NA
ATOM     29  C   UNL     1      53.382   0.520  18.498  0.00  0.00    +0.000 A 
ATOM     30  C   UNL     1      52.283   0.495  17.652  0.00  0.00    +0.000 A 
ATOM     31  C   UNL     1      51.651   1.698  17.362  0.00  0.00    +0.000 A 
ATOM     32  C   UNL     1      52.118   2.873  17.979  0.00  0.00    +0.000 A 
ATOM     33  H   UNL     1      54.449   4.186  19.721  0.00  0.00    +0.000 HD
BRANCH  31  34
ATOM     34  O   UNL     1      50.614   1.746  16.470  0.00  0.00    +0.000 OA
ATOM     35  H   UNL     1      50.809   1.176  15.711  0.00  0.00    +0.000 HD
ENDBRANCH  31  34
ENDBRANCH  22  24
ENDBRANCH  19  20
ENDBRANCH   4  19
TORSDOF 9
ENDMDL
MODEL 4
REMARK VINA RESULT:    -6.883      3.076      3.466
REMARK INTER + INTRA:         -11.535
REMARK INTER:                 -10.350
REMARK INTRA:                  -1.186
REMARK UNBOUND:                -1.232
REMARK  Name = 
REMARK  12 active torsions:
REMARK  status: ('A' for Active; 'I' for Inactive)
REMARK    1  A    between atoms: C_1  and  C_2
REMARK    2  A    between atoms: C_2  and  C_3
REMARK    3  A    between atoms: C_2  and  N_10
REMARK    4  A    between atoms: C_3  and  C_4
REMARK    5  A    between atoms: N_10  and  C_11
REMARK    6  A    between atoms: N_10  and  C_12
REMARK    7  A    between atoms: C_12  and  C_13
REMARK    8  A    between atoms: C_16  and  C_17
REMARK    9  A    between atoms: C_17  and  N_18
REMARK   10  A    between atoms: N_18  and  C_19
REMARK   11  A    between atoms: C_20  and  C_22
REMARK   12  A    between atoms: C_29  and  O_30
REMARK                            x       y       z     vdW  Elec       q    Type
REMARK                         _______ _______ _______ _____ _____    ______ ____
ROOT
ATOM      1  C   UNL     1      45.750   6.842  12.560  0.00  0.00    +0.000 A 
ATOM      2  C   UNL     1      46.999   6.500  12.033  0.00  0.00    +0.000 A 
ATOM      3  C   UNL     1      48.024   7.420  11.903  0.00  0.00    +0.000 A 
ATOM      4  C   UNL     1      47.815   8.754  12.239  0.00  0.00    +0.000 A 
ATOM      5  C   UNL     1      46.551   9.143  12.699  0.00  0.00    +0.000 A 
ATOM      6  C   UNL     1      45.531   8.193  12.872  0.00  0.00    +0.000 A 
ENDROOT
BRANCH   1   7
ATOM      7  C   UNL     1      44.661   5.794  12.720  0.00  0.00    +0.000 C 
BRANCH   7   8
ATOM      8  N   UNL     1      43.896   5.376  11.515  0.00  0.00    +0.000 NA
ATOM      9  C   UNL     1      42.457   5.503  11.775  0.00  0.00    +0.000 C 
BRANCH   8  11
ATOM     10  C   UNL     1      43.480   2.889  11.585  0.00  0.00    +0.000 C 
ATOM     11  C   UNL     1      44.265   4.049  10.933  0.00  0.00    +0.000 C 
BRANCH  11  12
ATOM     12  C   UNL     1      44.010   3.958   9.396  0.00  0.00    +0.000 C 
BRANCH  12  13
ATOM     13  C   UNL     1      45.172   3.361   8.622  0.00  0.00    +0.000 A 
ATOM     14  C   UNL     1      45.464   2.009   8.743  0.00  0.00    +0.000 A 
ATOM     15  C   UNL     1      46.511   1.473   7.998  0.00  0.00    +0.000 A 
ATOM     16  C   UNL     1      47.233   2.295   7.144  0.00  0.00    +0.000 A 
ATOM     17  C   UNL     1      46.874   3.628   7.070  0.00  0.00    +0.000 A 
ATOM     18  N   UNL     1      45.861   4.175   7.781  0.00  0.00    +0.000 NA
ENDBRANCH  12  13
ENDBRANCH  11  12
ENDBRANCH   8  11
ENDBRANCH   7   8
ENDBRANCH   1   7
BRANCH   4  19
ATOM     19  C   UNL     1      48.987   9.688  12.180  0.00  0.00    +0.000 C 
BRANCH  19  20
ATOM     20  N   UNL     1      49.312  10.475  13.367  0.00  0.00    +0.000 N 
ATOM     21  C   UNL     1      49.099  11.915  13.388  0.00  0.00    +0.000 C 
ATOM     22  C   UNL     1      50.148   9.803  14.265  0.00  0.00    +0.000 C 
ATOM     23  O   UNL     1      50.523   8.651  14.016  0.00  0.00    +0.000 OA
BRANCH  22  24
ATOM     24  C   UNL     1      50.518  10.414  15.538  0.00  0.00    +0.000 A 
ATOM     25  C   UNL     1      51.713  11.041  15.866  0.00  0.00    +0.000 A 
ATOM     26  N   UNL     1      51.536  11.701  17.054  0.00  0.00    +0.000 N 
ATOM     27  C   UNL     1      50.252  11.537  17.491  0.00  0.00    +0.000 A 
ATOM     28  N   UNL     1      49.728  12.151  18.567  0.00  0.00    +0.000 NA
ATOM     29  C   UNL     1      48.432  11.824  18.779  0.00  0.00    +0.000 A 
ATOM     30  C   UNL     1      47.697  10.893  18.058  0.00  0.00    +0.000 A 
ATOM     31  C   UNL     1      48.310  10.269  16.978  0.00  0.00    +0.000 A 
ATOM     32  C   UNL     1      49.620  10.648  16.632  0.00  0.00    +0.000 A 
ATOM     33  H   UNL     1      52.211  12.284  17.524  0.00  0.00    +0.000 HD
BRANCH  31  34
ATOM     34  O   UNL     1      47.664   9.283  16.281  0.00  0.00    +0.000 OA
ATOM     35  H   UNL     1      48.308   8.758  15.784  0.00  0.00    +0.000 HD
ENDBRANCH  31  34
ENDBRANCH  22  24
ENDBRANCH  19  20
ENDBRANCH   4  19
TORSDOF 9
ENDMDL
MODEL 5
REMARK VINA RESULT:    -6.749      2.498      7.761
REMARK INTER + INTRA:         -11.335
REMARK INTER:                  -8.991
REMARK INTRA:                  -2.344
REMARK UNBOUND:                -1.232
REMARK  Name = 
REMARK  12 active torsions:
REMARK  status: ('A' for Active; 'I' for Inactive)
REMARK    1  A    between atoms: C_1  and  C_2
REMARK    2  A    between atoms: C_2  and  C_3
REMARK    3  A    between atoms: C_2  and  N_10
REMARK    4  A    between atoms: C_3  and  C_4
REMARK    5  A    between atoms: N_10  and  C_11
REMARK    6  A    between atoms: N_10  and  C_12
REMARK    7  A    between atoms: C_12  and  C_13
REMARK    8  A    between atoms: C_16  and  C_17
REMARK    9  A    between atoms: C_17  and  N_18
REMARK   10  A    between atoms: N_18  and  C_19
REMARK   11  A    between atoms: C_20  and  C_22
REMARK   12  A    between atoms: C_29  and  O_30
REMARK                            x       y       z     vdW  Elec       q    Type
REMARK                         _______ _______ _______ _____ _____    ______ ____
ROOT
ATOM      1  C   UNL     1      49.341   8.301  17.542  0.00  0.00    +0.000 A 
ATOM      2  C   UNL     1      49.035   9.580  17.066  0.00  0.00    +0.000 A 
ATOM      3  C   UNL     1      48.803   9.834  15.726  0.00  0.00    +0.000 A 
ATOM      4  C   UNL     1      48.936   8.817  14.787  0.00  0.00    +0.000 A 
ATOM      5  C   UNL     1      49.316   7.542  15.223  0.00  0.00    +0.000 A 
ATOM      6  C   UNL     1      49.503   7.282  16.591  0.00  0.00    +0.000 A 
ENDROOT
BRANCH   1   7
ATOM      7  C   UNL     1      49.554   8.056  19.026  0.00  0.00    +0.000 C 
BRANCH   7   8
ATOM      8  N   UNL     1      48.364   7.805  19.882  0.00  0.00    +0.000 NA
ATOM      9  C   UNL     1      48.462   8.602  21.111  0.00  0.00    +0.000 C 
BRANCH   8  11
ATOM     10  C   UNL     1      47.334   6.173  21.507  0.00  0.00    +0.000 C 
ATOM     11  C   UNL     1      48.039   6.370  20.146  0.00  0.00    +0.000 C 
BRANCH  11  12
ATOM     12  C   UNL     1      47.109   5.739  19.063  0.00  0.00    +0.000 C 
BRANCH  12  13
ATOM     13  C   UNL     1      47.769   4.624  18.270  0.00  0.00    +0.000 A 
ATOM     14  C   UNL     1      49.082   4.262  18.545  0.00  0.00    +0.000 A 
ATOM     15  C   UNL     1      49.658   3.215  17.832  0.00  0.00    +0.000 A 
ATOM     16  C   UNL     1      48.910   2.548  16.872  0.00  0.00    +0.000 A 
ATOM     17  C   UNL     1      47.607   2.960  16.665  0.00  0.00    +0.000 A 
ATOM     18  N   UNL     1      47.022   3.973  17.343  0.00  0.00    +0.000 NA
ENDBRANCH  12  13
ENDBRANCH  11  12
ENDBRANCH   8  11
ENDBRANCH   7   8
ENDBRANCH   1   7
BRANCH   4  19
ATOM     19  C   UNL     1      48.571   9.120  13.364  0.00  0.00    +0.000 C 
BRANCH  19  20
ATOM     20  N   UNL     1      47.801   8.128  12.615  0.00  0.00    +0.000 N 
ATOM     21  C   UNL     1      48.383   7.440  11.472  0.00  0.00    +0.000 C 
ATOM     22  C   UNL     1      46.425   8.198  12.858  0.00  0.00    +0.000 C 
ATOM     23  O   UNL     1      45.980   9.035  13.654  0.00  0.00    +0.000 OA
BRANCH  22  24
ATOM     24  C   UNL     1      45.512   7.238  12.248  0.00  0.00    +0.000 A 
ATOM     25  C   UNL     1      44.632   7.450  11.195  0.00  0.00    +0.000 A 
ATOM     26  N   UNL     1      44.174   6.231  10.769  0.00  0.00    +0.000 N 
ATOM     27  C   UNL     1      44.751   5.234  11.504  0.00  0.00    +0.000 A 
ATOM     28  N   UNL     1      44.598   3.920  11.260  0.00  0.00    +0.000 NA
ATOM     29  C   UNL     1      45.284   3.141  12.129  0.00  0.00    +0.000 A 
ATOM     30  C   UNL     1      46.007   3.587  13.227  0.00  0.00    +0.000 A 
ATOM     31  C   UNL     1      46.097   4.957  13.441  0.00  0.00    +0.000 A 
ATOM     32  C   UNL     1      45.503   5.827  12.509  0.00  0.00    +0.000 A 
ATOM     33  H   UNL     1      43.556   6.059   9.990  0.00  0.00    +0.000 HD
BRANCH  31  34
ATOM     34  O   UNL     1      46.727   5.451  14.552  0.00  0.00    +0.000 OA
ATOM     35  H   UNL     1      46.351   5.046  15.348  0.00  0.00    +0.000 HD
ENDBRANCH  31  34
ENDBRANCH  22  24
ENDBRANCH  19  20
ENDBRANCH   4  19
TORSDOF 9
ENDMDL
MODEL 6
REMARK VINA RESULT:    -6.640      1.659      2.101
REMARK INTER + INTRA:         -11.172
REMARK INTER:                 -10.041
REMARK INTRA:                  -1.131
REMARK UNBOUND:                -1.232
REMARK  Name = 
REMARK  12 active torsions:
REMARK  status: ('A' for Active; 'I' for Inactive)
REMARK    1  A    between atoms: C_1  and  C_2
REMARK    2  A    between atoms: C_2  and  C_3
REMARK    3  A    between atoms: C_2  and  N_10
REMARK    4  A    between atoms: C_3  and  C_4
REMARK    5  A    between atoms: N_10  and  C_11
REMARK    6  A    between atoms: N_10  and  C_12
REMARK    7  A    between atoms: C_12  and  C_13
REMARK    8  A    between atoms: C_16  and  C_17
REMARK    9  A    between atoms: C_17  and  N_18
REMARK   10  A    between atoms: N_18  and  C_19
REMARK   11  A    between atoms: C_20  and  C_22
REMARK   12  A    between atoms: C_29  and  O_30
REMARK                            x       y       z     vdW  Elec       q    Type
REMARK                         _______ _______ _______ _____ _____    ______ ____
ROOT
ATOM      1  C   UNL     1      46.750   6.910  11.988  0.00  0.00    +0.000 A 
ATOM      2  C   UNL     1      48.119   7.007  11.722  0.00  0.00    +0.000 A 
ATOM      3  C   UNL     1      48.957   7.836  12.447  0.00  0.00    +0.000 A 
ATOM      4  C   UNL     1      48.438   8.665  13.436  0.00  0.00    +0.000 A 
ATOM      5  C   UNL     1      47.058   8.647  13.675  0.00  0.00    +0.000 A 
ATOM      6  C   UNL     1      46.223   7.767  12.967  0.00  0.00    +0.000 A 
ENDROOT
BRANCH   1   7
ATOM      7  C   UNL     1      45.870   5.959  11.195  0.00  0.00    +0.000 C 
BRANCH   7   8
ATOM      8  N   UNL     1      45.008   5.002  11.938  0.00  0.00    +0.000 NA
ATOM      9  C   UNL     1      45.844   3.977  12.574  0.00  0.00    +0.000 C 
BRANCH   8  11
ATOM     10  C   UNL     1      42.501   4.970  11.660  0.00  0.00    +0.000 C 
ATOM     11  C   UNL     1      43.862   4.423  11.173  0.00  0.00    +0.000 C 
BRANCH  11  12
ATOM     12  C   UNL     1      43.938   4.707   9.640  0.00  0.00    +0.000 C 
BRANCH  12  13
ATOM     13  C   UNL     1      44.915   3.807   8.904  0.00  0.00    +0.000 A 
ATOM     14  C   UNL     1      44.964   2.450   9.199  0.00  0.00    +0.000 A 
ATOM     15  C   UNL     1      45.840   1.634   8.488  0.00  0.00    +0.000 A 
ATOM     16  C   UNL     1      46.636   2.188   7.495  0.00  0.00    +0.000 A 
ATOM     17  C   UNL     1      46.521   3.544   7.253  0.00  0.00    +0.000 A 
ATOM     18  N   UNL     1      45.678   4.359   7.926  0.00  0.00    +0.000 NA
ENDBRANCH  12  13
ENDBRANCH  11  12
ENDBRANCH   8  11
ENDBRANCH   7   8
ENDBRANCH   1   7
BRANCH   4  19
ATOM     19  C   UNL     1      49.400   9.466  14.261  0.00  0.00    +0.000 C 
BRANCH  19  20
ATOM     20  N   UNL     1      49.311   9.379  15.717  0.00  0.00    +0.000 N 
ATOM     21  C   UNL     1      48.831  10.507  16.503  0.00  0.00    +0.000 C 
ATOM     22  C   UNL     1      50.048   8.319  16.255  0.00  0.00    +0.000 C 
ATOM     23  O   UNL     1      50.677   7.562  15.505  0.00  0.00    +0.000 OA
BRANCH  22  24
ATOM     24  C   UNL     1      50.016   8.041  17.687  0.00  0.00    +0.000 A 
ATOM     25  C   UNL     1      50.730   8.679  18.694  0.00  0.00    +0.000 A 
ATOM     26  N   UNL     1      50.203   8.294  19.899  0.00  0.00    +0.000 N 
ATOM     27  C   UNL     1      49.154   7.442  19.698  0.00  0.00    +0.000 A 
ATOM     28  N   UNL     1      48.353   6.975  20.672  0.00  0.00    +0.000 NA
ATOM     29  C   UNL     1      47.383   6.154  20.206  0.00  0.00    +0.000 A 
ATOM     30  C   UNL     1      47.236   5.729  18.893  0.00  0.00    +0.000 A 
ATOM     31  C   UNL     1      48.118   6.225  17.941  0.00  0.00    +0.000 A 
ATOM     32  C   UNL     1      49.079   7.172  18.338  0.00  0.00    +0.000 A 
ATOM     33  H   UNL     1      50.481   8.625  20.811  0.00  0.00    +0.000 HD
BRANCH  31  34
ATOM     34  O   UNL     1      48.073   5.779  16.647  0.00  0.00    +0.000 OA
ATOM     35  H   UNL     1      47.996   6.533  16.044  0.00  0.00    +0.000 HD
ENDBRANCH  31  34
ENDBRANCH  22  24
ENDBRANCH  19  20
ENDBRANCH   4  19
TORSDOF 9
ENDMDL
MODEL 7
REMARK VINA RESULT:    -6.636      2.282      3.011
REMARK INTER + INTRA:         -11.165
REMARK INTER:                  -9.878
REMARK INTRA:                  -1.287
REMARK UNBOUND:                -1.232
REMARK  Name = 
REMARK  12 active torsions:
REMARK  status: ('A' for Active; 'I' for Inactive)
REMARK    1  A    between atoms: C_1  and  C_2
REMARK    2  A    between atoms: C_2  and  C_3
REMARK    3  A    between atoms: C_2  and  N_10
REMARK    4  A    between atoms: C_3  and  C_4
REMARK    5  A    between atoms: N_10  and  C_11
REMARK    6  A    between atoms: N_10  and  C_12
REMARK    7  A    between atoms: C_12  and  C_13
REMARK    8  A    between atoms: C_16  and  C_17
REMARK    9  A    between atoms: C_17  and  N_18
REMARK   10  A    between atoms: N_18  and  C_19
REMARK   11  A    between atoms: C_20  and  C_22
REMARK   12  A    between atoms: C_29  and  O_30
REMARK                            x       y       z     vdW  Elec       q    Type
REMARK                         _______ _______ _______ _____ _____    ______ ____
ROOT
ATOM      1  C   UNL     1      45.645   7.333  12.491  0.00  0.00    +0.000 A 
ATOM      2  C   UNL     1      46.945   6.888  12.230  0.00  0.00    +0.000 A 
ATOM      3  C   UNL     1      48.001   7.762  12.041  0.00  0.00    +0.000 A 
ATOM      4  C   UNL     1      47.783   9.135  12.039  0.00  0.00    +0.000 A 
ATOM      5  C   UNL     1      46.479   9.611  12.223  0.00  0.00    +0.000 A 
ATOM      6  C   UNL     1      45.421   8.718  12.461  0.00  0.00    +0.000 A 
ENDROOT
BRANCH   1   7
ATOM      7  C   UNL     1      44.519   6.341  12.729  0.00  0.00    +0.000 C 
BRANCH   7   8
ATOM      8  N   UNL     1      43.943   5.626  11.558  0.00  0.00    +0.000 NA
ATOM      9  C   UNL     1      42.519   5.360  11.793  0.00  0.00    +0.000 C 
BRANCH   8  11
ATOM     10  C   UNL     1      44.687   3.292  12.158  0.00  0.00    +0.000 C 
ATOM     11  C   UNL     1      44.692   4.417  11.098  0.00  0.00    +0.000 C 
BRANCH  11  12
ATOM     12  C   UNL     1      44.119   3.800   9.784  0.00  0.00    +0.000 C 
BRANCH  12  13
ATOM     13  C   UNL     1      45.189   3.288   8.836  0.00  0.00    +0.000 A 
ATOM     14  C   UNL     1      45.497   1.934   8.805  0.00  0.00    +0.000 A 
ATOM     15  C   UNL     1      46.456   1.478   7.904  0.00  0.00    +0.000 A 
ATOM     16  C   UNL     1      47.076   2.380   7.051  0.00  0.00    +0.000 A 
ATOM     17  C   UNL     1      46.707   3.710   7.135  0.00  0.00    +0.000 A 
ATOM     18  N   UNL     1      45.779   4.180   7.999  0.00  0.00    +0.000 NA
ENDBRANCH  12  13
ENDBRANCH  11  12
ENDBRANCH   8  11
ENDBRANCH   7   8
ENDBRANCH   1   7
BRANCH   4  19
ATOM     19  C   UNL     1      48.976  10.039  11.936  0.00  0.00    +0.000 C 
BRANCH  19  20
ATOM     20  N   UNL     1      49.905  10.099  13.062  0.00  0.00    +0.000 N 
ATOM     21  C   UNL     1      49.715  11.066  14.134  0.00  0.00    +0.000 C 
ATOM     22  C   UNL     1      51.117   9.445  12.815  0.00  0.00    +0.000 C 
ATOM     23  O   UNL     1      51.304   8.880  11.731  0.00  0.00    +0.000 OA
BRANCH  22  24
ATOM     24  C   UNL     1      52.135   9.347  13.856  0.00  0.00    +0.000 A 
ATOM     25  C   UNL     1      53.262  10.140  14.022  0.00  0.00    +0.000 A 
ATOM     26  N   UNL     1      53.787   9.882  15.262  0.00  0.00    +0.000 N 
ATOM     27  C   UNL     1      53.016   8.960  15.911  0.00  0.00    +0.000 A 
ATOM     28  N   UNL     1      53.196   8.577  17.188  0.00  0.00    +0.000 NA
ATOM     29  C   UNL     1      52.290   7.657  17.594  0.00  0.00    +0.000 A 
ATOM     30  C   UNL     1      51.318   7.065  16.800  0.00  0.00    +0.000 A 
ATOM     31  C   UNL     1      51.207   7.482  15.479  0.00  0.00    +0.000 A 
ATOM     32  C   UNL     1      52.042   8.519  15.025  0.00  0.00    +0.000 A 
ATOM     33  H   UNL     1      54.581  10.338  15.686  0.00  0.00    +0.000 HD
BRANCH  31  34
ATOM     34  O   UNL     1      50.323   6.877  14.627  0.00  0.00    +0.000 OA
ATOM     35  H   UNL     1      50.736   6.755  13.759  0.00  0.00    +0.000 HD
ENDBRANCH  31  34
ENDBRANCH  22  24
ENDBRANCH  19  20
ENDBRANCH   4  19
TORSDOF 9
ENDMDL
MODEL 8
REMARK VINA RESULT:    -6.624      3.587      5.042
REMARK INTER + INTRA:         -11.149
REMARK INTER:                  -9.932
REMARK INTRA:                  -1.217
REMARK UNBOUND:                -1.232
REMARK  Name = 
REMARK  12 active torsions:
REMARK  status: ('A' for Active; 'I' for Inactive)
REMARK    1  A    between atoms: C_1  and  C_2
REMARK    2  A    between atoms: C_2  and  C_3
REMARK    3  A    between atoms: C_2  and  N_10
REMARK    4  A    between atoms: C_3  and  C_4
REMARK    5  A    between atoms: N_10  and  C_11
REMARK    6  A    between atoms: N_10  and  C_12
REMARK    7  A    between atoms: C_12  and  C_13
REMARK    8  A    between atoms: C_16  and  C_17
REMARK    9  A    between atoms: C_17  and  N_18
REMARK   10  A    between atoms: N_18  and  C_19
REMARK   11  A    between atoms: C_20  and  C_22
REMARK   12  A    between atoms: C_29  and  O_30
REMARK                            x       y       z     vdW  Elec       q    Type
REMARK                         _______ _______ _______ _____ _____    ______ ____
ROOT
ATOM      1  C   UNL     1      45.970   6.303  13.132  0.00  0.00    +0.000 A 
ATOM      2  C   UNL     1      47.264   5.984  13.555  0.00  0.00    +0.000 A 
ATOM      3  C   UNL     1      48.243   6.946  13.731  0.00  0.00    +0.000 A 
ATOM      4  C   UNL     1      47.980   8.277  13.421  0.00  0.00    +0.000 A 
ATOM      5  C   UNL     1      46.717   8.617  12.923  0.00  0.00    +0.000 A 
ATOM      6  C   UNL     1      45.715   7.641  12.792  0.00  0.00    +0.000 A 
ENDROOT
BRANCH   1   7
ATOM      7  C   UNL     1      44.913   5.221  12.985  0.00  0.00    +0.000 C 
BRANCH   7   8
ATOM      8  N   UNL     1      44.190   5.107  11.690  0.00  0.00    +0.000 NA
ATOM      9  C   UNL     1      42.780   5.472  11.878  0.00  0.00    +0.000 C 
BRANCH   8  11
ATOM     10  C   UNL     1      43.379   2.730  11.452  0.00  0.00    +0.000 C 
ATOM     11  C   UNL     1      44.362   3.815  10.958  0.00  0.00    +0.000 C 
BRANCH  11  12
ATOM     12  C   UNL     1      44.148   3.947   9.417  0.00  0.00    +0.000 C 
BRANCH  12  13
ATOM     13  C   UNL     1      45.267   3.333   8.594  0.00  0.00    +0.000 A 
ATOM     14  C   UNL     1      45.545   1.977   8.706  0.00  0.00    +0.000 A 
ATOM     15  C   UNL     1      46.551   1.425   7.917  0.00  0.00    +0.000 A 
ATOM     16  C   UNL     1      47.246   2.236   7.030  0.00  0.00    +0.000 A 
ATOM     17  C   UNL     1      46.903   3.573   6.970  0.00  0.00    +0.000 A 
ATOM     18  N   UNL     1      45.931   4.135   7.722  0.00  0.00    +0.000 NA
ENDBRANCH  12  13
ENDBRANCH  11  12
ENDBRANCH   8  11
ENDBRANCH   7   8
ENDBRANCH   1   7
BRANCH   4  19
ATOM     19  C   UNL     1      49.039   9.294  13.728  0.00  0.00    +0.000 C 
BRANCH  19  20
ATOM     20  N   UNL     1      50.012   9.625  12.689  0.00  0.00    +0.000 N 
ATOM     21  C   UNL     1      49.575  10.051  11.368  0.00  0.00    +0.000 C 
ATOM     22  C   UNL     1      51.297   9.146  12.962  0.00  0.00    +0.000 C 
ATOM     23  O   UNL     1      51.515   8.524  14.010  0.00  0.00    +0.000 OA
BRANCH  22  24
ATOM     24  C   UNL     1      52.409   9.444  12.065  0.00  0.00    +0.000 A 
ATOM     25  C   UNL     1      53.291  10.515  12.129  0.00  0.00    +0.000 A 
ATOM     26  N   UNL     1      54.329  10.265  11.271  0.00  0.00    +0.000 N 
ATOM     27  C   UNL     1      54.154   9.051  10.669  0.00  0.00    +0.000 A 
ATOM     28  N   UNL     1      55.052   8.464   9.859  0.00  0.00    +0.000 NA
ATOM     29  C   UNL     1      54.639   7.259   9.401  0.00  0.00    +0.000 A 
ATOM     30  C   UNL     1      53.398   6.682   9.631  0.00  0.00    +0.000 A 
ATOM     31  C   UNL     1      52.502   7.357  10.451  0.00  0.00    +0.000 A 
ATOM     32  C   UNL     1      52.913   8.561  11.053  0.00  0.00    +0.000 A 
ATOM     33  H   UNL     1      55.147  10.839  11.132  0.00  0.00    +0.000 HD
BRANCH  31  34
ATOM     34  O   UNL     1      51.235   6.878  10.648  0.00  0.00    +0.000 OA
ATOM     35  H   UNL     1      51.168   5.978  10.295  0.00  0.00    +0.000 HD
ENDBRANCH  31  34
ENDBRANCH  22  24
ENDBRANCH  19  20
ENDBRANCH   4  19
TORSDOF 9
ENDMDL
MODEL 9
REMARK VINA RESULT:    -6.303      2.469      8.076
REMARK INTER + INTRA:         -10.668
REMARK INTER:                  -8.759
REMARK INTRA:                  -1.909
REMARK UNBOUND:                -1.232
REMARK  Name = 
REMARK  12 active torsions:
REMARK  status: ('A' for Active; 'I' for Inactive)
REMARK    1  A    between atoms: C_1  and  C_2
REMARK    2  A    between atoms: C_2  and  C_3
REMARK    3  A    between atoms: C_2  and  N_10
REMARK    4  A    between atoms: C_3  and  C_4
REMARK    5  A    between atoms: N_10  and  C_11
REMARK    6  A    between atoms: N_10  and  C_12
REMARK    7  A    between atoms: C_12  and  C_13
REMARK    8  A    between atoms: C_16  and  C_17
REMARK    9  A    between atoms: C_17  and  N_18
REMARK   10  A    between atoms: N_18  and  C_19
REMARK   11  A    between atoms: C_20  and  C_22
REMARK   12  A    between atoms: C_29  and  O_30
REMARK                            x       y       z     vdW  Elec       q    Type
REMARK                         _______ _______ _______ _____ _____    ______ ____
ROOT
ATOM      1  C   UNL     1      52.114   7.290  15.558  0.00  0.00    +0.000 A 
ATOM      2  C   UNL     1      50.771   7.088  15.892  0.00  0.00    +0.000 A 
ATOM      3  C   UNL     1      49.737   7.677  15.187  0.00  0.00    +0.000 A 
ATOM      4  C   UNL     1      50.011   8.558  14.147  0.00  0.00    +0.000 A 
ATOM      5  C   UNL     1      51.347   8.841  13.836  0.00  0.00    +0.000 A 
ATOM      6  C   UNL     1      52.390   8.201  14.527  0.00  0.00    +0.000 A 
ENDROOT
BRANCH   1   7
ATOM      7  C   UNL     1      53.220   6.597  16.334  0.00  0.00    +0.000 C 
BRANCH   7   8
ATOM      8  N   UNL     1      52.903   6.037  17.676  0.00  0.00    +0.000 NA
ATOM      9  C   UNL     1      53.902   6.493  18.650  0.00  0.00    +0.000 C 
BRANCH   8  11
ATOM     10  C   UNL     1      53.942   3.787  18.147  0.00  0.00    +0.000 C 
ATOM     11  C   UNL     1      52.671   4.561  17.730  0.00  0.00    +0.000 C 
BRANCH  11  12
ATOM     12  C   UNL     1      51.546   4.151  18.731  0.00  0.00    +0.000 C 
BRANCH  12  13
ATOM     13  C   UNL     1      50.237   3.782  18.056  0.00  0.00    +0.000 A 
ATOM     14  C   UNL     1      50.150   2.617  17.304  0.00  0.00    +0.000 A 
ATOM     15  C   UNL     1      48.932   2.277  16.722  0.00  0.00    +0.000 A 
ATOM     16  C   UNL     1      47.830   3.100  16.912  0.00  0.00    +0.000 A 
ATOM     17  C   UNL     1      47.995   4.236  17.683  0.00  0.00    +0.000 A 
ATOM     18  N   UNL     1      49.165   4.589  18.261  0.00  0.00    +0.000 NA
ENDBRANCH  12  13
ENDBRANCH  11  12
ENDBRANCH   8  11
ENDBRANCH   7   8
ENDBRANCH   1   7
BRANCH   4  19
ATOM     19  C   UNL     1      48.857   9.087  13.348  0.00  0.00    +0.000 C 
BRANCH  19  20
ATOM     20  N   UNL     1      48.014   8.136  12.626  0.00  0.00    +0.000 N 
ATOM     21  C   UNL     1      48.503   7.464  11.431  0.00  0.00    +0.000 C 
ATOM     22  C   UNL     1      46.659   8.234  12.959  0.00  0.00    +0.000 C 
ATOM     23  O   UNL     1      46.288   9.059  13.803  0.00  0.00    +0.000 OA
BRANCH  22  24
ATOM     24  C   UNL     1      45.683   7.313  12.385  0.00  0.00    +0.000 A 
ATOM     25  C   UNL     1      44.757   7.570  11.383  0.00  0.00    +0.000 A 
ATOM     26  N   UNL     1      44.236   6.373  10.966  0.00  0.00    +0.000 N 
ATOM     27  C   UNL     1      44.817   5.347  11.656  0.00  0.00    +0.000 A 
ATOM     28  N   UNL     1      44.607   4.042  11.404  0.00  0.00    +0.000 NA
ATOM     29  C   UNL     1      45.311   3.228  12.225  0.00  0.00    +0.000 A 
ATOM     30  C   UNL     1      46.104   3.633  13.289  0.00  0.00    +0.000 A 
ATOM     31  C   UNL     1      46.252   4.996  13.516  0.00  0.00    +0.000 A 
ATOM     32  C   UNL     1      45.641   5.899  12.628  0.00  0.00    +0.000 A 
ATOM     33  H   UNL     1      43.574   6.233  10.218  0.00  0.00    +0.000 HD
BRANCH  31  34
ATOM     34  O   UNL     1      46.955   5.453  14.599  0.00  0.00    +0.000 OA
ATOM     35  H   UNL     1      47.135   4.719  15.205  0.00  0.00    +0.000 HD
ENDBRANCH  31  34
ENDBRANCH  22  24
ENDBRANCH  19  20
ENDBRANCH   4  19
TORSDOF 9
ENDMDL
