MODEL 1
REMARK VINA RESULT:    -7.640      0.000      0.000
REMARK INTER + INTRA:         -10.666
REMARK INTER:                  -9.874
REMARK INTRA:                  -0.793
REMARK UNBOUND:                -0.793
REMARK  Name = 
REMARK  5 active torsions:
REMARK  status: ('A' for Active; 'I' for Inactive)
REMARK    1  A    between atoms: C_2  and  C_3
REMARK    2  A    between atoms: C_6  and  N_7
REMARK    3  A    between atoms: N_7  and  C_8
REMARK    4  A    between atoms: C_8  and  C_9
REMARK    5  A    between atoms: C_14  and  N_15
REMARK                            x       y       z     vdW  Elec       q    Type
REMARK                         _______ _______ _______ _____ _____    ______ ____
ROOT
ATOM      1  C   UNL     1      44.961   4.694  11.927  0.00  0.00    +0.000 A 
ATOM      2  C   UNL     1      45.580   3.768  12.774  0.00  0.00    +0.000 A 
ATOM      3  C   UNL     1      46.691   4.144  13.512  0.00  0.00    +0.000 A 
ATOM      4  F   UNL     1      47.279   3.250  14.318  0.00  0.00    +0.000 F 
ATOM      5  C   UNL     1      47.197   5.436  13.441  0.00  0.00    +0.000 A 
ATOM      6  C   UNL     1      46.597   6.401  12.622  0.00  0.00    +0.000 A 
ATOM      7  C   UNL     1      45.492   5.997  11.849  0.00  0.00    +0.000 A 
ENDROOT
BRANCH   6   8
ATOM      8  N   UNL     1      47.008   7.722  12.627  0.00  0.00    +0.000 N 
ATOM      9  C   UNL     1      46.081   8.788  13.005  0.00  0.00    +0.000 C 
ATOM     10  C   UNL     1      46.247   9.932  12.006  0.00  0.00    +0.000 C 
ATOM     11  C   UNL     1      47.697  10.409  11.951  0.00  0.00    +0.000 C 
ATOM     12  C   UNL     1      48.662   9.250  11.694  0.00  0.00    +0.000 C 
ATOM     13  C   UNL     1      48.426   8.078  12.651  0.00  0.00    +0.000 C 
ENDBRANCH   6   8
BRANCH   1  14
ATOM     14  C   UNL     1      43.754   4.284  11.113  0.00  0.00    +0.000 C 
BRANCH  14  15
ATOM     15  N   UNL     1      43.997   4.591   9.715  0.00  0.00    +0.000 N 
ATOM     16  H   UNL     1      44.149   5.581   9.533  0.00  0.00    +0.000 HD
BRANCH  15  20
ATOM     17  C   UNL     1      46.646   2.515   7.382  0.00  0.00    +0.000 A 
ATOM     18  C   UNL     1      46.509   3.890   7.307  0.00  0.00    +0.000 A 
ATOM     19  N   UNL     1      45.658   4.586   8.108  0.00  0.00    +0.000 NA
ATOM     20  C   UNL     1      44.925   3.871   8.989  0.00  0.00    +0.000 A 
ATOM     21  C   UNL     1      45.069   2.483   9.042  0.00  0.00    +0.000 A 
ATOM     22  N   UNL     1      45.930   1.776   8.262  0.00  0.00    +0.000 NA
BRANCH  17  24
ATOM     23  N   UNL     1      48.251   1.255   5.777  0.00  0.00    +0.000 NA
ATOM     24  C   UNL     1      47.544   1.811   6.514  0.00  0.00    +0.000 C 
ENDBRANCH  17  24
ENDBRANCH  15  20
ENDBRANCH  14  15
ENDBRANCH   1  14
TORSDOF 5
ENDMDL
MODEL 2
REMARK VINA RESULT:    -7.079      2.234      3.671
REMARK INTER + INTRA:          -9.941
REMARK INTER:                  -9.364
REMARK INTRA:                  -0.577
REMARK UNBOUND:                -0.793
REMARK  Name = 
REMARK  5 active torsions:
REMARK  status: ('A' for Active; 'I' for Inactive)
REMARK    1  A    between atoms: C_2  and  C_3
REMARK    2  A    between atoms: C_6  and  N_7
REMARK    3  A    between atoms: N_7  and  C_8
REMARK    4  A    between atoms: C_8  and  C_9
REMARK    5  A    between atoms: C_14  and  N_15
REMARK                            x       y       z     vdW  Elec       q    Type
REMARK                         _______ _______ _______ _____ _____    ______ ____
ROOT
ATOM      1  C   UNL     1      45.499   5.089  12.083  0.00  0.00    +0.000 A 
ATOM      2  C   UNL     1      46.072   6.189  11.436  0.00  0.00    +0.000 A 
ATOM      3  C   UNL     1      47.079   6.909  12.060  0.00  0.00    +0.000 A 
ATOM      4  F   UNL     1      47.621   7.962  11.434  0.00  0.00    +0.000 F 
ATOM      5  C   UNL     1      47.547   6.547  13.317  0.00  0.00    +0.000 A 
ATOM      6  C   UNL     1      47.016   5.440  13.993  0.00  0.00    +0.000 A 
ATOM      7  C   UNL     1      45.968   4.741  13.365  0.00  0.00    +0.000 A 
ENDROOT
BRANCH   6   8
ATOM      8  N   UNL     1      47.547   4.990  15.189  0.00  0.00    +0.000 N 
ATOM      9  C   UNL     1      47.437   3.582  15.567  0.00  0.00    +0.000 C 
ATOM     10  C   UNL     1      47.034   3.521  17.040  0.00  0.00    +0.000 C 
ATOM     11  C   UNL     1      48.025   4.287  17.914  0.00  0.00    +0.000 C 
ATOM     12  C   UNL     1      48.229   5.718  17.412  0.00  0.00    +0.000 C 
ATOM     13  C   UNL     1      48.551   5.765  15.916  0.00  0.00    +0.000 C 
ENDBRANCH   6   8
BRANCH   1  14
ATOM     14  C   UNL     1      44.393   4.309  11.408  0.00  0.00    +0.000 C 
BRANCH  14  15
ATOM     15  N   UNL     1      44.420   4.583   9.982  0.00  0.00    +0.000 N 
ATOM     16  H   UNL     1      44.535   5.569   9.757  0.00  0.00    +0.000 HD
BRANCH  15  20
ATOM     17  C   UNL     1      46.710   2.473   7.323  0.00  0.00    +0.000 A 
ATOM     18  C   UNL     1      46.620   3.854   7.294  0.00  0.00    +0.000 A 
ATOM     19  N   UNL     1      45.890   4.560   8.201  0.00  0.00    +0.000 NA
ATOM     20  C   UNL     1      45.233   3.849   9.142  0.00  0.00    +0.000 A 
ATOM     21  C   UNL     1      45.327   2.456   9.147  0.00  0.00    +0.000 A 
ATOM     22  N   UNL     1      46.067   1.739   8.260  0.00  0.00    +0.000 NA
BRANCH  17  24
ATOM     23  N   UNL     1      48.075   1.197   5.521  0.00  0.00    +0.000 NA
ATOM     24  C   UNL     1      47.477   1.760   6.345  0.00  0.00    +0.000 C 
ENDBRANCH  17  24
ENDBRANCH  15  20
ENDBRANCH  14  15
ENDBRANCH   1  14
TORSDOF 5
ENDMDL
MODEL 3
REMARK VINA RESULT:    -7.025      2.813      7.148
REMARK INTER + INTRA:          -9.871
REMARK INTER:                  -9.177
REMARK INTRA:                  -0.694
REMARK UNBOUND:                -0.793
REMARK  Name = 
REMARK  5 active torsions:
REMARK  status: ('A' for Active; 'I' for Inactive)
REMARK    1  A    between atoms: C_2  and  C_3
REMARK    2  A    between atoms: C_6  and  N_7
REMARK    3  A    between atoms: N_7  and  C_8
REMARK    4  A    between atoms: C_8  and  C_9
REMARK    5  A    between atoms: C_14  and  N_15
REMARK                            x       y       z     vdW  Elec       q    Type
REMARK                         _______ _______ _______ _____ _____    ______ ____
ROOT
ATOM      1  C   UNL     1      45.428   6.283  11.584  0.00  0.00    +0.000 A 
ATOM      2  C   UNL     1      44.101   6.262  12.025  0.00  0.00    +0.000 A 
ATOM      3  C   UNL     1      43.171   5.462  11.379  0.00  0.00    +0.000 A 
ATOM      4  F   UNL     1      41.902   5.450  11.807  0.00  0.00    +0.000 F 
ATOM      5  C   UNL     1      43.537   4.660  10.305  0.00  0.00    +0.000 A 
ATOM      6  C   UNL     1      44.859   4.635   9.842  0.00  0.00    +0.000 A 
ATOM      7  C   UNL     1      45.785   5.480  10.482  0.00  0.00    +0.000 A 
ENDROOT
BRANCH   6   8
ATOM      8  N   UNL     1      45.272   3.757   8.855  0.00  0.00    +0.000 N 
ATOM      9  C   UNL     1      44.737   2.397   8.799  0.00  0.00    +0.000 C 
ATOM     10  C   UNL     1      45.904   1.444   8.537  0.00  0.00    +0.000 C 
ATOM     11  C   UNL     1      46.657   1.831   7.266  0.00  0.00    +0.000 C 
ATOM     12  C   UNL     1      47.083   3.301   7.289  0.00  0.00    +0.000 C 
ATOM     13  C   UNL     1      45.919   4.234   7.634  0.00  0.00    +0.000 C 
ENDBRANCH   6   8
BRANCH   1  14
ATOM     14  C   UNL     1      46.441   7.163  12.280  0.00  0.00    +0.000 C 
BRANCH  14  15
ATOM     15  N   UNL     1      47.573   6.351  12.692  0.00  0.00    +0.000 N 
ATOM     16  H   UNL     1      48.474   6.807  12.557  0.00  0.00    +0.000 HD
BRANCH  15  20
ATOM     17  C   UNL     1      47.809   4.476  16.324  0.00  0.00    +0.000 A 
ATOM     18  C   UNL     1      48.502   5.641  16.043  0.00  0.00    +0.000 A 
ATOM     19  N   UNL     1      48.395   6.286  14.850  0.00  0.00    +0.000 NA
ATOM     20  C   UNL     1      47.581   5.732  13.926  0.00  0.00    +0.000 A 
ATOM     21  C   UNL     1      46.899   4.551  14.225  0.00  0.00    +0.000 A 
ATOM     22  N   UNL     1      46.980   3.906  15.419  0.00  0.00    +0.000 NA
BRANCH  17  24
ATOM     23  N   UNL     1      48.082   3.242  18.592  0.00  0.00    +0.000 NA
ATOM     24  C   UNL     1      47.953   3.814  17.587  0.00  0.00    +0.000 C 
ENDBRANCH  17  24
ENDBRANCH  15  20
ENDBRANCH  14  15
ENDBRANCH   1  14
TORSDOF 5
ENDMDL
MODEL 4
REMARK VINA RESULT:    -6.811      2.007      2.814
REMARK INTER + INTRA:          -9.595
REMARK INTER:                  -8.883
REMARK INTRA:                  -0.713
REMARK UNBOUND:                -0.793
REMARK  Name = 
REMARK  5 active torsions:
REMARK  status: ('A' for Active; 'I' for Inactive)
REMARK    1  A    between atoms: C_2  and  C_3
REMARK    2  A    between atoms: C_6  and  N_7
REMARK    3  A    between atoms: N_7  and  C_8
REMARK    4  A    between atoms: C_8  and  C_9
REMARK    5  A    between atoms: C_14  and  N_15
REMARK                            x       y       z     vdW  Elec       q    Type
REMARK                         _______ _______ _______ _____ _____    ______ ____
ROOT
ATOM      1  C   UNL     1      44.839   5.852  11.703  0.00  0.00    +0.000 A 
ATOM      2  C   UNL     1      44.292   7.098  11.378  0.00  0.00    +0.000 A 
ATOM      3  C   UNL     1      44.938   8.259  11.774  0.00  0.00    +0.000 A 
ATOM      4  F   UNL     1      44.405   9.448  11.461  0.00  0.00    +0.000 F 
ATOM      5  C   UNL     1      46.135   8.211  12.477  0.00  0.00    +0.000 A 
ATOM      6  C   UNL     1      46.729   6.985  12.806  0.00  0.00    +0.000 A 
ATOM      7  C   UNL     1      46.044   5.814  12.431  0.00  0.00    +0.000 A 
ENDROOT
BRANCH   6   8
ATOM      8  N   UNL     1      47.977   6.913  13.398  0.00  0.00    +0.000 N 
ATOM      9  C   UNL     1      48.148   6.264  14.697  0.00  0.00    +0.000 C 
ATOM     10  C   UNL     1      49.057   7.150  15.549  0.00  0.00    +0.000 C 
ATOM     11  C   UNL     1      50.387   7.412  14.845  0.00  0.00    +0.000 C 
ATOM     12  C   UNL     1      50.178   7.959  13.432  0.00  0.00    +0.000 C 
ATOM     13  C   UNL     1      49.201   7.105  12.620  0.00  0.00    +0.000 C 
ENDBRANCH   6   8
BRANCH   1  14
ATOM     14  C   UNL     1      44.131   4.585  11.280  0.00  0.00    +0.000 C 
BRANCH  14  15
ATOM     15  N   UNL     1      44.021   4.561   9.832  0.00  0.00    +0.000 N 
ATOM     16  H   UNL     1      43.904   5.482   9.415  0.00  0.00    +0.000 HD
BRANCH  15  20
ATOM     17  C   UNL     1      46.612   2.527   7.398  0.00  0.00    +0.000 A 
ATOM     18  C   UNL     1      46.468   3.903   7.346  0.00  0.00    +0.000 A 
ATOM     19  N   UNL     1      45.636   4.585   8.181  0.00  0.00    +0.000 NA
ATOM     20  C   UNL     1      44.932   3.854   9.071  0.00  0.00    +0.000 A 
ATOM     21  C   UNL     1      45.082   2.467   9.101  0.00  0.00    +0.000 A 
ATOM     22  N   UNL     1      45.924   1.774   8.288  0.00  0.00    +0.000 NA
BRANCH  17  24
ATOM     23  N   UNL     1      48.177   1.298   5.732  0.00  0.00    +0.000 NA
ATOM     24  C   UNL     1      47.487   1.839   6.496  0.00  0.00    +0.000 C 
ENDBRANCH  17  24
ENDBRANCH  15  20
ENDBRANCH  14  15
ENDBRANCH   1  14
TORSDOF 5
ENDMDL
MODEL 5
REMARK VINA RESULT:    -6.698      3.758      8.019
REMARK INTER + INTRA:          -9.449
REMARK INTER:                  -8.907
REMARK INTRA:                  -0.541
REMARK UNBOUND:                -0.793
REMARK  Name = 
REMARK  5 active torsions:
REMARK  status: ('A' for Active; 'I' for Inactive)
REMARK    1  A    between atoms: C_2  and  C_3
REMARK    2  A    between atoms: C_6  and  N_7
REMARK    3  A    between atoms: N_7  and  C_8
REMARK    4  A    between atoms: C_8  and  C_9
REMARK    5  A    between atoms: C_14  and  N_15
REMARK                            x       y       z     vdW  Elec       q    Type
REMARK                         _______ _______ _______ _____ _____    ______ ____
ROOT
ATOM      1  C   UNL     1      45.537   4.947  12.689  0.00  0.00    +0.000 A 
ATOM      2  C   UNL     1      44.205   5.260  12.982  0.00  0.00    +0.000 A 
ATOM      3  C   UNL     1      43.225   5.077  12.019  0.00  0.00    +0.000 A 
ATOM      4  F   UNL     1      41.953   5.382  12.307  0.00  0.00    +0.000 F 
ATOM      5  C   UNL     1      43.538   4.567  10.765  0.00  0.00    +0.000 A 
ATOM      6  C   UNL     1      44.854   4.221  10.435  0.00  0.00    +0.000 A 
ATOM      7  C   UNL     1      45.846   4.448  11.408  0.00  0.00    +0.000 A 
ENDROOT
BRANCH   6   8
ATOM      8  N   UNL     1      45.170   3.601   9.239  0.00  0.00    +0.000 N 
ATOM      9  C   UNL     1      44.824   2.198   9.014  0.00  0.00    +0.000 C 
ATOM     10  C   UNL     1      46.029   1.514   8.370  0.00  0.00    +0.000 C 
ATOM     11  C   UNL     1      46.446   2.227   7.086  0.00  0.00    +0.000 C 
ATOM     12  C   UNL     1      46.666   3.724   7.318  0.00  0.00    +0.000 C 
ATOM     13  C   UNL     1      45.483   4.377   8.039  0.00  0.00    +0.000 C 
ENDBRANCH   6   8
BRANCH   1  14
ATOM     14  C   UNL     1      46.608   5.157  13.735  0.00  0.00    +0.000 C 
BRANCH  14  15
ATOM     15  N   UNL     1      46.431   4.184  14.799  0.00  0.00    +0.000 N 
ATOM     16  H   UNL     1      46.456   3.218  14.478  0.00  0.00    +0.000 HD
BRANCH  15  20
ATOM     17  C   UNL     1      48.439   4.487  18.354  0.00  0.00    +0.000 A 
ATOM     18  C   UNL     1      47.503   3.498  18.112  0.00  0.00    +0.000 A 
ATOM     19  N   UNL     1      46.863   3.371  16.918  0.00  0.00    +0.000 NA
ATOM     20  C   UNL     1      47.171   4.274  15.961  0.00  0.00    +0.000 A 
ATOM     21  C   UNL     1      48.110   5.271  16.229  0.00  0.00    +0.000 A 
ATOM     22  N   UNL     1      48.772   5.398  17.410  0.00  0.00    +0.000 NA
BRANCH  17  24
ATOM     23  N   UNL     1      49.581   4.718  20.674  0.00  0.00    +0.000 NA
ATOM     24  C   UNL     1      49.086   4.600  19.628  0.00  0.00    +0.000 C 
ENDBRANCH  17  24
ENDBRANCH  15  20
ENDBRANCH  14  15
ENDBRANCH   1  14
TORSDOF 5
ENDMDL
MODEL 6
REMARK VINA RESULT:    -6.349      2.128      7.023
REMARK INTER + INTRA:          -8.997
REMARK INTER:                  -8.286
REMARK INTRA:                  -0.712
REMARK UNBOUND:                -0.793
REMARK  Name = 
REMARK  5 active torsions:
REMARK  status: ('A' for Active; 'I' for Inactive)
REMARK    1  A    between atoms: C_2  and  C_3
REMARK    2  A    between atoms: C_6  and  N_7
REMARK    3  A    between atoms: N_7  and  C_8
REMARK    4  A    between atoms: C_8  and  C_9
REMARK    5  A    between atoms: C_14  and  N_15
REMARK                            x       y       z     vdW  Elec       q    Type
REMARK                         _______ _______ _______ _____ _____    ______ ____
ROOT
ATOM      1  C   UNL     1      44.942   5.208  11.278  0.00  0.00    +0.000 A 
ATOM      2  C   UNL     1      44.236   4.400  12.177  0.00  0.00    +0.000 A 
ATOM      3  C   UNL     1      43.906   3.101  11.825  0.00  0.00    +0.000 A 
ATOM      4  F   UNL     1      43.228   2.336  12.691  0.00  0.00    +0.000 F 
ATOM      5  C   UNL     1      44.279   2.574  10.595  0.00  0.00    +0.000 A 
ATOM      6  C   UNL     1      45.003   3.339   9.672  0.00  0.00    +0.000 A 
ATOM      7  C   UNL     1      45.299   4.669  10.026  0.00  0.00    +0.000 A 
ENDROOT
BRANCH   6   8
ATOM      8  N   UNL     1      45.488   2.799   8.495  0.00  0.00    +0.000 N 
ATOM      9  C   UNL     1      45.673   1.354   8.360  0.00  0.00    +0.000 C 
ATOM     10  C   UNL     1      47.025   1.113   7.691  0.00  0.00    +0.000 C 
ATOM     11  C   UNL     1      47.115   1.843   6.352  0.00  0.00    +0.000 C 
ATOM     12  C   UNL     1      46.780   3.329   6.497  0.00  0.00    +0.000 C 
ATOM     13  C   UNL     1      45.461   3.553   7.242  0.00  0.00    +0.000 C 
ENDBRANCH   6   8
BRANCH   1  14
ATOM     14  C   UNL     1      45.294   6.628  11.656  0.00  0.00    +0.000 C 
BRANCH  14  15
ATOM     15  N   UNL     1      46.698   6.863  11.368  0.00  0.00    +0.000 N 
ATOM     16  H   UNL     1      46.859   7.610  10.696  0.00  0.00    +0.000 HD
BRANCH  15  20
ATOM     17  C   UNL     1      49.554   7.172  14.287  0.00  0.00    +0.000 A 
ATOM     18  C   UNL     1      49.671   7.806  13.062  0.00  0.00    +0.000 A 
ATOM     19  N   UNL     1      48.706   7.737  12.106  0.00  0.00    +0.000 NA
ATOM     20  C   UNL     1      47.612   7.000  12.395  0.00  0.00    +0.000 A 
ATOM     21  C   UNL     1      47.517   6.359  13.631  0.00  0.00    +0.000 A 
ATOM     22  N   UNL     1      48.464   6.436  14.604  0.00  0.00    +0.000 NA
BRANCH  17  24
ATOM     23  N   UNL     1      51.457   7.357  16.043  0.00  0.00    +0.000 NA
ATOM     24  C   UNL     1      50.596   7.256  15.267  0.00  0.00    +0.000 C 
ENDBRANCH  17  24
ENDBRANCH  15  20
ENDBRANCH  14  15
ENDBRANCH   1  14
TORSDOF 5
ENDMDL
MODEL 7
REMARK VINA RESULT:    -6.284      4.325      7.511
REMARK INTER + INTRA:          -8.914
REMARK INTER:                  -8.174
REMARK INTRA:                  -0.740
REMARK UNBOUND:                -0.793
REMARK  Name = 
REMARK  5 active torsions:
REMARK  status: ('A' for Active; 'I' for Inactive)
REMARK    1  A    between atoms: C_2  and  C_3
REMARK    2  A    between atoms: C_6  and  N_7
REMARK    3  A    between atoms: N_7  and  C_8
REMARK    4  A    between atoms: C_8  and  C_9
REMARK    5  A    between atoms: C_14  and  N_15
REMARK                            x       y       z     vdW  Elec       q    Type
REMARK                         _______ _______ _______ _____ _____    ______ ____
ROOT
ATOM      1  C   UNL     1      48.056   6.700  14.253  0.00  0.00    +0.000 A 
ATOM      2  C   UNL     1      48.569   7.700  13.420  0.00  0.00    +0.000 A 
ATOM      3  C   UNL     1      48.152   7.781  12.101  0.00  0.00    +0.000 A 
ATOM      4  F   UNL     1      48.650   8.741  11.310  0.00  0.00    +0.000 F 
ATOM      5  C   UNL     1      47.214   6.893  11.589  0.00  0.00    +0.000 A 
ATOM      6  C   UNL     1      46.659   5.888  12.392  0.00  0.00    +0.000 A 
ATOM      7  C   UNL     1      47.119   5.793  13.719  0.00  0.00    +0.000 A 
ENDROOT
BRANCH   6   8
ATOM      8  N   UNL     1      45.638   5.071  11.939  0.00  0.00    +0.000 N 
ATOM      9  C   UNL     1      45.046   5.283  10.619  0.00  0.00    +0.000 C 
ATOM     10  C   UNL     1      43.528   5.173  10.762  0.00  0.00    +0.000 C 
ATOM     11  C   UNL     1      43.128   3.833  11.375  0.00  0.00    +0.000 C 
ATOM     12  C   UNL     1      43.869   3.571  12.688  0.00  0.00    +0.000 C 
ATOM     13  C   UNL     1      45.381   3.766  12.547  0.00  0.00    +0.000 C 
ENDBRANCH   6   8
BRANCH   1  14
ATOM     14  C   UNL     1      48.517   6.603  15.689  0.00  0.00    +0.000 C 
BRANCH  14  15
ATOM     15  N   UNL     1      47.944   5.414  16.295  0.00  0.00    +0.000 N 
ATOM     16  H   UNL     1      47.154   5.032  15.778  0.00  0.00    +0.000 HD
BRANCH  15  20
ATOM     17  C   UNL     1      50.496   2.379  17.315  0.00  0.00    +0.000 A 
ATOM     18  C   UNL     1      50.791   3.710  17.555  0.00  0.00    +0.000 A 
ATOM     19  N   UNL     1      49.928   4.717  17.252  0.00  0.00    +0.000 NA
ATOM     20  C   UNL     1      48.753   4.366  16.685  0.00  0.00    +0.000 A 
ATOM     21  C   UNL     1      48.479   3.019  16.441  0.00  0.00    +0.000 A 
ATOM     22  N   UNL     1      49.323   2.000  16.757  0.00  0.00    +0.000 NA
BRANCH  17  24
ATOM     23  N   UNL     1      52.209   0.526  17.926  0.00  0.00    +0.000 NA
ATOM     24  C   UNL     1      51.433   1.343  17.635  0.00  0.00    +0.000 C 
ENDBRANCH  17  24
ENDBRANCH  15  20
ENDBRANCH  14  15
ENDBRANCH   1  14
TORSDOF 5
ENDMDL
MODEL 8
REMARK VINA RESULT:    -5.817      4.881      7.894
REMARK INTER + INTRA:          -8.310
REMARK INTER:                  -7.671
REMARK INTRA:                  -0.639
REMARK UNBOUND:                -0.793
REMARK  Name = 
REMARK  5 active torsions:
REMARK  status: ('A' for Active; 'I' for Inactive)
REMARK    1  A    between atoms: C_2  and  C_3
REMARK    2  A    between atoms: C_6  and  N_7
REMARK    3  A    between atoms: N_7  and  C_8
REMARK    4  A    between atoms: C_8  and  C_9
REMARK    5  A    between atoms: C_14  and  N_15
REMARK                            x       y       z     vdW  Elec       q    Type
REMARK                         _______ _______ _______ _____ _____    ______ ____
ROOT
ATOM      1  C   UNL     1      47.342   4.826  15.062  0.00  0.00    +0.000 A 
ATOM      2  C   UNL     1      48.079   6.015  15.023  0.00  0.00    +0.000 A 
ATOM      3  C   UNL     1      48.046   6.811  13.889  0.00  0.00    +0.000 A 
ATOM      4  F   UNL     1      48.757   7.947  13.860  0.00  0.00    +0.000 F 
ATOM      5  C   UNL     1      47.277   6.459  12.787  0.00  0.00    +0.000 A 
ATOM      6  C   UNL     1      46.508   5.288  12.789  0.00  0.00    +0.000 A 
ATOM      7  C   UNL     1      46.580   4.469  13.932  0.00  0.00    +0.000 A 
ENDROOT
BRANCH   6   8
ATOM      8  N   UNL     1      45.644   4.979  11.754  0.00  0.00    +0.000 N 
ATOM      9  C   UNL     1      44.521   4.066  11.969  0.00  0.00    +0.000 C 
ATOM     10  C   UNL     1      44.463   3.104  10.784  0.00  0.00    +0.000 C 
ATOM     11  C   UNL     1      44.355   3.863   9.463  0.00  0.00    +0.000 C 
ATOM     12  C   UNL     1      45.461   4.912   9.324  0.00  0.00    +0.000 C 
ATOM     13  C   UNL     1      45.559   5.815  10.557  0.00  0.00    +0.000 C 
ENDBRANCH   6   8
BRANCH   1  14
ATOM     14  C   UNL     1      47.385   3.952  16.294  0.00  0.00    +0.000 C 
BRANCH  14  15
ATOM     15  N   UNL     1      48.404   4.453  17.198  0.00  0.00    +0.000 N 
ATOM     16  H   UNL     1      48.053   4.679  18.127  0.00  0.00    +0.000 HD
BRANCH  15  20
ATOM     17  C   UNL     1      51.863   2.330  17.740  0.00  0.00    +0.000 A 
ATOM     18  C   UNL     1      50.767   1.808  17.076  0.00  0.00    +0.000 A 
ATOM     19  N   UNL     1      49.631   2.525  16.860  0.00  0.00    +0.000 NA
ATOM     20  C   UNL     1      49.606   3.787  17.340  0.00  0.00    +0.000 A 
ATOM     21  C   UNL     1      50.717   4.292  18.018  0.00  0.00    +0.000 A 
ATOM     22  N   UNL     1      51.866   3.594  18.223  0.00  0.00    +0.000 NA
BRANCH  17  24
ATOM     23  N   UNL     1      53.973   0.878  18.164  0.00  0.00    +0.000 NA
ATOM     24  C   UNL     1      53.040   1.542  17.961  0.00  0.00    +0.000 C 
ENDBRANCH  17  24
ENDBRANCH  15  20
ENDBRANCH  14  15
ENDBRANCH   1  14
TORSDOF 5
ENDMDL
MODEL 9
REMARK VINA RESULT:    -5.718      4.771      8.290
REMARK INTER + INTRA:          -8.183
REMARK INTER:                  -7.480
REMARK INTRA:                  -0.703
REMARK UNBOUND:                -0.793
REMARK  Name = 
REMARK  5 active torsions:
REMARK  status: ('A' for Active; 'I' for Inactive)
REMARK    1  A    between atoms: C_2  and  C_3
REMARK    2  A    between atoms: C_6  and  N_7
REMARK    3  A    between atoms: N_7  and  C_8
REMARK    4  A    between atoms: C_8  and  C_9
REMARK    5  A    between atoms: C_14  and  N_15
REMARK                            x       y       z     vdW  Elec       q    Type
REMARK                         _______ _______ _______ _____ _____    ______ ____
ROOT
ATOM      1  C   UNL     1      44.758   9.364  11.476  0.00  0.00    +0.000 A 
ATOM      2  C   UNL     1      45.912   9.730  12.177  0.00  0.00    +0.000 A 
ATOM      3  C   UNL     1      46.660   8.761  12.828  0.00  0.00    +0.000 A 
ATOM      4  F   UNL     1      47.762   9.120  13.499  0.00  0.00    +0.000 F 
ATOM      5  C   UNL     1      46.294   7.421  12.783  0.00  0.00    +0.000 A 
ATOM      6  C   UNL     1      45.158   7.007  12.076  0.00  0.00    +0.000 A 
ATOM      7  C   UNL     1      44.386   8.006  11.451  0.00  0.00    +0.000 A 
ENDROOT
BRANCH   6   8
ATOM      8  N   UNL     1      44.842   5.670  11.917  0.00  0.00    +0.000 N 
ATOM      9  C   UNL     1      45.053   5.004  10.632  0.00  0.00    +0.000 C 
ATOM     10  C   UNL     1      43.818   4.153  10.336  0.00  0.00    +0.000 C 
ATOM     11  C   UNL     1      43.544   3.166  11.469  0.00  0.00    +0.000 C 
ATOM     12  C   UNL     1      43.468   3.873  12.824  0.00  0.00    +0.000 C 
ATOM     13  C   UNL     1      44.673   4.785  13.069  0.00  0.00    +0.000 C 
ENDBRANCH   6   8
BRANCH   1  14
ATOM     14  C   UNL     1      43.935  10.421  10.774  0.00  0.00    +0.000 C 
BRANCH  14  15
ATOM     15  N   UNL     1      43.195  11.183  11.764  0.00  0.00    +0.000 N 
ATOM     16  H   UNL     1      43.503  12.151  11.849  0.00  0.00    +0.000 HD
BRANCH  15  20
ATOM     17  C   UNL     1      39.110  11.049  12.003  0.00  0.00    +0.000 A 
ATOM     18  C   UNL     1      39.877  11.851  12.830  0.00  0.00    +0.000 A 
ATOM     19  N   UNL     1      41.231  11.927  12.727  0.00  0.00    +0.000 NA
ATOM     20  C   UNL     1      41.815  11.165  11.777  0.00  0.00    +0.000 A 
ATOM     21  C   UNL     1      41.025  10.354  10.959  0.00  0.00    +0.000 A 
ATOM     22  N   UNL     1      39.670  10.284  11.037  0.00  0.00    +0.000 NA
BRANCH  17  24
ATOM     23  N   UNL     1      36.526  10.929  12.221  0.00  0.00    +0.000 NA
ATOM     24  C   UNL     1      37.685  10.983  12.146  0.00  0.00    +0.000 C 
ENDBRANCH  17  24
ENDBRANCH  15  20
ENDBRANCH  14  15
ENDBRANCH   1  14
TORSDOF 5
ENDMDL
