MODEL 1
REMARK VINA RESULT:    -8.063      0.000      0.000
REMARK INTER + INTRA:         -10.853
REMARK INTER:                  -9.948
REMARK INTRA:                  -0.904
REMARK UNBOUND:                -0.904
REMARK  Name = 
REMARK  4 active torsions:
REMARK  status: ('A' for Active; 'I' for Inactive)
REMARK    1  A    between atoms: C_7  and  N_8
REMARK    2  A    between atoms: N_8  and  C_9
REMARK    3  A    between atoms: C_9  and  C_10
REMARK    4  A    between atoms: C_14  and  C_15
REMARK                            x       y       z     vdW  Elec       q    Type
REMARK                         _______ _______ _______ _____ _____    ______ ____
ROOT
ATOM      1  C   UNL     1      43.822   5.071  10.866  0.00  0.00    +0.000 A 
ATOM      2  C   UNL     1      43.157   4.093  11.593  0.00  0.00    +0.000 A 
ATOM      3  N   UNL     1      43.241   2.773  11.328  0.00  0.00    +0.000 NA
ATOM      4  C   UNL     1      44.033   2.409  10.287  0.00  0.00    +0.000 A 
ATOM      5  C   UNL     1      44.757   3.286   9.476  0.00  0.00    +0.000 A 
ATOM      6  C   UNL     1      44.615   4.647   9.788  0.00  0.00    +0.000 A 
ENDROOT
BRANCH   5   7
ATOM      7  C   UNL     1      45.632   2.814   8.380  0.00  0.00    +0.000 A 
ATOM      8  C   UNL     1      45.992   3.656   7.311  0.00  0.00    +0.000 A 
ATOM      9  C   UNL     1      46.850   3.223   6.293  0.00  0.00    +0.000 A 
ATOM     10  C   UNL     1      47.360   1.930   6.315  0.00  0.00    +0.000 A 
ATOM     11  C   UNL     1      47.013   1.070   7.351  0.00  0.00    +0.000 A 
ATOM     12  C   UNL     1      46.162   1.509   8.372  0.00  0.00    +0.000 A 
ENDBRANCH   5   7
BRANCH   1  13
ATOM     13  C   UNL     1      43.711   6.525  11.236  0.00  0.00    +0.000 C 
BRANCH  13  14
ATOM     14  N   UNL     1      44.279   6.755  12.558  0.00  0.00    +0.000 N 
ATOM     15  H   UNL     1      43.714   6.383  13.318  0.00  0.00    +0.000 HD
BRANCH  14  22
ATOM     16  F   UNL     1      45.483   4.544  14.042  0.00  0.00    +0.000 F 
ATOM     17  C   UNL     1      46.232   5.472  13.429  0.00  0.00    +0.000 A 
ATOM     18  C   UNL     1      47.611   5.349  13.485  0.00  0.00    +0.000 A 
ATOM     19  N   UNL     1      48.473   6.216  12.907  0.00  0.00    +0.000 NA
ATOM     20  C   UNL     1      47.913   7.245  12.239  0.00  0.00    +0.000 A 
ATOM     21  C   UNL     1      46.541   7.453  12.139  0.00  0.00    +0.000 A 
ATOM     22  C   UNL     1      45.656   6.563  12.764  0.00  0.00    +0.000 A 
ENDBRANCH  14  22
ENDBRANCH  13  14
ENDBRANCH   1  13
TORSDOF 4
ENDMDL
MODEL 2
REMARK VINA RESULT:    -7.211      2.698      3.624
REMARK INTER + INTRA:          -9.802
REMARK INTER:                  -9.309
REMARK INTRA:                  -0.492
REMARK UNBOUND:                -0.904
REMARK  Name = 
REMARK  4 active torsions:
REMARK  status: ('A' for Active; 'I' for Inactive)
REMARK    1  A    between atoms: C_7  and  N_8
REMARK    2  A    between atoms: N_8  and  C_9
REMARK    3  A    between atoms: C_9  and  C_10
REMARK    4  A    between atoms: C_14  and  C_15
REMARK                            x       y       z     vdW  Elec       q    Type
REMARK                         _______ _______ _______ _____ _____    ______ ____
ROOT
ATOM      1  C   UNL     1      44.486   5.409  10.920  0.00  0.00    +0.000 A 
ATOM      2  C   UNL     1      43.532   4.606  11.528  0.00  0.00    +0.000 A 
ATOM      3  N   UNL     1      43.269   3.337  11.153  0.00  0.00    +0.000 NA
ATOM      4  C   UNL     1      43.999   2.842  10.121  0.00  0.00    +0.000 A 
ATOM      5  C   UNL     1      44.988   3.539   9.421  0.00  0.00    +0.000 A 
ATOM      6  C   UNL     1      45.203   4.860   9.845  0.00  0.00    +0.000 A 
ENDROOT
BRANCH   5   7
ATOM      7  C   UNL     1      45.772   2.922   8.329  0.00  0.00    +0.000 A 
ATOM      8  C   UNL     1      46.171   1.573   8.380  0.00  0.00    +0.000 A 
ATOM      9  C   UNL     1      46.881   0.978   7.331  0.00  0.00    +0.000 A 
ATOM     10  C   UNL     1      47.221   1.724   6.208  0.00  0.00    +0.000 A 
ATOM     11  C   UNL     1      46.852   3.062   6.134  0.00  0.00    +0.000 A 
ATOM     12  C   UNL     1      46.134   3.652   7.180  0.00  0.00    +0.000 A 
ENDBRANCH   5   7
BRANCH   1  13
ATOM     13  C   UNL     1      44.753   6.807  11.409  0.00  0.00    +0.000 C 
BRANCH  13  14
ATOM     14  N   UNL     1      43.682   7.702  10.992  0.00  0.00    +0.000 N 
ATOM     15  H   UNL     1      42.755   7.394  11.276  0.00  0.00    +0.000 HD
BRANCH  14  22
ATOM     16  F   UNL     1      41.626   9.716  10.487  0.00  0.00    +0.000 F 
ATOM     17  C   UNL     1      42.848  10.051  10.927  0.00  0.00    +0.000 A 
ATOM     18  C   UNL     1      43.118  11.388  11.172  0.00  0.00    +0.000 A 
ATOM     19  N   UNL     1      44.307  11.852  11.618  0.00  0.00    +0.000 NA
ATOM     20  C   UNL     1      45.259  10.921  11.831  0.00  0.00    +0.000 A 
ATOM     21  C   UNL     1      45.080   9.559  11.603  0.00  0.00    +0.000 A 
ATOM     22  C   UNL     1      43.852   9.091  11.116  0.00  0.00    +0.000 A 
ENDBRANCH  14  22
ENDBRANCH  13  14
ENDBRANCH   1  13
TORSDOF 4
ENDMDL
MODEL 3
REMARK VINA RESULT:    -7.117      2.282      5.968
REMARK INTER + INTRA:          -9.686
REMARK INTER:                  -9.076
REMARK INTRA:                  -0.610
REMARK UNBOUND:                -0.904
REMARK  Name = 
REMARK  4 active torsions:
REMARK  status: ('A' for Active; 'I' for Inactive)
REMARK    1  A    between atoms: C_7  and  N_8
REMARK    2  A    between atoms: N_8  and  C_9
REMARK    3  A    between atoms: C_9  and  C_10
REMARK    4  A    between atoms: C_14  and  C_15
REMARK                            x       y       z     vdW  Elec       q    Type
REMARK                         _______ _______ _______ _____ _____    ______ ____
ROOT
ATOM      1  C   UNL     1      44.809   4.859  11.670  0.00  0.00    +0.000 A 
ATOM      2  C   UNL     1      45.141   4.056  12.751  0.00  0.00    +0.000 A 
ATOM      3  N   UNL     1      46.167   4.309  13.589  0.00  0.00    +0.000 NA
ATOM      4  C   UNL     1      46.899   5.425  13.337  0.00  0.00    +0.000 A 
ATOM      5  C   UNL     1      46.675   6.319  12.287  0.00  0.00    +0.000 A 
ATOM      6  C   UNL     1      45.604   5.993  11.439  0.00  0.00    +0.000 A 
ENDROOT
BRANCH   5   7
ATOM      7  C   UNL     1      47.490   7.539  12.095  0.00  0.00    +0.000 A 
ATOM      8  C   UNL     1      48.870   7.467  11.827  0.00  0.00    +0.000 A 
ATOM      9  C   UNL     1      49.636   8.619  11.609  0.00  0.00    +0.000 A 
ATOM     10  C   UNL     1      49.039   9.874  11.667  0.00  0.00    +0.000 A 
ATOM     11  C   UNL     1      47.680   9.977  11.943  0.00  0.00    +0.000 A 
ATOM     12  C   UNL     1      46.916   8.823  12.151  0.00  0.00    +0.000 A 
ENDBRANCH   5   7
BRANCH   1  13
ATOM     13  C   UNL     1      43.629   4.537  10.794  0.00  0.00    +0.000 C 
BRANCH  13  14
ATOM     14  N   UNL     1      44.004   4.623   9.389  0.00  0.00    +0.000 N 
ATOM     15  H   UNL     1      44.142   5.575   9.058  0.00  0.00    +0.000 HD
BRANCH  14  22
ATOM     16  F   UNL     1      44.079   1.745   9.893  0.00  0.00    +0.000 F 
ATOM     17  C   UNL     1      44.954   2.339   9.068  0.00  0.00    +0.000 A 
ATOM     18  C   UNL     1      45.893   1.551   8.422  0.00  0.00    +0.000 A 
ATOM     19  N   UNL     1      46.824   2.029   7.566  0.00  0.00    +0.000 NA
ATOM     20  C   UNL     1      46.798   3.360   7.352  0.00  0.00    +0.000 A 
ATOM     21  C   UNL     1      45.898   4.229   7.963  0.00  0.00    +0.000 A 
ATOM     22  C   UNL     1      44.953   3.727   8.869  0.00  0.00    +0.000 A 
ENDBRANCH  14  22
ENDBRANCH  13  14
ENDBRANCH   1  13
TORSDOF 4
ENDMDL
MODEL 4
REMARK VINA RESULT:    -6.923      2.391      3.172
REMARK INTER + INTRA:          -9.447
REMARK INTER:                  -9.007
REMARK INTRA:                  -0.440
REMARK UNBOUND:                -0.904
REMARK  Name = 
REMARK  4 active torsions:
REMARK  status: ('A' for Active; 'I' for Inactive)
REMARK    1  A    between atoms: C_7  and  N_8
REMARK    2  A    between atoms: N_8  and  C_9
REMARK    3  A    between atoms: C_9  and  C_10
REMARK    4  A    between atoms: C_14  and  C_15
REMARK                            x       y       z     vdW  Elec       q    Type
REMARK                         _______ _______ _______ _____ _____    ______ ____
ROOT
ATOM      1  C   UNL     1      44.841   5.327  10.681  0.00  0.00    +0.000 A 
ATOM      2  C   UNL     1      43.834   4.582  11.278  0.00  0.00    +0.000 A 
ATOM      3  N   UNL     1      43.477   3.344  10.878  0.00  0.00    +0.000 NA
ATOM      4  C   UNL     1      44.163   2.821   9.830  0.00  0.00    +0.000 A 
ATOM      5  C   UNL     1      45.196   3.459   9.139  0.00  0.00    +0.000 A 
ATOM      6  C   UNL     1      45.510   4.751   9.590  0.00  0.00    +0.000 A 
ENDROOT
BRANCH   5   7
ATOM      7  C   UNL     1      45.928   2.811   8.028  0.00  0.00    +0.000 A 
ATOM      8  C   UNL     1      46.233   3.506   6.843  0.00  0.00    +0.000 A 
ATOM      9  C   UNL     1      46.957   2.906   5.806  0.00  0.00    +0.000 A 
ATOM     10  C   UNL     1      47.383   1.588   5.926  0.00  0.00    +0.000 A 
ATOM     11  C   UNL     1      47.086   0.871   7.079  0.00  0.00    +0.000 A 
ATOM     12  C   UNL     1      46.370   1.477   8.118  0.00  0.00    +0.000 A 
ENDBRANCH   5   7
BRANCH   1  13
ATOM     13  C   UNL     1      45.212   6.690  11.199  0.00  0.00    +0.000 C 
BRANCH  13  14
ATOM     14  N   UNL     1      44.024   7.526  11.317  0.00  0.00    +0.000 N 
ATOM     15  H   UNL     1      43.386   7.231  12.052  0.00  0.00    +0.000 HD
BRANCH  14  22
ATOM     16  F   UNL     1      45.709   9.180  13.040  0.00  0.00    +0.000 F 
ATOM     17  C   UNL     1      45.001   9.707  12.030  0.00  0.00    +0.000 A 
ATOM     18  C   UNL     1      45.104  11.068  11.792  0.00  0.00    +0.000 A 
ATOM     19  N   UNL     1      44.445  11.717  10.806  0.00  0.00    +0.000 NA
ATOM     20  C   UNL     1      43.654  10.953  10.026  0.00  0.00    +0.000 A 
ATOM     21  C   UNL     1      43.482   9.583  10.198  0.00  0.00    +0.000 A 
ATOM     22  C   UNL     1      44.150   8.923  11.239  0.00  0.00    +0.000 A 
ENDBRANCH  14  22
ENDBRANCH  13  14
ENDBRANCH   1  13
TORSDOF 4
ENDMDL
MODEL 5
REMARK VINA RESULT:    -6.876      2.531      6.418
REMARK INTER + INTRA:          -9.389
REMARK INTER:                  -9.156
REMARK INTRA:                  -0.232
REMARK UNBOUND:                -0.904
REMARK  Name = 
REMARK  4 active torsions:
REMARK  status: ('A' for Active; 'I' for Inactive)
REMARK    1  A    between atoms: C_7  and  N_8
REMARK    2  A    between atoms: N_8  and  C_9
REMARK    3  A    between atoms: C_9  and  C_10
REMARK    4  A    between atoms: C_14  and  C_15
REMARK                            x       y       z     vdW  Elec       q    Type
REMARK                         _______ _______ _______ _____ _____    ______ ____
ROOT
ATOM      1  C   UNL     1      44.900   4.009  10.909  0.00  0.00    +0.000 A 
ATOM      2  C   UNL     1      44.998   3.330  12.114  0.00  0.00    +0.000 A 
ATOM      3  N   UNL     1      45.481   3.879  13.248  0.00  0.00    +0.000 NA
ATOM      4  C   UNL     1      45.883   5.173  13.176  0.00  0.00    +0.000 A 
ATOM      5  C   UNL     1      45.839   5.972  12.031  0.00  0.00    +0.000 A 
ATOM      6  C   UNL     1      45.344   5.340  10.878  0.00  0.00    +0.000 A 
ENDROOT
BRANCH   5   7
ATOM      7  C   UNL     1      46.259   7.391  12.035  0.00  0.00    +0.000 A 
ATOM      8  C   UNL     1      45.317   8.437  12.040  0.00  0.00    +0.000 A 
ATOM      9  C   UNL     1      45.712   9.779  12.082  0.00  0.00    +0.000 A 
ATOM     10  C   UNL     1      47.063  10.108  12.107  0.00  0.00    +0.000 A 
ATOM     11  C   UNL     1      48.017   9.097  12.089  0.00  0.00    +0.000 A 
ATOM     12  C   UNL     1      47.619   7.755  12.057  0.00  0.00    +0.000 A 
ENDBRANCH   5   7
BRANCH   1  13
ATOM     13  C   UNL     1      44.320   3.347   9.688  0.00  0.00    +0.000 C 
BRANCH  13  14
ATOM     14  N   UNL     1      45.008   2.091   9.419  0.00  0.00    +0.000 N 
ATOM     15  H   UNL     1      44.409   1.272   9.485  0.00  0.00    +0.000 HD
BRANCH  14  22
ATOM     16  F   UNL     1      46.140   4.370   7.981  0.00  0.00    +0.000 F 
ATOM     17  C   UNL     1      46.498   3.108   7.697  0.00  0.00    +0.000 A 
ATOM     18  C   UNL     1      47.451   2.898   6.714  0.00  0.00    +0.000 A 
ATOM     19  N   UNL     1      47.897   1.678   6.338  0.00  0.00    +0.000 NA
ATOM     20  C   UNL     1      47.357   0.628   6.991  0.00  0.00    +0.000 A 
ATOM     21  C   UNL     1      46.388   0.745   7.984  0.00  0.00    +0.000 A 
ATOM     22  C   UNL     1      45.914   2.013   8.348  0.00  0.00    +0.000 A 
ENDBRANCH  14  22
ENDBRANCH  13  14
ENDBRANCH   1  13
TORSDOF 4
ENDMDL
MODEL 6
REMARK VINA RESULT:    -6.829      1.398      2.082
REMARK INTER + INTRA:          -9.330
REMARK INTER:                  -8.855
REMARK INTRA:                  -0.476
REMARK UNBOUND:                -0.904
REMARK  Name = 
REMARK  4 active torsions:
REMARK  status: ('A' for Active; 'I' for Inactive)
REMARK    1  A    between atoms: C_7  and  N_8
REMARK    2  A    between atoms: N_8  and  C_9
REMARK    3  A    between atoms: C_9  and  C_10
REMARK    4  A    between atoms: C_14  and  C_15
REMARK                            x       y       z     vdW  Elec       q    Type
REMARK                         _______ _______ _______ _____ _____    ______ ____
ROOT
ATOM      1  C   UNL     1      44.568   3.440  11.052  0.00  0.00    +0.000 A 
ATOM      2  C   UNL     1      43.683   4.422  10.628  0.00  0.00    +0.000 A 
ATOM      3  N   UNL     1      43.563   4.822   9.345  0.00  0.00    +0.000 NA
ATOM      4  C   UNL     1      44.364   4.207   8.437  0.00  0.00    +0.000 A 
ATOM      5  C   UNL     1      45.295   3.206   8.726  0.00  0.00    +0.000 A 
ATOM      6  C   UNL     1      45.387   2.845  10.080  0.00  0.00    +0.000 A 
ENDROOT
BRANCH   5   7
ATOM      7  C   UNL     1      46.108   2.551   7.677  0.00  0.00    +0.000 A 
ATOM      8  C   UNL     1      46.542   1.218   7.808  0.00  0.00    +0.000 A 
ATOM      9  C   UNL     1      47.280   0.585   6.800  0.00  0.00    +0.000 A 
ATOM     10  C   UNL     1      47.612   1.277   5.641  0.00  0.00    +0.000 A 
ATOM     11  C   UNL     1      47.208   2.599   5.488  0.00  0.00    +0.000 A 
ATOM     12  C   UNL     1      46.463   3.226   6.494  0.00  0.00    +0.000 A 
ENDBRANCH   5   7
BRANCH   1  13
ATOM     13  C   UNL     1      44.628   3.018  12.495  0.00  0.00    +0.000 C 
BRANCH  13  14
ATOM     14  N   UNL     1      44.490   4.178  13.367  0.00  0.00    +0.000 N 
ATOM     15  H   UNL     1      44.125   3.956  14.290  0.00  0.00    +0.000 HD
BRANCH  14  22
ATOM     16  F   UNL     1      47.282   3.664  14.064  0.00  0.00    +0.000 F 
ATOM     17  C   UNL     1      46.861   4.882  13.687  0.00  0.00    +0.000 A 
ATOM     18  C   UNL     1      47.792   5.905  13.602  0.00  0.00    +0.000 A 
ATOM     19  N   UNL     1      47.495   7.171  13.233  0.00  0.00    +0.000 NA
ATOM     20  C   UNL     1      46.202   7.408  12.932  0.00  0.00    +0.000 A 
ATOM     21  C   UNL     1      45.199   6.445  12.998  0.00  0.00    +0.000 A 
ATOM     22  C   UNL     1      45.512   5.141  13.406  0.00  0.00    +0.000 A 
ENDBRANCH  14  22
ENDBRANCH  13  14
ENDBRANCH   1  13
TORSDOF 4
ENDMDL
MODEL 7
REMARK VINA RESULT:    -6.634      2.445      6.135
REMARK INTER + INTRA:          -9.090
REMARK INTER:                  -8.295
REMARK INTRA:                  -0.795
REMARK UNBOUND:                -0.904
REMARK  Name = 
REMARK  4 active torsions:
REMARK  status: ('A' for Active; 'I' for Inactive)
REMARK    1  A    between atoms: C_7  and  N_8
REMARK    2  A    between atoms: N_8  and  C_9
REMARK    3  A    between atoms: C_9  and  C_10
REMARK    4  A    between atoms: C_14  and  C_15
REMARK                            x       y       z     vdW  Elec       q    Type
REMARK                         _______ _______ _______ _____ _____    ______ ____
ROOT
ATOM      1  C   UNL     1      45.094   5.177  11.740  0.00  0.00    +0.000 A 
ATOM      2  C   UNL     1      45.280   4.492  12.931  0.00  0.00    +0.000 A 
ATOM      3  N   UNL     1      46.285   4.744  13.795  0.00  0.00    +0.000 NA
ATOM      4  C   UNL     1      47.147   5.736  13.453  0.00  0.00    +0.000 A 
ATOM      5  C   UNL     1      47.078   6.504  12.288  0.00  0.00    +0.000 A 
ATOM      6  C   UNL     1      46.021   6.182  11.421  0.00  0.00    +0.000 A 
ENDROOT
BRANCH   5   7
ATOM      7  C   UNL     1      48.032   7.597  11.999  0.00  0.00    +0.000 A 
ATOM      8  C   UNL     1      47.605   8.932  11.872  0.00  0.00    +0.000 A 
ATOM      9  C   UNL     1      48.512   9.972  11.635  0.00  0.00    +0.000 A 
ATOM     10  C   UNL     1      49.869   9.698  11.507  0.00  0.00    +0.000 A 
ATOM     11  C   UNL     1      50.319   8.388  11.615  0.00  0.00    +0.000 A 
ATOM     12  C   UNL     1      49.412   7.351  11.861  0.00  0.00    +0.000 A 
ENDBRANCH   5   7
BRANCH   1  13
ATOM     13  C   UNL     1      43.931   4.867  10.837  0.00  0.00    +0.000 C 
BRANCH  13  14
ATOM     14  N   UNL     1      44.350   4.904   9.442  0.00  0.00    +0.000 N 
ATOM     15  H   UNL     1      44.795   5.778   9.169  0.00  0.00    +0.000 HD
BRANCH  14  22
ATOM     16  F   UNL     1      46.723   4.959   7.735  0.00  0.00    +0.000 F 
ATOM     17  C   UNL     1      46.145   3.805   8.104  0.00  0.00    +0.000 A 
ATOM     18  C   UNL     1      46.718   2.616   7.681  0.00  0.00    +0.000 A 
ATOM     19  N   UNL     1      46.234   1.391   7.987  0.00  0.00    +0.000 NA
ATOM     20  C   UNL     1      45.128   1.371   8.758  0.00  0.00    +0.000 A 
ATOM     21  C   UNL     1      44.481   2.514   9.220  0.00  0.00    +0.000 A 
ATOM     22  C   UNL     1      44.976   3.780   8.876  0.00  0.00    +0.000 A 
ENDBRANCH  14  22
ENDBRANCH  13  14
ENDBRANCH   1  13
TORSDOF 4
ENDMDL
MODEL 8
REMARK VINA RESULT:    -6.467      2.525      4.530
REMARK INTER + INTRA:          -8.883
REMARK INTER:                  -8.059
REMARK INTRA:                  -0.824
REMARK UNBOUND:                -0.904
REMARK  Name = 
REMARK  4 active torsions:
REMARK  status: ('A' for Active; 'I' for Inactive)
REMARK    1  A    between atoms: C_7  and  N_8
REMARK    2  A    between atoms: N_8  and  C_9
REMARK    3  A    between atoms: C_9  and  C_10
REMARK    4  A    between atoms: C_14  and  C_15
REMARK                            x       y       z     vdW  Elec       q    Type
REMARK                         _______ _______ _______ _____ _____    ______ ____
ROOT
ATOM      1  C   UNL     1      47.345   7.016  13.249  0.00  0.00    +0.000 A 
ATOM      2  C   UNL     1      46.579   8.173  13.260  0.00  0.00    +0.000 A 
ATOM      3  N   UNL     1      45.494   8.363  12.480  0.00  0.00    +0.000 NA
ATOM      4  C   UNL     1      45.155   7.344  11.649  0.00  0.00    +0.000 A 
ATOM      5  C   UNL     1      45.836   6.129  11.537  0.00  0.00    +0.000 A 
ATOM      6  C   UNL     1      46.966   5.998  12.361  0.00  0.00    +0.000 A 
ENDROOT
BRANCH   5   7
ATOM      7  C   UNL     1      45.385   5.046  10.636  0.00  0.00    +0.000 A 
ATOM      8  C   UNL     1      45.621   5.097   9.249  0.00  0.00    +0.000 A 
ATOM      9  C   UNL     1      45.228   4.056   8.400  0.00  0.00    +0.000 A 
ATOM     10  C   UNL     1      44.576   2.942   8.918  0.00  0.00    +0.000 A 
ATOM     11  C   UNL     1      44.318   2.869  10.282  0.00  0.00    +0.000 A 
ATOM     12  C   UNL     1      44.720   3.907  11.130  0.00  0.00    +0.000 A 
ENDBRANCH   5   7
BRANCH   1  13
ATOM     13  C   UNL     1      48.524   6.856  14.170  0.00  0.00    +0.000 C 
BRANCH  13  14
ATOM     14  N   UNL     1      48.073   6.704  15.546  0.00  0.00    +0.000 N 
ATOM     15  H   UNL     1      47.159   7.111  15.727  0.00  0.00    +0.000 HD
BRANCH  14  22
ATOM     16  F   UNL     1      46.453   4.304  15.150  0.00  0.00    +0.000 F 
ATOM     17  C   UNL     1      47.514   4.311  15.972  0.00  0.00    +0.000 A 
ATOM     18  C   UNL     1      47.855   3.134  16.619  0.00  0.00    +0.000 A 
ATOM     19  N   UNL     1      48.900   3.011  17.467  0.00  0.00    +0.000 NA
ATOM     20  C   UNL     1      49.633   4.127  17.663  0.00  0.00    +0.000 A 
ATOM     21  C   UNL     1      49.359   5.352  17.063  0.00  0.00    +0.000 A 
ATOM     22  C   UNL     1      48.258   5.476  16.205  0.00  0.00    +0.000 A 
ENDBRANCH  14  22
ENDBRANCH  13  14
ENDBRANCH   1  13
TORSDOF 4
ENDMDL
MODEL 9
REMARK VINA RESULT:    -6.394      2.505      6.624
REMARK INTER + INTRA:          -8.794
REMARK INTER:                  -8.280
REMARK INTRA:                  -0.514
REMARK UNBOUND:                -0.904
REMARK  Name = 
REMARK  4 active torsions:
REMARK  status: ('A' for Active; 'I' for Inactive)
REMARK    1  A    between atoms: C_7  and  N_8
REMARK    2  A    between atoms: N_8  and  C_9
REMARK    3  A    between atoms: C_9  and  C_10
REMARK    4  A    between atoms: C_14  and  C_15
REMARK                            x       y       z     vdW  Elec       q    Type
REMARK                         _______ _______ _______ _____ _____    ______ ____
ROOT
ATOM      1  C   UNL     1      45.460   5.590  12.056  0.00  0.00    +0.000 A 
ATOM      2  C   UNL     1      46.268   6.512  11.407  0.00  0.00    +0.000 A 
ATOM      3  N   UNL     1      47.439   6.964  11.901  0.00  0.00    +0.000 NA
ATOM      4  C   UNL     1      47.826   6.466  13.104  0.00  0.00    +0.000 A 
ATOM      5  C   UNL     1      47.112   5.535  13.862  0.00  0.00    +0.000 A 
ATOM      6  C   UNL     1      45.893   5.116  13.305  0.00  0.00    +0.000 A 
ENDROOT
BRANCH   5   7
ATOM      7  C   UNL     1      47.615   5.006  15.149  0.00  0.00    +0.000 A 
ATOM      8  C   UNL     1      48.425   5.783  15.998  0.00  0.00    +0.000 A 
ATOM      9  C   UNL     1      48.871   5.297  17.233  0.00  0.00    +0.000 A 
ATOM     10  C   UNL     1      48.526   4.014  17.643  0.00  0.00    +0.000 A 
ATOM     11  C   UNL     1      47.738   3.218  16.820  0.00  0.00    +0.000 A 
ATOM     12  C   UNL     1      47.286   3.710  15.590  0.00  0.00    +0.000 A 
ENDBRANCH   5   7
BRANCH   1  13
ATOM     13  C   UNL     1      44.180   5.102  11.433  0.00  0.00    +0.000 C 
BRANCH  13  14
ATOM     14  N   UNL     1      44.289   5.114   9.980  0.00  0.00    +0.000 N 
ATOM     15  H   UNL     1      44.512   6.028   9.592  0.00  0.00    +0.000 HD
BRANCH  14  22
ATOM     16  F   UNL     1      43.877   2.260  10.458  0.00  0.00    +0.000 F 
ATOM     17  C   UNL     1      44.727   2.702   9.519  0.00  0.00    +0.000 A 
ATOM     18  C   UNL     1      45.397   1.769   8.744  0.00  0.00    +0.000 A 
ATOM     19  N   UNL     1      46.275   2.087   7.766  0.00  0.00    +0.000 NA
ATOM     20  C   UNL     1      46.477   3.404   7.562  0.00  0.00    +0.000 A 
ATOM     21  C   UNL     1      45.856   4.409   8.298  0.00  0.00    +0.000 A 
ATOM     22  C   UNL     1      44.966   4.070   9.327  0.00  0.00    +0.000 A 
ENDBRANCH  14  22
ENDBRANCH  13  14
ENDBRANCH   1  13
TORSDOF 4
ENDMDL
