MODEL 1
REMARK VINA RESULT:    -7.332      0.000      0.000
REMARK INTER + INTRA:          -9.229
REMARK INTER:                  -8.618
REMARK INTRA:                  -0.611
REMARK UNBOUND:                -0.611
REMARK  Name = 
REMARK  3 active torsions:
REMARK  status: ('A' for Active; 'I' for Inactive)
REMARK    1  A    between atoms: C_3  and  C_4
REMARK    2  A    between atoms: C_6  and  C_7
REMARK    3  A    between atoms: C_7  and  N_8
REMARK                            x       y       z     vdW  Elec       q    Type
REMARK                         _______ _______ _______ _____ _____    ______ ____
ROOT
ATOM      1  C   UNL     1      46.429   6.405  12.244  0.00  0.00    +0.000 A 
ATOM      2  C   UNL     1      45.358   6.062  11.418  0.00  0.00    +0.000 A 
ATOM      3  C   UNL     1      44.721   4.827  11.578  0.00  0.00    +0.000 A 
ATOM      4  C   UNL     1      45.162   3.980  12.595  0.00  0.00    +0.000 A 
ATOM      5  C   UNL     1      46.236   4.385  13.368  0.00  0.00    +0.000 A 
ATOM      6  N   UNL     1      46.881   5.562  13.207  0.00  0.00    +0.000 NA
ENDROOT
BRANCH   1   9
ATOM      7  C   UNL     1      47.237  10.090  12.117  0.00  0.00    +0.000 A 
ATOM      8  C   UNL     1      46.520   8.916  12.309  0.00  0.00    +0.000 A 
ATOM      9  C   UNL     1      47.153   7.682  12.104  0.00  0.00    +0.000 A 
ATOM     10  C   UNL     1      48.509   7.710  11.745  0.00  0.00    +0.000 A 
ATOM     11  C   UNL     1      49.141   8.934  11.578  0.00  0.00    +0.000 A 
ATOM     12  N   UNL     1      48.532  10.124  11.748  0.00  0.00    +0.000 NA
ENDBRANCH   1   9
BRANCH   3  13
ATOM     13  C   UNL     1      43.582   4.431  10.673  0.00  0.00    +0.000 C 
BRANCH  13  14
ATOM     14  N   UNL     1      43.977   4.587   9.290  0.00  0.00    +0.000 N 
ATOM     15  C   UNL     1      44.907   3.720   8.740  0.00  0.00    +0.000 A 
ATOM     16  C   UNL     1      44.983   2.382   9.071  0.00  0.00    +0.000 A 
ATOM     17  C   UNL     1      45.912   1.624   8.395  0.00  0.00    +0.000 A 
ATOM     18  N   UNL     1      46.716   2.117   7.442  0.00  0.00    +0.000 NA
ATOM     19  C   UNL     1      46.555   3.421   7.181  0.00  0.00    +0.000 A 
ATOM     20  N   UNL     1      45.697   4.252   7.793  0.00  0.00    +0.000 NA
ATOM     21  H   UNL     1      44.217   5.532   9.002  0.00  0.00    +0.000 HD
ENDBRANCH  13  14
ENDBRANCH   3  13
TORSDOF 3
ENDMDL
MODEL 2
REMARK VINA RESULT:    -7.253      1.701      2.405
REMARK INTER + INTRA:          -9.136
REMARK INTER:                  -8.526
REMARK INTRA:                  -0.610
REMARK UNBOUND:                -0.611
REMARK  Name = 
REMARK  3 active torsions:
REMARK  status: ('A' for Active; 'I' for Inactive)
REMARK    1  A    between atoms: C_3  and  C_4
REMARK    2  A    between atoms: C_6  and  C_7
REMARK    3  A    between atoms: C_7  and  N_8
REMARK                            x       y       z     vdW  Elec       q    Type
REMARK                         _______ _______ _______ _____ _____    ______ ____
ROOT
ATOM      1  C   UNL     1      45.470   5.546  12.321  0.00  0.00    +0.000 A 
ATOM      2  C   UNL     1      45.358   4.787  11.155  0.00  0.00    +0.000 A 
ATOM      3  C   UNL     1      44.158   4.129  10.864  0.00  0.00    +0.000 A 
ATOM      4  C   UNL     1      43.087   4.282  11.744  0.00  0.00    +0.000 A 
ATOM      5  C   UNL     1      43.277   5.044  12.884  0.00  0.00    +0.000 A 
ATOM      6  N   UNL     1      44.438   5.662  13.195  0.00  0.00    +0.000 NA
ENDROOT
BRANCH   1   9
ATOM      7  C   UNL     1      48.535   7.747  12.207  0.00  0.00    +0.000 A 
ATOM      8  C   UNL     1      47.335   7.157  11.829  0.00  0.00    +0.000 A 
ATOM      9  C   UNL     1      46.717   6.241  12.690  0.00  0.00    +0.000 A 
ATOM     10  C   UNL     1      47.343   5.999  13.923  0.00  0.00    +0.000 A 
ATOM     11  C   UNL     1      48.540   6.638  14.212  0.00  0.00    +0.000 A 
ATOM     12  N   UNL     1      49.153   7.499  13.378  0.00  0.00    +0.000 NA
ENDBRANCH   1   9
BRANCH   3  13
ATOM     13  C   UNL     1      44.032   3.281   9.624  0.00  0.00    +0.000 C 
BRANCH  13  14
ATOM     14  N   UNL     1      45.070   2.273   9.612  0.00  0.00    +0.000 N 
ATOM     15  C   UNL     1      45.848   2.102   8.478  0.00  0.00    +0.000 A 
ATOM     16  C   UNL     1      46.239   3.146   7.664  0.00  0.00    +0.000 A 
ATOM     17  C   UNL     1      47.069   2.839   6.610  0.00  0.00    +0.000 A 
ATOM     18  N   UNL     1      47.512   1.599   6.355  0.00  0.00    +0.000 NA
ATOM     19  C   UNL     1      47.090   0.659   7.211  0.00  0.00    +0.000 A 
ATOM     20  N   UNL     1      46.268   0.847   8.255  0.00  0.00    +0.000 NA
ATOM     21  H   UNL     1      44.798   1.354   9.949  0.00  0.00    +0.000 HD
ENDBRANCH  13  14
ENDBRANCH   3  13
TORSDOF 3
ENDMDL
MODEL 3
REMARK VINA RESULT:    -6.941      1.932      6.521
REMARK INTER + INTRA:          -8.769
REMARK INTER:                  -8.105
REMARK INTRA:                  -0.664
REMARK UNBOUND:                -0.611
REMARK  Name = 
REMARK  3 active torsions:
REMARK  status: ('A' for Active; 'I' for Inactive)
REMARK    1  A    between atoms: C_3  and  C_4
REMARK    2  A    between atoms: C_6  and  C_7
REMARK    3  A    between atoms: C_7  and  N_8
REMARK                            x       y       z     vdW  Elec       q    Type
REMARK                         _______ _______ _______ _____ _____    ______ ____
ROOT
ATOM      1  C   UNL     1      45.401   3.040   8.827  0.00  0.00    +0.000 A 
ATOM      2  C   UNL     1      45.442   4.379   9.219  0.00  0.00    +0.000 A 
ATOM      3  C   UNL     1      44.681   4.811  10.309  0.00  0.00    +0.000 A 
ATOM      4  C   UNL     1      43.919   3.868  11.001  0.00  0.00    +0.000 A 
ATOM      5  C   UNL     1      43.922   2.560  10.548  0.00  0.00    +0.000 A 
ATOM      6  N   UNL     1      44.629   2.134   9.478  0.00  0.00    +0.000 NA
ENDROOT
BRANCH   1   9
ATOM      7  C   UNL     1      47.072   2.778   5.452  0.00  0.00    +0.000 A 
ATOM      8  C   UNL     1      46.388   3.321   6.533  0.00  0.00    +0.000 A 
ATOM      9  C   UNL     1      46.164   2.534   7.671  0.00  0.00    +0.000 A 
ATOM     10  C   UNL     1      46.686   1.232   7.661  0.00  0.00    +0.000 A 
ATOM     11  C   UNL     1      47.357   0.779   6.534  0.00  0.00    +0.000 A 
ATOM     12  N   UNL     1      47.553   1.521   5.427  0.00  0.00    +0.000 NA
ENDBRANCH   1   9
BRANCH   3  13
ATOM     13  C   UNL     1      44.692   6.260  10.725  0.00  0.00    +0.000 C 
BRANCH  13  14
ATOM     14  N   UNL     1      44.984   6.362  12.138  0.00  0.00    +0.000 N 
ATOM     15  C   UNL     1      46.300   6.361  12.569  0.00  0.00    +0.000 A 
ATOM     16  C   UNL     1      47.329   6.953  11.863  0.00  0.00    +0.000 A 
ATOM     17  C   UNL     1      48.576   6.935  12.445  0.00  0.00    +0.000 A 
ATOM     18  N   UNL     1      48.824   6.391  13.644  0.00  0.00    +0.000 NA
ATOM     19  C   UNL     1      47.760   5.857  14.257  0.00  0.00    +0.000 A 
ATOM     20  N   UNL     1      46.509   5.804  13.773  0.00  0.00    +0.000 NA
ATOM     21  H   UNL     1      44.452   5.746  12.746  0.00  0.00    +0.000 HD
ENDBRANCH  13  14
ENDBRANCH   3  13
TORSDOF 3
ENDMDL
MODEL 4
REMARK VINA RESULT:    -6.804      2.143      3.827
REMARK INTER + INTRA:          -8.608
REMARK INTER:                  -8.004
REMARK INTRA:                  -0.604
REMARK UNBOUND:                -0.611
REMARK  Name = 
REMARK  3 active torsions:
REMARK  status: ('A' for Active; 'I' for Inactive)
REMARK    1  A    between atoms: C_3  and  C_4
REMARK    2  A    between atoms: C_6  and  C_7
REMARK    3  A    between atoms: C_7  and  N_8
REMARK                            x       y       z     vdW  Elec       q    Type
REMARK                         _______ _______ _______ _____ _____    ______ ____
ROOT
ATOM      1  C   UNL     1      47.018   5.435  13.815  0.00  0.00    +0.000 A 
ATOM      2  C   UNL     1      45.952   4.833  13.143  0.00  0.00    +0.000 A 
ATOM      3  C   UNL     1      45.491   5.374  11.939  0.00  0.00    +0.000 A 
ATOM      4  C   UNL     1      46.141   6.496  11.424  0.00  0.00    +0.000 A 
ATOM      5  C   UNL     1      47.185   7.043  12.151  0.00  0.00    +0.000 A 
ATOM      6  N   UNL     1      47.623   6.549  13.330  0.00  0.00    +0.000 NA
ENDROOT
BRANCH   1   9
ATOM      7  C   UNL     1      48.816   5.161  17.122  0.00  0.00    +0.000 A 
ATOM      8  C   UNL     1      48.321   5.710  15.946  0.00  0.00    +0.000 A 
ATOM      9  C   UNL     1      47.529   4.922  15.099  0.00  0.00    +0.000 A 
ATOM     10  C   UNL     1      47.252   3.612  15.517  0.00  0.00    +0.000 A 
ATOM     11  C   UNL     1      47.791   3.153  16.710  0.00  0.00    +0.000 A 
ATOM     12  N   UNL     1      48.574   3.896  17.517  0.00  0.00    +0.000 NA
ENDBRANCH   1   9
BRANCH   3  13
ATOM     13  C   UNL     1      44.322   4.752  11.219  0.00  0.00    +0.000 C 
BRANCH  13  14
ATOM     14  N   UNL     1      44.480   4.922   9.791  0.00  0.00    +0.000 N 
ATOM     15  C   UNL     1      45.161   3.964   9.057  0.00  0.00    +0.000 A 
ATOM     16  C   UNL     1      45.103   2.613   9.337  0.00  0.00    +0.000 A 
ATOM     17  C   UNL     1      45.776   1.770   8.482  0.00  0.00    +0.000 A 
ATOM     18  N   UNL     1      46.457   2.195   7.409  0.00  0.00    +0.000 NA
ATOM     19  C   UNL     1      46.440   3.520   7.213  0.00  0.00    +0.000 A 
ATOM     20  N   UNL     1      45.835   4.429   7.993  0.00  0.00    +0.000 NA
ATOM     21  H   UNL     1      44.797   5.838   9.485  0.00  0.00    +0.000 HD
ENDBRANCH  13  14
ENDBRANCH   3  13
TORSDOF 3
ENDMDL
MODEL 5
REMARK VINA RESULT:    -6.256      2.648      4.674
REMARK INTER + INTRA:          -7.964
REMARK INTER:                  -7.293
REMARK INTRA:                  -0.671
REMARK UNBOUND:                -0.611
REMARK  Name = 
REMARK  3 active torsions:
REMARK  status: ('A' for Active; 'I' for Inactive)
REMARK    1  A    between atoms: C_3  and  C_4
REMARK    2  A    between atoms: C_6  and  C_7
REMARK    3  A    between atoms: C_7  and  N_8
REMARK                            x       y       z     vdW  Elec       q    Type
REMARK                         _______ _______ _______ _____ _____    ______ ____
ROOT
ATOM      1  C   UNL     1      47.876   6.109  14.218  0.00  0.00    +0.000 A 
ATOM      2  C   UNL     1      46.657   6.360  13.586  0.00  0.00    +0.000 A 
ATOM      3  C   UNL     1      46.632   7.030  12.359  0.00  0.00    +0.000 A 
ATOM      4  C   UNL     1      47.847   7.402  11.782  0.00  0.00    +0.000 A 
ATOM      5  C   UNL     1      49.015   7.128  12.473  0.00  0.00    +0.000 A 
ATOM      6  N   UNL     1      49.053   6.507  13.674  0.00  0.00    +0.000 NA
ENDROOT
BRANCH   1   9
ATOM      7  C   UNL     1      48.856   5.201  17.749  0.00  0.00    +0.000 A 
ATOM      8  C   UNL     1      48.778   5.908  16.556  0.00  0.00    +0.000 A 
ATOM      9  C   UNL     1      47.959   5.429  15.524  0.00  0.00    +0.000 A 
ATOM     10  C   UNL     1      47.227   4.260  15.779  0.00  0.00    +0.000 A 
ATOM     11  C   UNL     1      47.370   3.624  17.004  0.00  0.00    +0.000 A 
ATOM     12  N   UNL     1      48.175   4.065  17.991  0.00  0.00    +0.000 NA
ENDBRANCH   1   9
BRANCH   3  13
ATOM     13  C   UNL     1      45.322   7.334  11.679  0.00  0.00    +0.000 C 
BRANCH  13  14
ATOM     14  N   UNL     1      45.150   6.466  10.534  0.00  0.00    +0.000 N 
ATOM     15  C   UNL     1      44.628   5.194  10.710  0.00  0.00    +0.000 A 
ATOM     16  C   UNL     1      43.649   4.899  11.637  0.00  0.00    +0.000 A 
ATOM     17  C   UNL     1      43.175   3.607  11.654  0.00  0.00    +0.000 A 
ATOM     18  N   UNL     1      43.605   2.651  10.819  0.00  0.00    +0.000 NA
ATOM     19  C   UNL     1      44.543   3.039   9.946  0.00  0.00    +0.000 A 
ATOM     20  N   UNL     1      45.087   4.263   9.858  0.00  0.00    +0.000 NA
ATOM     21  H   UNL     1      45.947   6.396   9.908  0.00  0.00    +0.000 HD
ENDBRANCH  13  14
ENDBRANCH   3  13
TORSDOF 3
ENDMDL
MODEL 6
REMARK VINA RESULT:    -6.252      2.398      2.941
REMARK INTER + INTRA:          -7.959
REMARK INTER:                  -7.429
REMARK INTRA:                  -0.529
REMARK UNBOUND:                -0.611
REMARK  Name = 
REMARK  3 active torsions:
REMARK  status: ('A' for Active; 'I' for Inactive)
REMARK    1  A    between atoms: C_3  and  C_4
REMARK    2  A    between atoms: C_6  and  C_7
REMARK    3  A    between atoms: C_7  and  N_8
REMARK                            x       y       z     vdW  Elec       q    Type
REMARK                         _______ _______ _______ _____ _____    ______ ____
ROOT
ATOM      1  C   UNL     1      44.756   8.430  11.695  0.00  0.00    +0.000 A 
ATOM      2  C   UNL     1      44.221   7.287  11.097  0.00  0.00    +0.000 A 
ATOM      3  C   UNL     1      44.708   6.024  11.446  0.00  0.00    +0.000 A 
ATOM      4  C   UNL     1      45.705   5.943  12.418  0.00  0.00    +0.000 A 
ATOM      5  C   UNL     1      46.193   7.119  12.959  0.00  0.00    +0.000 A 
ATOM      6  N   UNL     1      45.753   8.349  12.612  0.00  0.00    +0.000 NA
ENDROOT
BRANCH   1   9
ATOM      7  C   UNL     1      42.772  11.304  10.263  0.00  0.00    +0.000 A 
ATOM      8  C   UNL     1      43.131  10.006  10.603  0.00  0.00    +0.000 A 
ATOM      9  C   UNL     1      44.298   9.788  11.348  0.00  0.00    +0.000 A 
ATOM     10  C   UNL     1      45.027  10.920  11.742  0.00  0.00    +0.000 A 
ATOM     11  C   UNL     1      44.587  12.178  11.355  0.00  0.00    +0.000 A 
ATOM     12  N   UNL     1      43.480  12.393  10.617  0.00  0.00    +0.000 NA
ENDBRANCH   1   9
BRANCH   3  13
ATOM     13  C   UNL     1      44.160   4.784  10.787  0.00  0.00    +0.000 C 
BRANCH  13  14
ATOM     14  N   UNL     1      44.387   4.846   9.359  0.00  0.00    +0.000 N 
ATOM     15  C   UNL     1      45.161   3.876   8.744  0.00  0.00    +0.000 A 
ATOM     16  C   UNL     1      45.166   2.552   9.134  0.00  0.00    +0.000 A 
ATOM     17  C   UNL     1      45.932   1.685   8.388  0.00  0.00    +0.000 A 
ATOM     18  N   UNL     1      46.646   2.062   7.319  0.00  0.00    +0.000 NA
ATOM     19  C   UNL     1      46.565   3.363   7.011  0.00  0.00    +0.000 A 
ATOM     20  N   UNL     1      45.866   4.294   7.680  0.00  0.00    +0.000 NA
ATOM     21  H   UNL     1      44.667   5.752   8.994  0.00  0.00    +0.000 HD
ENDBRANCH  13  14
ENDBRANCH   3  13
TORSDOF 3
ENDMDL
MODEL 7
REMARK VINA RESULT:    -6.236      3.335      6.815
REMARK INTER + INTRA:          -7.941
REMARK INTER:                  -7.337
REMARK INTRA:                  -0.603
REMARK UNBOUND:                -0.611
REMARK  Name = 
REMARK  3 active torsions:
REMARK  status: ('A' for Active; 'I' for Inactive)
REMARK    1  A    between atoms: C_3  and  C_4
REMARK    2  A    between atoms: C_6  and  C_7
REMARK    3  A    between atoms: C_7  and  N_8
REMARK                            x       y       z     vdW  Elec       q    Type
REMARK                         _______ _______ _______ _____ _____    ______ ____
ROOT
ATOM      1  C   UNL     1      45.907   6.219  12.077  0.00  0.00    +0.000 A 
ATOM      2  C   UNL     1      45.460   7.528  11.886  0.00  0.00    +0.000 A 
ATOM      3  C   UNL     1      46.285   8.604  12.229  0.00  0.00    +0.000 A 
ATOM      4  C   UNL     1      47.559   8.330  12.728  0.00  0.00    +0.000 A 
ATOM      5  C   UNL     1      47.928   7.007  12.898  0.00  0.00    +0.000 A 
ATOM      6  N   UNL     1      47.132   5.957  12.599  0.00  0.00    +0.000 NA
ENDROOT
BRANCH   1   9
ATOM      7  C   UNL     1      44.076   3.512  10.189  0.00  0.00    +0.000 A 
ATOM      8  C   UNL     1      44.914   4.591  10.440  0.00  0.00    +0.000 A 
ATOM      9  C   UNL     1      45.071   5.048  11.756  0.00  0.00    +0.000 A 
ATOM     10  C   UNL     1      44.387   4.349  12.762  0.00  0.00    +0.000 A 
ATOM     11  C   UNL     1      43.573   3.281  12.413  0.00  0.00    +0.000 A 
ATOM     12  N   UNL     1      43.397   2.853  11.147  0.00  0.00    +0.000 NA
ENDBRANCH   1   9
BRANCH   3  13
ATOM     13  C   UNL     1      45.804  10.022  12.056  0.00  0.00    +0.000 C 
BRANCH  13  14
ATOM     14  N   UNL     1      44.398  10.107  12.387  0.00  0.00    +0.000 N 
ATOM     15  C   UNL     1      43.504  10.613  11.457  0.00  0.00    +0.000 A 
ATOM     16  C   UNL     1      43.625  10.404  10.098  0.00  0.00    +0.000 A 
ATOM     17  C   UNL     1      42.626  10.909   9.298  0.00  0.00    +0.000 A 
ATOM     18  N   UNL     1      41.559  11.567   9.773  0.00  0.00    +0.000 NA
ATOM     19  C   UNL     1      41.524  11.704  11.105  0.00  0.00    +0.000 A 
ATOM     20  N   UNL     1      42.452  11.270  11.972  0.00  0.00    +0.000 NA
ATOM     21  H   UNL     1      44.179  10.516  13.291  0.00  0.00    +0.000 HD
ENDBRANCH  13  14
ENDBRANCH   3  13
TORSDOF 3
ENDMDL
MODEL 8
REMARK VINA RESULT:    -6.136      1.907      2.530
REMARK INTER + INTRA:          -7.823
REMARK INTER:                  -7.340
REMARK INTRA:                  -0.483
REMARK UNBOUND:                -0.611
REMARK  Name = 
REMARK  3 active torsions:
REMARK  status: ('A' for Active; 'I' for Inactive)
REMARK    1  A    between atoms: C_3  and  C_4
REMARK    2  A    between atoms: C_6  and  C_7
REMARK    3  A    between atoms: C_7  and  N_8
REMARK                            x       y       z     vdW  Elec       q    Type
REMARK                         _______ _______ _______ _____ _____    ______ ____
ROOT
ATOM      1  C   UNL     1      47.005   7.458  12.710  0.00  0.00    +0.000 A 
ATOM      2  C   UNL     1      46.502   6.298  12.118  0.00  0.00    +0.000 A 
ATOM      3  C   UNL     1      45.263   6.326  11.470  0.00  0.00    +0.000 A 
ATOM      4  C   UNL     1      44.576   7.539  11.406  0.00  0.00    +0.000 A 
ATOM      5  C   UNL     1      45.134   8.645  12.023  0.00  0.00    +0.000 A 
ATOM      6  N   UNL     1      46.316   8.626  12.679  0.00  0.00    +0.000 NA
ENDROOT
BRANCH   1   9
ATOM      7  C   UNL     1      49.674   6.967  15.334  0.00  0.00    +0.000 A 
ATOM      8  C   UNL     1      48.451   6.874  14.681  0.00  0.00    +0.000 A 
ATOM      9  C   UNL     1      48.293   7.481  13.427  0.00  0.00    +0.000 A 
ATOM     10  C   UNL     1      49.414   8.127  12.883  0.00  0.00    +0.000 A 
ATOM     11  C   UNL     1      50.594   8.165  13.611  0.00  0.00    +0.000 A 
ATOM     12  N   UNL     1      50.745   7.607  14.828  0.00  0.00    +0.000 NA
ENDBRANCH   1   9
BRANCH   3  13
ATOM     13  C   UNL     1      44.694   5.074  10.853  0.00  0.00    +0.000 C 
BRANCH  13  14
ATOM     14  N   UNL     1      44.872   5.111   9.417  0.00  0.00    +0.000 N 
ATOM     15  C   UNL     1      45.480   4.044   8.774  0.00  0.00    +0.000 A 
ATOM     16  C   UNL     1      45.314   2.731   9.165  0.00  0.00    +0.000 A 
ATOM     17  C   UNL     1      45.924   1.768   8.392  0.00  0.00    +0.000 A 
ATOM     18  N   UNL     1      46.642   2.047   7.295  0.00  0.00    +0.000 NA
ATOM     19  C   UNL     1      46.731   3.348   6.990  0.00  0.00    +0.000 A 
ATOM     20  N   UNL     1      46.195   4.364   7.683  0.00  0.00    +0.000 NA
ATOM     21  H   UNL     1      45.262   5.970   9.041  0.00  0.00    +0.000 HD
ENDBRANCH  13  14
ENDBRANCH   3  13
TORSDOF 3
ENDMDL
MODEL 9
REMARK VINA RESULT:    -5.940      3.154      7.143
REMARK INTER + INTRA:          -7.593
REMARK INTER:                  -7.002
REMARK INTRA:                  -0.591
REMARK UNBOUND:                -0.611
REMARK  Name = 
REMARK  3 active torsions:
REMARK  status: ('A' for Active; 'I' for Inactive)
REMARK    1  A    between atoms: C_3  and  C_4
REMARK    2  A    between atoms: C_6  and  C_7
REMARK    3  A    between atoms: C_7  and  N_8
REMARK                            x       y       z     vdW  Elec       q    Type
REMARK                         _______ _______ _______ _____ _____    ______ ____
ROOT
ATOM      1  C   UNL     1      46.632   6.116  12.311  0.00  0.00    +0.000 A 
ATOM      2  C   UNL     1      47.169   6.088  13.599  0.00  0.00    +0.000 A 
ATOM      3  C   UNL     1      48.306   6.846  13.897  0.00  0.00    +0.000 A 
ATOM      4  C   UNL     1      48.853   7.644  12.891  0.00  0.00    +0.000 A 
ATOM      5  C   UNL     1      48.270   7.613  11.637  0.00  0.00    +0.000 A 
ATOM      6  N   UNL     1      47.190   6.862  11.325  0.00  0.00    +0.000 NA
ENDROOT
BRANCH   1   9
ATOM      7  C   UNL     1      43.906   4.446  10.303  0.00  0.00    +0.000 A 
ATOM      8  C   UNL     1      45.055   5.169  10.598  0.00  0.00    +0.000 A 
ATOM      9  C   UNL     1      45.450   5.318  11.934  0.00  0.00    +0.000 A 
ATOM     10  C   UNL     1      44.664   4.683  12.908  0.00  0.00    +0.000 A 
ATOM     11  C   UNL     1      43.534   3.981  12.515  0.00  0.00    +0.000 A 
ATOM     12  N   UNL     1      43.134   3.856  11.235  0.00  0.00    +0.000 NA
ENDBRANCH   1   9
BRANCH   3  13
ATOM     13  C   UNL     1      48.915   6.802  15.275  0.00  0.00    +0.000 C 
BRANCH  13  14
ATOM     14  N   UNL     1      47.980   6.209  16.206  0.00  0.00    +0.000 N 
ATOM     15  C   UNL     1      48.280   4.994  16.799  0.00  0.00    +0.000 A 
ATOM     16  C   UNL     1      49.559   4.625  17.165  0.00  0.00    +0.000 A 
ATOM     17  C   UNL     1      49.701   3.416  17.807  0.00  0.00    +0.000 A 
ATOM     18  N   UNL     1      48.671   2.608  18.098  0.00  0.00    +0.000 NA
ATOM     19  C   UNL     1      47.469   3.061  17.718  0.00  0.00    +0.000 A 
ATOM     20  N   UNL     1      47.223   4.211  17.070  0.00  0.00    +0.000 NA
ATOM     21  H   UNL     1      47.010   6.181  15.903  0.00  0.00    +0.000 HD
ENDBRANCH  13  14
ENDBRANCH   3  13
TORSDOF 3
ENDMDL
