MODEL 1
REMARK VINA RESULT:    -5.948      0.000      0.000
REMARK INTER + INTRA:          -8.805
REMARK INTER:                  -8.383
REMARK INTRA:                  -0.422
REMARK UNBOUND:                -0.422
REMARK  Name = 
REMARK  8 active torsions:
REMARK  status: ('A' for Active; 'I' for Inactive)
REMARK    1  A    between atoms: N_1  and  C_2
REMARK    2  A    between atoms: C_2  and  C_3
REMARK    3  A    between atoms: C_7  and  C_8
REMARK    4  A    between atoms: C_9  and  N_10
REMARK    5  A    between atoms: C_14  and  C_15
REMARK    6  A    between atoms: C_15  and  C_16
REMARK    7  A    between atoms: C_16  and  C_17
REMARK    8  A    between atoms: C_17  and  O_18
REMARK                            x       y       z     vdW  Elec       q    Type
REMARK                         _______ _______ _______ _____ _____    ______ ____
ROOT
ATOM      1  N   UNL     1      45.712   5.672  12.855  0.00  0.00    +0.000 N 
ATOM      2  C   UNL     1      45.480   5.002  11.646  0.00  0.00    +0.000 A 
ATOM      3  C   UNL     1      45.219   3.633  11.621  0.00  0.00    +0.000 A 
ATOM      4  C   UNL     1      45.092   2.966  10.404  0.00  0.00    +0.000 A 
ATOM      5  C   UNL     1      45.209   3.684   9.221  0.00  0.00    +0.000 A 
ATOM      6  C   UNL     1      45.403   5.057   9.335  0.00  0.00    +0.000 A 
ATOM      7  N   UNL     1      45.533   5.726  10.510  0.00  0.00    +0.000 NA
ATOM      8  H   UNL     1      45.828   6.673  12.729  0.00  0.00    +0.000 HD
ENDROOT
BRANCH   1  10
ATOM      9  C   UNL     1      47.359   5.428  14.669  0.00  0.00    +0.000 C 
ATOM     10  C   UNL     1      46.254   5.106  13.983  0.00  0.00    +0.000 C 
BRANCH   9  15
ATOM     11  C   UNL     1      49.111   4.574  17.917  0.00  0.00    +0.000 A 
ATOM     12  C   UNL     1      48.406   3.430  18.313  0.00  0.00    +0.000 A 
ATOM     13  C   UNL     1      47.410   2.897  17.500  0.00  0.00    +0.000 A 
ATOM     14  C   UNL     1      47.091   3.520  16.295  0.00  0.00    +0.000 A 
ATOM     15  C   UNL     1      47.741   4.700  15.895  0.00  0.00    +0.000 A 
ATOM     16  C   UNL     1      48.772   5.199  16.702  0.00  0.00    +0.000 A 
BRANCH  11  17
ATOM     17  C   UNL     1      50.178   5.156  18.813  0.00  0.00    +0.000 C 
BRANCH  17  18
ATOM     18  N   UNL     1      50.352   4.372  20.032  0.00  0.00    +0.000 NA
ATOM     19  H   UNL     1      51.291   3.983  20.044  0.00  0.00    +0.000 HD
ATOM     20  H   UNL     1      49.710   3.580  20.004  0.00  0.00    +0.000 HD
ENDBRANCH  17  18
ENDBRANCH  11  17
ENDBRANCH   9  15
ENDBRANCH   1  10
BRANCH   5  21
ATOM     21  C   UNL     1      45.124   2.989   7.890  0.00  0.00    +0.000 C 
BRANCH  21  22
ATOM     22  C   UNL     1      46.325   3.239   6.976  0.00  0.00    +0.000 C 
BRANCH  22  23
ATOM     23  C   UNL     1      47.440   2.213   7.139  0.00  0.00    +0.000 C 
BRANCH  23  24
ATOM     24  O   UNL     1      48.562   2.599   6.353  0.00  0.00    +0.000 OA
ATOM     25  H   UNL     1      48.379   3.479   5.983  0.00  0.00    +0.000 HD
ENDBRANCH  23  24
ENDBRANCH  22  23
ENDBRANCH  21  22
ENDBRANCH   5  21
TORSDOF 8
ENDMDL
MODEL 2
REMARK VINA RESULT:    -5.907      5.436      7.385
REMARK INTER + INTRA:          -8.746
REMARK INTER:                  -8.389
REMARK INTRA:                  -0.358
REMARK UNBOUND:                -0.422
REMARK  Name = 
REMARK  8 active torsions:
REMARK  status: ('A' for Active; 'I' for Inactive)
REMARK    1  A    between atoms: N_1  and  C_2
REMARK    2  A    between atoms: C_2  and  C_3
REMARK    3  A    between atoms: C_7  and  C_8
REMARK    4  A    between atoms: C_9  and  N_10
REMARK    5  A    between atoms: C_14  and  C_15
REMARK    6  A    between atoms: C_15  and  C_16
REMARK    7  A    between atoms: C_16  and  C_17
REMARK    8  A    between atoms: C_17  and  O_18
REMARK                            x       y       z     vdW  Elec       q    Type
REMARK                         _______ _______ _______ _____ _____    ______ ____
ROOT
ATOM      1  N   UNL     1      44.001   5.447  11.354  0.00  0.00    +0.000 N 
ATOM      2  C   UNL     1      44.595   4.646  10.368  0.00  0.00    +0.000 A 
ATOM      3  C   UNL     1      45.507   5.181   9.460  0.00  0.00    +0.000 A 
ATOM      4  C   UNL     1      46.008   4.394   8.424  0.00  0.00    +0.000 A 
ATOM      5  C   UNL     1      45.604   3.070   8.322  0.00  0.00    +0.000 A 
ATOM      6  C   UNL     1      44.743   2.596   9.307  0.00  0.00    +0.000 A 
ATOM      7  N   UNL     1      44.240   3.347  10.321  0.00  0.00    +0.000 NA
ATOM      8  H   UNL     1      43.406   4.915  11.981  0.00  0.00    +0.000 HD
ENDROOT
BRANCH   1  10
ATOM      9  C   UNL     1      44.578   7.838  11.443  0.00  0.00    +0.000 C 
ATOM     10  C   UNL     1      43.763   6.795  11.241  0.00  0.00    +0.000 C 
BRANCH   9  15
ATOM     11  C   UNL     1      42.348  10.762  10.532  0.00  0.00    +0.000 A 
ATOM     12  C   UNL     1      43.147  11.845  10.922  0.00  0.00    +0.000 A 
ATOM     13  C   UNL     1      44.430  11.633  11.419  0.00  0.00    +0.000 A 
ATOM     14  C   UNL     1      44.916  10.334  11.554  0.00  0.00    +0.000 A 
ATOM     15  C   UNL     1      44.121   9.225  11.224  0.00  0.00    +0.000 A 
ATOM     16  C   UNL     1      42.848   9.454  10.683  0.00  0.00    +0.000 A 
BRANCH  11  17
ATOM     17  C   UNL     1      40.951  10.998  10.011  0.00  0.00    +0.000 C 
BRANCH  17  18
ATOM     18  N   UNL     1      39.969  10.152  10.683  0.00  0.00    +0.000 NA
ATOM     19  H   UNL     1      39.161  10.717  10.933  0.00  0.00    +0.000 HD
ATOM     20  H   UNL     1      40.371   9.819  11.559  0.00  0.00    +0.000 HD
ENDBRANCH  17  18
ENDBRANCH  11  17
ENDBRANCH   9  15
ENDBRANCH   1  10
BRANCH   5  21
ATOM     21  C   UNL     1      46.088   2.205   7.190  0.00  0.00    +0.000 C 
BRANCH  21  22
ATOM     22  C   UNL     1      46.723   2.983   6.036  0.00  0.00    +0.000 C 
BRANCH  22  23
ATOM     23  C   UNL     1      47.267   2.091   4.925  0.00  0.00    +0.000 C 
BRANCH  23  24
ATOM     24  O   UNL     1      48.509   1.528   5.332  0.00  0.00    +0.000 OA
ATOM     25  H   UNL     1      48.623   0.684   4.864  0.00  0.00    +0.000 HD
ENDBRANCH  23  24
ENDBRANCH  22  23
ENDBRANCH  21  22
ENDBRANCH   5  21
TORSDOF 8
ENDMDL
MODEL 3
REMARK VINA RESULT:    -5.874      2.344      3.561
REMARK INTER + INTRA:          -8.700
REMARK INTER:                  -8.295
REMARK INTRA:                  -0.405
REMARK UNBOUND:                -0.422
REMARK  Name = 
REMARK  8 active torsions:
REMARK  status: ('A' for Active; 'I' for Inactive)
REMARK    1  A    between atoms: N_1  and  C_2
REMARK    2  A    between atoms: C_2  and  C_3
REMARK    3  A    between atoms: C_7  and  C_8
REMARK    4  A    between atoms: C_9  and  N_10
REMARK    5  A    between atoms: C_14  and  C_15
REMARK    6  A    between atoms: C_15  and  C_16
REMARK    7  A    between atoms: C_16  and  C_17
REMARK    8  A    between atoms: C_17  and  O_18
REMARK                            x       y       z     vdW  Elec       q    Type
REMARK                         _______ _______ _______ _____ _____    ______ ____
ROOT
ATOM      1  N   UNL     1      47.325   3.624  15.233  0.00  0.00    +0.000 N 
ATOM      2  C   UNL     1      46.708   4.059  14.052  0.00  0.00    +0.000 A 
ATOM      3  C   UNL     1      46.697   5.408  13.700  0.00  0.00    +0.000 A 
ATOM      4  C   UNL     1      45.991   5.834  12.577  0.00  0.00    +0.000 A 
ATOM      5  C   UNL     1      45.318   4.897  11.803  0.00  0.00    +0.000 A 
ATOM      6  C   UNL     1      45.434   3.564  12.186  0.00  0.00    +0.000 A 
ATOM      7  N   UNL     1      46.113   3.129  13.279  0.00  0.00    +0.000 NA
ATOM      8  H   UNL     1      47.309   2.613  15.331  0.00  0.00    +0.000 HD
ENDROOT
BRANCH   1  10
ATOM      9  C   UNL     1      48.469   5.157  16.783  0.00  0.00    +0.000 C 
ATOM     10  C   UNL     1      47.462   4.372  16.377  0.00  0.00    +0.000 C 
BRANCH   9  15
ATOM     11  C   UNL     1      48.344   5.906  20.494  0.00  0.00    +0.000 A 
ATOM     12  C   UNL     1      48.389   7.307  20.490  0.00  0.00    +0.000 A 
ATOM     13  C   UNL     1      48.395   8.010  19.289  0.00  0.00    +0.000 A 
ATOM     14  C   UNL     1      48.382   7.317  18.079  0.00  0.00    +0.000 A 
ATOM     15  C   UNL     1      48.391   5.913  18.049  0.00  0.00    +0.000 A 
ATOM     16  C   UNL     1      48.340   5.219  19.266  0.00  0.00    +0.000 A 
BRANCH  11  17
ATOM     17  C   UNL     1      48.355   5.151  21.801  0.00  0.00    +0.000 C 
BRANCH  17  18
ATOM     18  N   UNL     1      47.004   4.866  22.276  0.00  0.00    +0.000 NA
ATOM     19  H   UNL     1      46.556   5.740  22.542  0.00  0.00    +0.000 HD
ATOM     20  H   UNL     1      47.069   4.304  23.124  0.00  0.00    +0.000 HD
ENDBRANCH  17  18
ENDBRANCH  11  17
ENDBRANCH   9  15
ENDBRANCH   1  10
BRANCH   5  21
ATOM     21  C   UNL     1      44.508   5.327  10.611  0.00  0.00    +0.000 C 
BRANCH  21  22
ATOM     22  C   UNL     1      44.082   4.177   9.697  0.00  0.00    +0.000 C 
BRANCH  22  23
ATOM     23  C   UNL     1      45.021   3.957   8.516  0.00  0.00    +0.000 C 
BRANCH  23  24
ATOM     24  O   UNL     1      45.802   5.127   8.304  0.00  0.00    +0.000 OA
ATOM     25  H   UNL     1      45.686   5.401   7.379  0.00  0.00    +0.000 HD
ENDBRANCH  23  24
ENDBRANCH  22  23
ENDBRANCH  21  22
ENDBRANCH   5  21
TORSDOF 8
ENDMDL
MODEL 4
REMARK VINA RESULT:    -5.869      2.514      3.680
REMARK INTER + INTRA:          -8.693
REMARK INTER:                  -8.227
REMARK INTRA:                  -0.465
REMARK UNBOUND:                -0.422
REMARK  Name = 
REMARK  8 active torsions:
REMARK  status: ('A' for Active; 'I' for Inactive)
REMARK    1  A    between atoms: N_1  and  C_2
REMARK    2  A    between atoms: C_2  and  C_3
REMARK    3  A    between atoms: C_7  and  C_8
REMARK    4  A    between atoms: C_9  and  N_10
REMARK    5  A    between atoms: C_14  and  C_15
REMARK    6  A    between atoms: C_15  and  C_16
REMARK    7  A    between atoms: C_16  and  C_17
REMARK    8  A    between atoms: C_17  and  O_18
REMARK                            x       y       z     vdW  Elec       q    Type
REMARK                         _______ _______ _______ _____ _____    ______ ____
ROOT
ATOM      1  N   UNL     1      47.380   3.439  15.232  0.00  0.00    +0.000 N 
ATOM      2  C   UNL     1      46.790   3.954  14.069  0.00  0.00    +0.000 A 
ATOM      3  C   UNL     1      46.890   5.307  13.748  0.00  0.00    +0.000 A 
ATOM      4  C   UNL     1      46.211   5.818  12.644  0.00  0.00    +0.000 A 
ATOM      5  C   UNL     1      45.452   4.961  11.858  0.00  0.00    +0.000 A 
ATOM      6  C   UNL     1      45.458   3.614  12.208  0.00  0.00    +0.000 A 
ATOM      7  N   UNL     1      46.110   3.097  13.282  0.00  0.00    +0.000 NA
ATOM      8  H   UNL     1      47.279   2.431  15.307  0.00  0.00    +0.000 HD
ENDROOT
BRANCH   1  10
ATOM      9  C   UNL     1      47.909   3.718  17.620  0.00  0.00    +0.000 C 
ATOM     10  C   UNL     1      47.593   4.145  16.390  0.00  0.00    +0.000 C 
BRANCH   9  15
ATOM     11  C   UNL     1      47.929   6.934  19.620  0.00  0.00    +0.000 A 
ATOM     12  C   UNL     1      48.408   6.482  20.857  0.00  0.00    +0.000 A 
ATOM     13  C   UNL     1      48.786   5.153  21.025  0.00  0.00    +0.000 A 
ATOM     14  C   UNL     1      48.662   4.257  19.964  0.00  0.00    +0.000 A 
ATOM     15  C   UNL     1      48.135   4.666  18.728  0.00  0.00    +0.000 A 
ATOM     16  C   UNL     1      47.801   6.017  18.560  0.00  0.00    +0.000 A 
BRANCH  11  17
ATOM     17  C   UNL     1      47.506   8.373  19.451  0.00  0.00    +0.000 C 
BRANCH  17  18
ATOM     18  N   UNL     1      47.523   8.784  18.049  0.00  0.00    +0.000 NA
ATOM     19  H   UNL     1      48.406   8.499  17.632  0.00  0.00    +0.000 HD
ATOM     20  H   UNL     1      47.499   9.803  18.008  0.00  0.00    +0.000 HD
ENDBRANCH  17  18
ENDBRANCH  11  17
ENDBRANCH   9  15
ENDBRANCH   1  10
BRANCH   5  21
ATOM     21  C   UNL     1      44.669   5.486  10.686  0.00  0.00    +0.000 C 
BRANCH  21  22
ATOM     22  C   UNL     1      44.024   4.399   9.826  0.00  0.00    +0.000 C 
BRANCH  22  23
ATOM     23  C   UNL     1      44.823   4.058   8.573  0.00  0.00    +0.000 C 
BRANCH  23  24
ATOM     24  O   UNL     1      45.740   5.110   8.293  0.00  0.00    +0.000 OA
ATOM     25  H   UNL     1      46.412   4.766   7.680  0.00  0.00    +0.000 HD
ENDBRANCH  23  24
ENDBRANCH  22  23
ENDBRANCH  21  22
ENDBRANCH   5  21
TORSDOF 8
ENDMDL
MODEL 5
REMARK VINA RESULT:    -5.843      3.230      4.274
REMARK INTER + INTRA:          -8.657
REMARK INTER:                  -8.215
REMARK INTRA:                  -0.442
REMARK UNBOUND:                -0.422
REMARK  Name = 
REMARK  8 active torsions:
REMARK  status: ('A' for Active; 'I' for Inactive)
REMARK    1  A    between atoms: N_1  and  C_2
REMARK    2  A    between atoms: C_2  and  C_3
REMARK    3  A    between atoms: C_7  and  C_8
REMARK    4  A    between atoms: C_9  and  N_10
REMARK    5  A    between atoms: C_14  and  C_15
REMARK    6  A    between atoms: C_15  and  C_16
REMARK    7  A    between atoms: C_16  and  C_17
REMARK    8  A    between atoms: C_17  and  O_18
REMARK                            x       y       z     vdW  Elec       q    Type
REMARK                         _______ _______ _______ _____ _____    ______ ____
ROOT
ATOM      1  N   UNL     1      47.537   3.282  15.150  0.00  0.00    +0.000 N 
ATOM      2  C   UNL     1      46.909   3.864  14.040  0.00  0.00    +0.000 A 
ATOM      3  C   UNL     1      47.097   5.210  13.730  0.00  0.00    +0.000 A 
ATOM      4  C   UNL     1      46.386   5.795  12.685  0.00  0.00    +0.000 A 
ATOM      5  C   UNL     1      45.505   5.017  11.945  0.00  0.00    +0.000 A 
ATOM      6  C   UNL     1      45.425   3.668  12.277  0.00  0.00    +0.000 A 
ATOM      7  N   UNL     1      46.106   3.080  13.294  0.00  0.00    +0.000 NA
ATOM      8  H   UNL     1      47.358   2.284  15.220  0.00  0.00    +0.000 HD
ENDROOT
BRANCH   1  10
ATOM      9  C   UNL     1      47.168   4.232  17.391  0.00  0.00    +0.000 C 
ATOM     10  C   UNL     1      47.889   3.946  16.299  0.00  0.00    +0.000 C 
BRANCH   9  15
ATOM     11  C   UNL     1      49.697   5.308  19.998  0.00  0.00    +0.000 A 
ATOM     12  C   UNL     1      49.001   6.339  20.643  0.00  0.00    +0.000 A 
ATOM     13  C   UNL     1      47.692   6.642  20.279  0.00  0.00    +0.000 A 
ATOM     14  C   UNL     1      47.076   5.934  19.247  0.00  0.00    +0.000 A 
ATOM     15  C   UNL     1      47.765   4.932  18.545  0.00  0.00    +0.000 A 
ATOM     16  C   UNL     1      49.067   4.607  18.952  0.00  0.00    +0.000 A 
BRANCH  11  17
ATOM     17  C   UNL     1      51.122   4.995  20.387  0.00  0.00    +0.000 C 
BRANCH  17  18
ATOM     18  N   UNL     1      51.229   4.600  21.788  0.00  0.00    +0.000 NA
ATOM     19  H   UNL     1      52.181   4.293  21.974  0.00  0.00    +0.000 HD
ATOM     20  H   UNL     1      50.627   3.793  21.946  0.00  0.00    +0.000 HD
ENDBRANCH  17  18
ENDBRANCH  11  17
ENDBRANCH   9  15
ENDBRANCH   1  10
BRANCH   5  21
ATOM     21  C   UNL     1      44.685   5.626  10.840  0.00  0.00    +0.000 C 
BRANCH  21  22
ATOM     22  C   UNL     1      43.422   6.342  11.320  0.00  0.00    +0.000 C 
BRANCH  22  23
ATOM     23  C   UNL     1      42.398   5.411  11.959  0.00  0.00    +0.000 C 
BRANCH  23  24
ATOM     24  O   UNL     1      42.509   5.483  13.376  0.00  0.00    +0.000 OA
ATOM     25  H   UNL     1      42.902   6.343  13.602  0.00  0.00    +0.000 HD
ENDBRANCH  23  24
ENDBRANCH  22  23
ENDBRANCH  21  22
ENDBRANCH   5  21
TORSDOF 8
ENDMDL
MODEL 6
REMARK VINA RESULT:    -5.823      3.366      4.492
REMARK INTER + INTRA:          -8.628
REMARK INTER:                  -8.222
REMARK INTRA:                  -0.406
REMARK UNBOUND:                -0.422
REMARK  Name = 
REMARK  8 active torsions:
REMARK  status: ('A' for Active; 'I' for Inactive)
REMARK    1  A    between atoms: N_1  and  C_2
REMARK    2  A    between atoms: C_2  and  C_3
REMARK    3  A    between atoms: C_7  and  C_8
REMARK    4  A    between atoms: C_9  and  N_10
REMARK    5  A    between atoms: C_14  and  C_15
REMARK    6  A    between atoms: C_15  and  C_16
REMARK    7  A    between atoms: C_16  and  C_17
REMARK    8  A    between atoms: C_17  and  O_18
REMARK                            x       y       z     vdW  Elec       q    Type
REMARK                         _______ _______ _______ _____ _____    ______ ____
ROOT
ATOM      1  N   UNL     1      47.434   3.464  15.307  0.00  0.00    +0.000 N 
ATOM      2  C   UNL     1      46.848   3.959  14.134  0.00  0.00    +0.000 A 
ATOM      3  C   UNL     1      46.934   5.310  13.800  0.00  0.00    +0.000 A 
ATOM      4  C   UNL     1      46.258   5.801  12.685  0.00  0.00    +0.000 A 
ATOM      5  C   UNL     1      45.517   4.927  11.902  0.00  0.00    +0.000 A 
ATOM      6  C   UNL     1      45.536   3.584  12.266  0.00  0.00    +0.000 A 
ATOM      7  N   UNL     1      46.184   3.085  13.351  0.00  0.00    +0.000 NA
ATOM      8  H   UNL     1      47.345   2.456  15.392  0.00  0.00    +0.000 HD
ENDROOT
BRANCH   1  10
ATOM      9  C   UNL     1      47.959   3.775  17.692  0.00  0.00    +0.000 C 
ATOM     10  C   UNL     1      47.629   4.184  16.460  0.00  0.00    +0.000 C 
BRANCH   9  15
ATOM     11  C   UNL     1      47.963   7.024  19.639  0.00  0.00    +0.000 A 
ATOM     12  C   UNL     1      48.385   6.584  20.901  0.00  0.00    +0.000 A 
ATOM     13  C   UNL     1      48.730   5.251  21.105  0.00  0.00    +0.000 A 
ATOM     14  C   UNL     1      48.631   4.340  20.055  0.00  0.00    +0.000 A 
ATOM     15  C   UNL     1      48.159   4.738  18.793  0.00  0.00    +0.000 A 
ATOM     16  C   UNL     1      47.858   6.092  18.590  0.00  0.00    +0.000 A 
BRANCH  11  17
ATOM     17  C   UNL     1      47.574   8.468  19.430  0.00  0.00    +0.000 C 
BRANCH  17  18
ATOM     18  N   UNL     1      47.521   8.817  18.013  0.00  0.00    +0.000 NA
ATOM     19  H   UNL     1      48.454   8.737  17.617  0.00  0.00    +0.000 HD
ATOM     20  H   UNL     1      47.253   9.797  17.929  0.00  0.00    +0.000 HD
ENDBRANCH  17  18
ENDBRANCH  11  17
ENDBRANCH   9  15
ENDBRANCH   1  10
BRANCH   5  21
ATOM     21  C   UNL     1      44.736   5.431  10.718  0.00  0.00    +0.000 C 
BRANCH  21  22
ATOM     22  C   UNL     1      43.256   5.048  10.736  0.00  0.00    +0.000 C 
BRANCH  22  23
ATOM     23  C   UNL     1      42.545   5.420  12.033  0.00  0.00    +0.000 C 
BRANCH  23  24
ATOM     24  O   UNL     1      41.766   6.593  11.829  0.00  0.00    +0.000 OA
ATOM     25  H   UNL     1      41.122   6.655  12.554  0.00  0.00    +0.000 HD
ENDBRANCH  23  24
ENDBRANCH  22  23
ENDBRANCH  21  22
ENDBRANCH   5  21
TORSDOF 8
ENDMDL
MODEL 7
REMARK VINA RESULT:    -5.817      1.639      2.245
REMARK INTER + INTRA:          -8.619
REMARK INTER:                  -8.158
REMARK INTRA:                  -0.461
REMARK UNBOUND:                -0.422
REMARK  Name = 
REMARK  8 active torsions:
REMARK  status: ('A' for Active; 'I' for Inactive)
REMARK    1  A    between atoms: N_1  and  C_2
REMARK    2  A    between atoms: C_2  and  C_3
REMARK    3  A    between atoms: C_7  and  C_8
REMARK    4  A    between atoms: C_9  and  N_10
REMARK    5  A    between atoms: C_14  and  C_15
REMARK    6  A    between atoms: C_15  and  C_16
REMARK    7  A    between atoms: C_16  and  C_17
REMARK    8  A    between atoms: C_17  and  O_18
REMARK                            x       y       z     vdW  Elec       q    Type
REMARK                         _______ _______ _______ _____ _____    ______ ____
ROOT
ATOM      1  N   UNL     1      46.559   6.521  12.502  0.00  0.00    +0.000 N 
ATOM      2  C   UNL     1      45.958   5.656  11.576  0.00  0.00    +0.000 A 
ATOM      3  C   UNL     1      45.370   4.460  11.985  0.00  0.00    +0.000 A 
ATOM      4  C   UNL     1      44.871   3.566  11.040  0.00  0.00    +0.000 A 
ATOM      5  C   UNL     1      44.948   3.890   9.692  0.00  0.00    +0.000 A 
ATOM      6  C   UNL     1      45.490   5.131   9.372  0.00  0.00    +0.000 A 
ATOM      7  N   UNL     1      45.986   6.015  10.277  0.00  0.00    +0.000 NA
ATOM      8  H   UNL     1      46.892   7.379  12.073  0.00  0.00    +0.000 HD
ENDROOT
BRANCH   1  10
ATOM      9  C   UNL     1      48.099   6.719  14.411  0.00  0.00    +0.000 C 
ATOM     10  C   UNL     1      47.136   6.135  13.686  0.00  0.00    +0.000 C 
BRANCH   9  15
ATOM     11  C   UNL     1      48.543   4.275  17.271  0.00  0.00    +0.000 A 
ATOM     12  C   UNL     1      49.489   4.946  18.058  0.00  0.00    +0.000 A 
ATOM     13  C   UNL     1      49.935   6.214  17.698  0.00  0.00    +0.000 A 
ATOM     14  C   UNL     1      49.457   6.813  16.533  0.00  0.00    +0.000 A 
ATOM     15  C   UNL     1      48.550   6.145  15.695  0.00  0.00    +0.000 A 
ATOM     16  C   UNL     1      48.076   4.887  16.093  0.00  0.00    +0.000 A 
BRANCH  11  17
ATOM     17  C   UNL     1      48.077   2.892  17.659  0.00  0.00    +0.000 C 
BRANCH  17  18
ATOM     18  N   UNL     1      46.624   2.821  17.776  0.00  0.00    +0.000 NA
ATOM     19  H   UNL     1      46.321   1.873  17.568  0.00  0.00    +0.000 HD
ATOM     20  H   UNL     1      46.210   3.420  17.063  0.00  0.00    +0.000 HD
ENDBRANCH  17  18
ENDBRANCH  11  17
ENDBRANCH   9  15
ENDBRANCH   1  10
BRANCH   5  21
ATOM     21  C   UNL     1      44.461   2.928   8.642  0.00  0.00    +0.000 C 
BRANCH  21  22
ATOM     22  C   UNL     1      45.095   1.538   8.725  0.00  0.00    +0.000 C 
BRANCH  22  23
ATOM     23  C   UNL     1      46.412   1.423   7.965  0.00  0.00    +0.000 C 
BRANCH  23  24
ATOM     24  O   UNL     1      46.820   0.060   7.925  0.00  0.00    +0.000 OA
ATOM     25  H   UNL     1      47.744   0.033   7.625  0.00  0.00    +0.000 HD
ENDBRANCH  23  24
ENDBRANCH  22  23
ENDBRANCH  21  22
ENDBRANCH   5  21
TORSDOF 8
ENDMDL
MODEL 8
REMARK VINA RESULT:    -5.800      4.124      5.094
REMARK INTER + INTRA:          -8.596
REMARK INTER:                  -8.226
REMARK INTRA:                  -0.370
REMARK UNBOUND:                -0.422
REMARK  Name = 
REMARK  8 active torsions:
REMARK  status: ('A' for Active; 'I' for Inactive)
REMARK    1  A    between atoms: N_1  and  C_2
REMARK    2  A    between atoms: C_2  and  C_3
REMARK    3  A    between atoms: C_7  and  C_8
REMARK    4  A    between atoms: C_9  and  N_10
REMARK    5  A    between atoms: C_14  and  C_15
REMARK    6  A    between atoms: C_15  and  C_16
REMARK    7  A    between atoms: C_16  and  C_17
REMARK    8  A    between atoms: C_17  and  O_18
REMARK                            x       y       z     vdW  Elec       q    Type
REMARK                         _______ _______ _______ _____ _____    ______ ____
ROOT
ATOM      1  N   UNL     1      46.556   3.778  14.565  0.00  0.00    +0.000 N 
ATOM      2  C   UNL     1      46.117   4.813  13.727  0.00  0.00    +0.000 A 
ATOM      3  C   UNL     1      47.020   5.705  13.151  0.00  0.00    +0.000 A 
ATOM      4  C   UNL     1      46.557   6.788  12.406  0.00  0.00    +0.000 A 
ATOM      5  C   UNL     1      45.190   6.954  12.228  0.00  0.00    +0.000 A 
ATOM      6  C   UNL     1      44.361   5.982  12.779  0.00  0.00    +0.000 A 
ATOM      7  N   UNL     1      44.791   4.923  13.512  0.00  0.00    +0.000 NA
ATOM      8  H   UNL     1      45.798   3.171  14.863  0.00  0.00    +0.000 HD
ENDROOT
BRANCH   1  10
ATOM      9  C   UNL     1      48.023   3.089  16.418  0.00  0.00    +0.000 C 
ATOM     10  C   UNL     1      47.686   3.816  15.344  0.00  0.00    +0.000 C 
BRANCH   9  15
ATOM     11  C   UNL     1      51.518   2.368  17.689  0.00  0.00    +0.000 A 
ATOM     12  C   UNL     1      51.872   3.611  18.230  0.00  0.00    +0.000 A 
ATOM     13  C   UNL     1      50.959   4.661  18.243  0.00  0.00    +0.000 A 
ATOM     14  C   UNL     1      49.691   4.486  17.689  0.00  0.00    +0.000 A 
ATOM     15  C   UNL     1      49.324   3.270  17.090  0.00  0.00    +0.000 A 
ATOM     16  C   UNL     1      50.238   2.207  17.125  0.00  0.00    +0.000 A 
BRANCH  11  17
ATOM     17  C   UNL     1      52.519   1.238  17.663  0.00  0.00    +0.000 C 
BRANCH  17  18
ATOM     18  N   UNL     1      51.986   0.025  18.278  0.00  0.00    +0.000 NA
ATOM     19  H   UNL     1      51.687  -0.613  17.545  0.00  0.00    +0.000 HD
ATOM     20  H   UNL     1      51.151   0.269  18.809  0.00  0.00    +0.000 HD
ENDBRANCH  17  18
ENDBRANCH  11  17
ENDBRANCH   9  15
ENDBRANCH   1  10
BRANCH   5  21
ATOM     21  C   UNL     1      44.654   8.137  11.468  0.00  0.00    +0.000 C 
BRANCH  21  22
ATOM     22  C   UNL     1      45.286   9.472  11.862  0.00  0.00    +0.000 C 
BRANCH  22  23
ATOM     23  C   UNL     1      44.402  10.678  11.562  0.00  0.00    +0.000 C 
BRANCH  23  24
ATOM     24  O   UNL     1      43.180  10.563  12.282  0.00  0.00    +0.000 OA
ATOM     25  H   UNL     1      42.753  11.436  12.289  0.00  0.00    +0.000 HD
ENDBRANCH  23  24
ENDBRANCH  22  23
ENDBRANCH  21  22
ENDBRANCH   5  21
TORSDOF 8
ENDMDL
MODEL 9
REMARK VINA RESULT:    -5.177      4.951      6.199
REMARK INTER + INTRA:          -7.717
REMARK INTER:                  -7.187
REMARK INTRA:                  -0.530
REMARK UNBOUND:                -0.422
REMARK  Name = 
REMARK  8 active torsions:
REMARK  status: ('A' for Active; 'I' for Inactive)
REMARK    1  A    between atoms: N_1  and  C_2
REMARK    2  A    between atoms: C_2  and  C_3
REMARK    3  A    between atoms: C_7  and  C_8
REMARK    4  A    between atoms: C_9  and  N_10
REMARK    5  A    between atoms: C_14  and  C_15
REMARK    6  A    between atoms: C_15  and  C_16
REMARK    7  A    between atoms: C_16  and  C_17
REMARK    8  A    between atoms: C_17  and  O_18
REMARK                            x       y       z     vdW  Elec       q    Type
REMARK                         _______ _______ _______ _____ _____    ______ ____
ROOT
ATOM      1  N   UNL     1      44.590   6.920  12.416  0.00  0.00    +0.000 N 
ATOM      2  C   UNL     1      44.658   5.958  11.398  0.00  0.00    +0.000 A 
ATOM      3  C   UNL     1      45.780   5.859  10.576  0.00  0.00    +0.000 A 
ATOM      4  C   UNL     1      45.787   4.968   9.505  0.00  0.00    +0.000 A 
ATOM      5  C   UNL     1      44.674   4.168   9.280  0.00  0.00    +0.000 A 
ATOM      6  C   UNL     1      43.623   4.282  10.185  0.00  0.00    +0.000 A 
ATOM      7  N   UNL     1      43.595   5.147  11.232  0.00  0.00    +0.000 NA
ATOM      8  H   UNL     1      43.744   6.838  12.972  0.00  0.00    +0.000 HD
ENDROOT
BRANCH   1  10
ATOM      9  C   UNL     1      44.909   9.272  11.765  0.00  0.00    +0.000 C 
ATOM     10  C   UNL     1      45.226   8.136  12.400  0.00  0.00    +0.000 C 
BRANCH   9  15
ATOM     11  C   UNL     1      47.890  11.518  12.410  0.00  0.00    +0.000 A 
ATOM     12  C   UNL     1      47.357  12.775  12.091  0.00  0.00    +0.000 A 
ATOM     13  C   UNL     1      46.019  12.904  11.731  0.00  0.00    +0.000 A 
ATOM     14  C   UNL     1      45.207  11.773  11.660  0.00  0.00    +0.000 A 
ATOM     15  C   UNL     1      45.724  10.493  11.921  0.00  0.00    +0.000 A 
ATOM     16  C   UNL     1      47.061  10.383  12.326  0.00  0.00    +0.000 A 
BRANCH  11  17
ATOM     17  C   UNL     1      49.346  11.384  12.784  0.00  0.00    +0.000 C 
BRANCH  17  18
ATOM     18  N   UNL     1      49.883  12.625  13.336  0.00  0.00    +0.000 NA
ATOM     19  H   UNL     1      50.608  12.977  12.715  0.00  0.00    +0.000 HD
ATOM     20  H   UNL     1      50.338  12.416  14.224  0.00  0.00    +0.000 HD
ENDBRANCH  17  18
ENDBRANCH  11  17
ENDBRANCH   9  15
ENDBRANCH   1  10
BRANCH   5  21
ATOM     21  C   UNL     1      44.629   3.229   8.106  0.00  0.00    +0.000 C 
BRANCH  21  22
ATOM     22  C   UNL     1      45.863   3.293   7.205  0.00  0.00    +0.000 C 
BRANCH  22  23
ATOM     23  C   UNL     1      46.740   2.047   7.282  0.00  0.00    +0.000 C 
BRANCH  23  24
ATOM     24  O   UNL     1      46.308   1.228   8.363  0.00  0.00    +0.000 OA
ATOM     25  H   UNL     1      46.131   1.805   9.124  0.00  0.00    +0.000 HD
ENDBRANCH  23  24
ENDBRANCH  22  23
ENDBRANCH  21  22
ENDBRANCH   5  21
TORSDOF 8
ENDMDL
