MODEL 1
REMARK VINA RESULT:    -7.256      0.000      0.000
REMARK INTER + INTRA:         -10.540
REMARK INTER:                  -9.801
REMARK INTRA:                  -0.739
REMARK UNBOUND:                -0.739
REMARK  Name = 
REMARK  6 active torsions:
REMARK  status: ('A' for Active; 'I' for Inactive)
REMARK    1  A    between atoms: C_2  and  C_3
REMARK    2  A    between atoms: C_5  and  C_6
REMARK    3  A    between atoms: C_6  and  C_7
REMARK    4  A    between atoms: C_7  and  O_8
REMARK    5  A    between atoms: O_8  and  C_9
REMARK    6  A    between atoms: C_12  and  C_13
REMARK                            x       y       z     vdW  Elec       q    Type
REMARK                         _______ _______ _______ _____ _____    ______ ____
ROOT
ATOM      1  O   UNL     1      43.774   3.667  10.437  0.00  0.00    +0.000 OA
ENDROOT
BRANCH   1   2
ATOM      2  C   UNL     1      44.683   3.314   9.475  0.00  0.00    +0.000 A 
ATOM      3  C   UNL     1      45.301   4.188   8.581  0.00  0.00    +0.000 A 
ATOM      4  C   UNL     1      46.220   3.699   7.656  0.00  0.00    +0.000 A 
ATOM      5  C   UNL     1      46.495   2.339   7.650  0.00  0.00    +0.000 A 
ATOM      6  N   UNL     1      45.913   1.448   8.498  0.00  0.00    +0.000 NA
ATOM      7  C   UNL     1      45.021   1.965   9.384  0.00  0.00    +0.000 A 
BRANCH   5   8
ATOM      8  C   UNL     1      47.494   1.806   6.670  0.00  0.00    +0.000 C 
ATOM      9  N   UNL     1      48.588   2.597   6.447  0.00  0.00    +0.000 N 
ATOM     10  O   UNL     1      47.349   0.734   6.097  0.00  0.00    +0.000 OA
ATOM     11  H   UNL     1      48.672   3.483   6.930  0.00  0.00    +0.000 HD
ATOM     12  H   UNL     1      49.287   2.298   5.785  0.00  0.00    +0.000 HD
ENDBRANCH   5   8
ENDBRANCH   1   2
BRANCH   1  13
ATOM     13  C   UNL     1      43.464   5.064  10.517  0.00  0.00    +0.000 C 
BRANCH  13  14
ATOM     14  C   UNL     1      43.586   5.543  11.963  0.00  0.00    +0.000 C 
BRANCH  14  17
ATOM     15  C   UNL     1      46.787   4.783  13.864  0.00  0.00    +0.000 A 
ATOM     16  C   UNL     1      45.450   4.741  13.480  0.00  0.00    +0.000 A 
ATOM     17  C   UNL     1      45.022   5.560  12.429  0.00  0.00    +0.000 A 
ATOM     18  C   UNL     1      45.966   6.376  11.799  0.00  0.00    +0.000 A 
ATOM     19  C   UNL     1      47.278   6.352  12.249  0.00  0.00    +0.000 A 
ATOM     20  N   UNL     1      47.709   5.576  13.266  0.00  0.00    +0.000 NA
BRANCH  15  22
ATOM     21  N   UNL     1      47.649   3.272  15.796  0.00  0.00    +0.000 NA
ATOM     22  C   UNL     1      47.266   3.969  14.948  0.00  0.00    +0.000 C 
ENDBRANCH  15  22
ENDBRANCH  14  17
ENDBRANCH  13  14
ENDBRANCH   1  13
TORSDOF 6
ENDMDL
MODEL 2
REMARK VINA RESULT:    -6.954      0.841      2.105
REMARK INTER + INTRA:         -10.132
REMARK INTER:                  -9.399
REMARK INTRA:                  -0.734
REMARK UNBOUND:                -0.739
REMARK  Name = 
REMARK  6 active torsions:
REMARK  status: ('A' for Active; 'I' for Inactive)
REMARK    1  A    between atoms: C_2  and  C_3
REMARK    2  A    between atoms: C_5  and  C_6
REMARK    3  A    between atoms: C_6  and  C_7
REMARK    4  A    between atoms: C_7  and  O_8
REMARK    5  A    between atoms: O_8  and  C_9
REMARK    6  A    between atoms: C_12  and  C_13
REMARK                            x       y       z     vdW  Elec       q    Type
REMARK                         _______ _______ _______ _____ _____    ______ ____
ROOT
ATOM      1  O   UNL     1      43.771   3.714  10.384  0.00  0.00    +0.000 OA
ENDROOT
BRANCH   1   2
ATOM      2  C   UNL     1      44.690   3.344   9.439  0.00  0.00    +0.000 A 
ATOM      3  C   UNL     1      45.352   4.208   8.567  0.00  0.00    +0.000 A 
ATOM      4  C   UNL     1      46.277   3.701   7.657  0.00  0.00    +0.000 A 
ATOM      5  C   UNL     1      46.513   2.334   7.644  0.00  0.00    +0.000 A 
ATOM      6  N   UNL     1      45.887   1.452   8.470  0.00  0.00    +0.000 NA
ATOM      7  C   UNL     1      44.991   1.987   9.342  0.00  0.00    +0.000 A 
BRANCH   5   8
ATOM      8  C   UNL     1      47.518   1.782   6.680  0.00  0.00    +0.000 C 
ATOM      9  N   UNL     1      48.584   2.593   6.403  0.00  0.00    +0.000 N 
ATOM     10  O   UNL     1      47.401   0.677   6.166  0.00  0.00    +0.000 OA
ATOM     11  H   UNL     1      48.645   3.506   6.839  0.00  0.00    +0.000 HD
ATOM     12  H   UNL     1      49.285   2.282   5.749  0.00  0.00    +0.000 HD
ENDBRANCH   5   8
ENDBRANCH   1   2
BRANCH   1  13
ATOM     13  C   UNL     1      43.551   5.124  10.519  0.00  0.00    +0.000 C 
BRANCH  13  14
ATOM     14  C   UNL     1      43.676   5.533  11.987  0.00  0.00    +0.000 C 
BRANCH  14  17
ATOM     15  C   UNL     1      47.338   6.458  12.405  0.00  0.00    +0.000 A 
ATOM     16  C   UNL     1      46.025   6.480  11.941  0.00  0.00    +0.000 A 
ATOM     17  C   UNL     1      45.115   5.544  12.444  0.00  0.00    +0.000 A 
ATOM     18  C   UNL     1      45.564   4.635  13.407  0.00  0.00    +0.000 A 
ATOM     19  C   UNL     1      46.890   4.688  13.809  0.00  0.00    +0.000 A 
ATOM     20  N   UNL     1      47.786   5.577  13.331  0.00  0.00    +0.000 NA
BRANCH  15  22
ATOM     21  N   UNL     1      49.076   8.181  11.529  0.00  0.00    +0.000 NA
ATOM     22  C   UNL     1      48.308   7.393  11.904  0.00  0.00    +0.000 C 
ENDBRANCH  15  22
ENDBRANCH  14  17
ENDBRANCH  13  14
ENDBRANCH   1  13
TORSDOF 6
ENDMDL
MODEL 3
REMARK VINA RESULT:    -6.265      2.426      6.049
REMARK INTER + INTRA:          -9.201
REMARK INTER:                  -8.555
REMARK INTRA:                  -0.646
REMARK UNBOUND:                -0.739
REMARK  Name = 
REMARK  6 active torsions:
REMARK  status: ('A' for Active; 'I' for Inactive)
REMARK    1  A    between atoms: C_2  and  C_3
REMARK    2  A    between atoms: C_5  and  C_6
REMARK    3  A    between atoms: C_6  and  C_7
REMARK    4  A    between atoms: C_7  and  O_8
REMARK    5  A    between atoms: O_8  and  C_9
REMARK    6  A    between atoms: C_12  and  C_13
REMARK                            x       y       z     vdW  Elec       q    Type
REMARK                         _______ _______ _______ _____ _____    ______ ____
ROOT
ATOM      1  O   UNL     1      44.384   4.472  13.067  0.00  0.00    +0.000 OA
ENDROOT
BRANCH   1   2
ATOM      2  C   UNL     1      45.536   5.192  12.896  0.00  0.00    +0.000 A 
ATOM      3  C   UNL     1      45.738   6.188  11.941  0.00  0.00    +0.000 A 
ATOM      4  C   UNL     1      46.959   6.856  11.882  0.00  0.00    +0.000 A 
ATOM      5  C   UNL     1      47.952   6.503  12.784  0.00  0.00    +0.000 A 
ATOM      6  N   UNL     1      47.804   5.533  13.727  0.00  0.00    +0.000 NA
ATOM      7  C   UNL     1      46.598   4.906  13.752  0.00  0.00    +0.000 A 
BRANCH   5   8
ATOM      8  C   UNL     1      49.263   7.225  12.738  0.00  0.00    +0.000 C 
ATOM      9  N   UNL     1      49.976   7.236  13.905  0.00  0.00    +0.000 N 
ATOM     10  O   UNL     1      49.678   7.777  11.727  0.00  0.00    +0.000 OA
ATOM     11  H   UNL     1      49.599   6.778  14.727  0.00  0.00    +0.000 HD
ATOM     12  H   UNL     1      50.860   7.720  13.940  0.00  0.00    +0.000 HD
ENDBRANCH   5   8
ENDBRANCH   1   2
BRANCH   1  13
ATOM     13  C   UNL     1      44.295   3.252  12.319  0.00  0.00    +0.000 C 
BRANCH  13  14
ATOM     14  C   UNL     1      43.592   3.509  10.986  0.00  0.00    +0.000 C 
BRANCH  14  17
ATOM     15  C   UNL     1      45.857   1.959   8.358  0.00  0.00    +0.000 A 
ATOM     16  C   UNL     1      45.006   2.070   9.454  0.00  0.00    +0.000 A 
ATOM     17  C   UNL     1      44.529   3.335   9.815  0.00  0.00    +0.000 A 
ATOM     18  C   UNL     1      44.918   4.434   9.043  0.00  0.00    +0.000 A 
ATOM     19  C   UNL     1      45.769   4.228   7.968  0.00  0.00    +0.000 A 
ATOM     20  N   UNL     1      46.246   3.018   7.608  0.00  0.00    +0.000 NA
BRANCH  15  22
ATOM     21  N   UNL     1      46.837  -0.350   7.677  0.00  0.00    +0.000 NA
ATOM     22  C   UNL     1      46.381   0.680   7.962  0.00  0.00    +0.000 C 
ENDBRANCH  15  22
ENDBRANCH  14  17
ENDBRANCH  13  14
ENDBRANCH   1  13
TORSDOF 6
ENDMDL
MODEL 4
REMARK VINA RESULT:    -6.072      2.783      6.901
REMARK INTER + INTRA:          -8.941
REMARK INTER:                  -8.302
REMARK INTRA:                  -0.639
REMARK UNBOUND:                -0.739
REMARK  Name = 
REMARK  6 active torsions:
REMARK  status: ('A' for Active; 'I' for Inactive)
REMARK    1  A    between atoms: C_2  and  C_3
REMARK    2  A    between atoms: C_5  and  C_6
REMARK    3  A    between atoms: C_6  and  C_7
REMARK    4  A    between atoms: C_7  and  O_8
REMARK    5  A    between atoms: O_8  and  C_9
REMARK    6  A    between atoms: C_12  and  C_13
REMARK                            x       y       z     vdW  Elec       q    Type
REMARK                         _______ _______ _______ _____ _____    ______ ____
ROOT
ATOM      1  O   UNL     1      46.995   6.315  12.552  0.00  0.00    +0.000 OA
ENDROOT
BRANCH   1   2
ATOM      2  C   UNL     1      47.283   5.725  13.754  0.00  0.00    +0.000 A 
ATOM      3  C   UNL     1      48.091   6.267  14.752  0.00  0.00    +0.000 A 
ATOM      4  C   UNL     1      48.294   5.567  15.939  0.00  0.00    +0.000 A 
ATOM      5  C   UNL     1      47.678   4.333  16.093  0.00  0.00    +0.000 A 
ATOM      6  N   UNL     1      46.886   3.761  15.145  0.00  0.00    +0.000 NA
ATOM      7  C   UNL     1      46.715   4.477  14.002  0.00  0.00    +0.000 A 
BRANCH   5   8
ATOM      8  C   UNL     1      47.877   3.579  17.372  0.00  0.00    +0.000 C 
ATOM      9  N   UNL     1      46.864   2.728  17.722  0.00  0.00    +0.000 N 
ATOM     10  O   UNL     1      48.875   3.711  18.068  0.00  0.00    +0.000 OA
ATOM     11  H   UNL     1      46.047   2.650  17.128  0.00  0.00    +0.000 HD
ATOM     12  H   UNL     1      46.934   2.204  18.581  0.00  0.00    +0.000 HD
ENDBRANCH   5   8
ENDBRANCH   1   2
BRANCH   1  13
ATOM     13  C   UNL     1      45.824   7.141  12.529  0.00  0.00    +0.000 C 
BRANCH  13  14
ATOM     14  C   UNL     1      45.050   6.912  11.231  0.00  0.00    +0.000 C 
BRANCH  14  17
ATOM     15  C   UNL     1      44.632   3.287  10.171  0.00  0.00    +0.000 A 
ATOM     16  C   UNL     1      45.124   4.589  10.224  0.00  0.00    +0.000 A 
ATOM     17  C   UNL     1      44.546   5.493  11.122  0.00  0.00    +0.000 A 
ATOM     18  C   UNL     1      43.507   5.041  11.941  0.00  0.00    +0.000 A 
ATOM     19  C   UNL     1      43.082   3.727  11.818  0.00  0.00    +0.000 A 
ATOM     20  N   UNL     1      43.620   2.841  10.953  0.00  0.00    +0.000 NA
BRANCH  15  22
ATOM     21  N   UNL     1      45.627   1.522   8.542  0.00  0.00    +0.000 NA
ATOM     22  C   UNL     1      45.187   2.330   9.253  0.00  0.00    +0.000 C 
ENDBRANCH  15  22
ENDBRANCH  14  17
ENDBRANCH  13  14
ENDBRANCH   1  13
TORSDOF 6
ENDMDL
MODEL 5
REMARK VINA RESULT:    -6.029      4.039      7.753
REMARK INTER + INTRA:          -8.883
REMARK INTER:                  -8.551
REMARK INTRA:                  -0.333
REMARK UNBOUND:                -0.739
REMARK  Name = 
REMARK  6 active torsions:
REMARK  status: ('A' for Active; 'I' for Inactive)
REMARK    1  A    between atoms: C_2  and  C_3
REMARK    2  A    between atoms: C_5  and  C_6
REMARK    3  A    between atoms: C_6  and  C_7
REMARK    4  A    between atoms: C_7  and  O_8
REMARK    5  A    between atoms: O_8  and  C_9
REMARK    6  A    between atoms: C_12  and  C_13
REMARK                            x       y       z     vdW  Elec       q    Type
REMARK                         _______ _______ _______ _____ _____    ______ ____
ROOT
ATOM      1  O   UNL     1      46.885   3.935  15.825  0.00  0.00    +0.000 OA
ENDROOT
BRANCH   1   2
ATOM      2  C   UNL     1      48.070   3.480  16.338  0.00  0.00    +0.000 A 
ATOM      3  C   UNL     1      48.847   4.134  17.294  0.00  0.00    +0.000 A 
ATOM      4  C   UNL     1      50.031   3.554  17.742  0.00  0.00    +0.000 A 
ATOM      5  C   UNL     1      50.409   2.328  17.215  0.00  0.00    +0.000 A 
ATOM      6  N   UNL     1      49.688   1.656  16.276  0.00  0.00    +0.000 NA
ATOM      7  C   UNL     1      48.540   2.256  15.865  0.00  0.00    +0.000 A 
BRANCH   5   8
ATOM      8  C   UNL     1      51.673   1.688  17.701  0.00  0.00    +0.000 C 
ATOM      9  N   UNL     1      51.568   0.376  18.075  0.00  0.00    +0.000 N 
ATOM     10  O   UNL     1      52.735   2.292  17.767  0.00  0.00    +0.000 OA
ATOM     11  H   UNL     1      50.671  -0.091  18.017  0.00  0.00    +0.000 HD
ATOM     12  H   UNL     1      52.382  -0.104  18.426  0.00  0.00    +0.000 HD
ENDBRANCH   5   8
ENDBRANCH   1   2
BRANCH   1  13
ATOM     13  C   UNL     1      46.774   3.911  14.397  0.00  0.00    +0.000 C 
BRANCH  13  14
ATOM     14  C   UNL     1      46.011   5.143  13.912  0.00  0.00    +0.000 C 
BRANCH  14  17
ATOM     15  C   UNL     1      44.235   3.534  10.963  0.00  0.00    +0.000 A 
ATOM     16  C   UNL     1      45.233   3.838  11.885  0.00  0.00    +0.000 A 
ATOM     17  C   UNL     1      44.969   4.787  12.878  0.00  0.00    +0.000 A 
ATOM     18  C   UNL     1      43.703   5.378  12.910  0.00  0.00    +0.000 A 
ATOM     19  C   UNL     1      42.771   5.014  11.951  0.00  0.00    +0.000 A 
ATOM     20  N   UNL     1      43.007   4.107  10.980  0.00  0.00    +0.000 NA
BRANCH  15  22
ATOM     21  N   UNL     1      44.703   1.816   9.070  0.00  0.00    +0.000 NA
ATOM     22  C   UNL     1      44.469   2.575   9.918  0.00  0.00    +0.000 C 
ENDBRANCH  15  22
ENDBRANCH  14  17
ENDBRANCH  13  14
ENDBRANCH   1  13
TORSDOF 6
ENDMDL
MODEL 6
REMARK VINA RESULT:    -5.966      1.745      2.133
REMARK INTER + INTRA:          -8.797
REMARK INTER:                  -8.365
REMARK INTRA:                  -0.432
REMARK UNBOUND:                -0.739
REMARK  Name = 
REMARK  6 active torsions:
REMARK  status: ('A' for Active; 'I' for Inactive)
REMARK    1  A    between atoms: C_2  and  C_3
REMARK    2  A    between atoms: C_5  and  C_6
REMARK    3  A    between atoms: C_6  and  C_7
REMARK    4  A    between atoms: C_7  and  O_8
REMARK    5  A    between atoms: O_8  and  C_9
REMARK    6  A    between atoms: C_12  and  C_13
REMARK                            x       y       z     vdW  Elec       q    Type
REMARK                         _______ _______ _______ _____ _____    ______ ____
ROOT
ATOM      1  O   UNL     1      43.770   3.820  10.238  0.00  0.00    +0.000 OA
ENDROOT
BRANCH   1   2
ATOM      2  C   UNL     1      44.691   3.331   9.350  0.00  0.00    +0.000 A 
ATOM      3  C   UNL     1      45.038   1.989   9.196  0.00  0.00    +0.000 A 
ATOM      4  C   UNL     1      45.985   1.622   8.243  0.00  0.00    +0.000 A 
ATOM      5  C   UNL     1      46.564   2.615   7.467  0.00  0.00    +0.000 A 
ATOM      6  N   UNL     1      46.262   3.937   7.585  0.00  0.00    +0.000 NA
ATOM      7  C   UNL     1      45.334   4.253   8.527  0.00  0.00    +0.000 A 
BRANCH   5   8
ATOM      8  C   UNL     1      47.571   2.229   6.428  0.00  0.00    +0.000 C 
ATOM      9  N   UNL     1      47.066   1.644   5.299  0.00  0.00    +0.000 N 
ATOM     10  O   UNL     1      48.772   2.417   6.571  0.00  0.00    +0.000 OA
ATOM     11  H   UNL     1      46.067   1.495   5.216  0.00  0.00    +0.000 HD
ATOM     12  H   UNL     1      47.697   1.349   4.570  0.00  0.00    +0.000 HD
ENDBRANCH   5   8
ENDBRANCH   1   2
BRANCH   1  13
ATOM     13  C   UNL     1      44.046   5.124  10.764  0.00  0.00    +0.000 C 
BRANCH  13  14
ATOM     14  C   UNL     1      44.536   5.010  12.208  0.00  0.00    +0.000 C 
BRANCH  14  17
ATOM     15  C   UNL     1      47.418   7.084  13.563  0.00  0.00    +0.000 A 
ATOM     16  C   UNL     1      46.640   5.976  13.236  0.00  0.00    +0.000 A 
ATOM     17  C   UNL     1      45.412   6.177  12.597  0.00  0.00    +0.000 A 
ATOM     18  C   UNL     1      45.027   7.487  12.299  0.00  0.00    +0.000 A 
ATOM     19  C   UNL     1      45.866   8.530  12.662  0.00  0.00    +0.000 A 
ATOM     20  N   UNL     1      47.051   8.359  13.286  0.00  0.00    +0.000 NA
BRANCH  15  22
ATOM     21  N   UNL     1      49.709   6.839  14.765  0.00  0.00    +0.000 NA
ATOM     22  C   UNL     1      48.679   6.923  14.233  0.00  0.00    +0.000 C 
ENDBRANCH  15  22
ENDBRANCH  14  17
ENDBRANCH  13  14
ENDBRANCH   1  13
TORSDOF 6
ENDMDL
MODEL 7
REMARK VINA RESULT:    -5.862      2.543      7.012
REMARK INTER + INTRA:          -8.657
REMARK INTER:                  -8.170
REMARK INTRA:                  -0.488
REMARK UNBOUND:                -0.739
REMARK  Name = 
REMARK  6 active torsions:
REMARK  status: ('A' for Active; 'I' for Inactive)
REMARK    1  A    between atoms: C_2  and  C_3
REMARK    2  A    between atoms: C_5  and  C_6
REMARK    3  A    between atoms: C_6  and  C_7
REMARK    4  A    between atoms: C_7  and  O_8
REMARK    5  A    between atoms: O_8  and  C_9
REMARK    6  A    between atoms: C_12  and  C_13
REMARK                            x       y       z     vdW  Elec       q    Type
REMARK                         _______ _______ _______ _____ _____    ______ ____
ROOT
ATOM      1  O   UNL     1      46.779   5.704  12.275  0.00  0.00    +0.000 OA
ENDROOT
BRANCH   1   2
ATOM      2  C   UNL     1      47.128   5.145  13.475  0.00  0.00    +0.000 A 
ATOM      3  C   UNL     1      47.584   5.842  14.595  0.00  0.00    +0.000 A 
ATOM      4  C   UNL     1      47.894   5.151  15.764  0.00  0.00    +0.000 A 
ATOM      5  C   UNL     1      47.741   3.773  15.779  0.00  0.00    +0.000 A 
ATOM      6  N   UNL     1      47.307   3.050  14.711  0.00  0.00    +0.000 NA
ATOM      7  C   UNL     1      47.016   3.761  13.590  0.00  0.00    +0.000 A 
BRANCH   5   8
ATOM      8  C   UNL     1      48.058   3.023  17.037  0.00  0.00    +0.000 C 
ATOM      9  N   UNL     1      46.982   2.681  17.810  0.00  0.00    +0.000 N 
ATOM     10  O   UNL     1      49.201   2.732  17.362  0.00  0.00    +0.000 OA
ATOM     11  H   UNL     1      46.049   2.946  17.517  0.00  0.00    +0.000 HD
ATOM     12  H   UNL     1      47.133   2.188  18.677  0.00  0.00    +0.000 HD
ENDBRANCH   5   8
ENDBRANCH   1   2
BRANCH   1  13
ATOM     13  C   UNL     1      45.429   6.176  12.178  0.00  0.00    +0.000 C 
BRANCH  13  14
ATOM     14  C   UNL     1      45.021   6.286  10.709  0.00  0.00    +0.000 C 
BRANCH  14  17
ATOM     15  C   UNL     1      45.610   3.475   8.221  0.00  0.00    +0.000 A 
ATOM     16  C   UNL     1      45.643   4.740   8.801  0.00  0.00    +0.000 A 
ATOM     17  C   UNL     1      45.003   4.937  10.029  0.00  0.00    +0.000 A 
ATOM     18  C   UNL     1      44.370   3.845  10.630  0.00  0.00    +0.000 A 
ATOM     19  C   UNL     1      44.388   2.621   9.978  0.00  0.00    +0.000 A 
ATOM     20  N   UNL     1      44.992   2.411   8.790  0.00  0.00    +0.000 NA
BRANCH  15  22
ATOM     21  N   UNL     1      46.782   3.003   5.949  0.00  0.00    +0.000 NA
ATOM     22  C   UNL     1      46.242   3.232   6.953  0.00  0.00    +0.000 C 
ENDBRANCH  15  22
ENDBRANCH  14  17
ENDBRANCH  13  14
ENDBRANCH   1  13
TORSDOF 6
ENDMDL
MODEL 8
REMARK VINA RESULT:    -5.630      3.913      6.399
REMARK INTER + INTRA:          -8.344
REMARK INTER:                  -7.959
REMARK INTRA:                  -0.385
REMARK UNBOUND:                -0.739
REMARK  Name = 
REMARK  6 active torsions:
REMARK  status: ('A' for Active; 'I' for Inactive)
REMARK    1  A    between atoms: C_2  and  C_3
REMARK    2  A    between atoms: C_5  and  C_6
REMARK    3  A    between atoms: C_6  and  C_7
REMARK    4  A    between atoms: C_7  and  O_8
REMARK    5  A    between atoms: O_8  and  C_9
REMARK    6  A    between atoms: C_12  and  C_13
REMARK                            x       y       z     vdW  Elec       q    Type
REMARK                         _______ _______ _______ _____ _____    ______ ____
ROOT
ATOM      1  O   UNL     1      47.611   3.989  14.563  0.00  0.00    +0.000 OA
ENDROOT
BRANCH   1   2
ATOM      2  C   UNL     1      46.573   4.183  13.692  0.00  0.00    +0.000 A 
ATOM      3  C   UNL     1      45.980   3.198  12.902  0.00  0.00    +0.000 A 
ATOM      4  C   UNL     1      44.917   3.527  12.063  0.00  0.00    +0.000 A 
ATOM      5  C   UNL     1      44.476   4.841  12.037  0.00  0.00    +0.000 A 
ATOM      6  N   UNL     1      45.027   5.837  12.784  0.00  0.00    +0.000 NA
ATOM      7  C   UNL     1      46.062   5.475  13.588  0.00  0.00    +0.000 A 
BRANCH   5   8
ATOM      8  C   UNL     1      43.324   5.202  11.150  0.00  0.00    +0.000 C 
ATOM      9  N   UNL     1      42.372   6.008  11.712  0.00  0.00    +0.000 N 
ATOM     10  O   UNL     1      43.229   4.803   9.997  0.00  0.00    +0.000 OA
ATOM     11  H   UNL     1      42.477   6.312  12.673  0.00  0.00    +0.000 HD
ATOM     12  H   UNL     1      41.565   6.272  11.169  0.00  0.00    +0.000 HD
ENDBRANCH   5   8
ENDBRANCH   1   2
BRANCH   1  13
ATOM     13  C   UNL     1      47.307   4.193  15.948  0.00  0.00    +0.000 C 
BRANCH  13  14
ATOM     14  C   UNL     1      47.839   3.023  16.776  0.00  0.00    +0.000 C 
BRANCH  14  17
ATOM     15  C   UNL     1      51.474   2.368  17.668  0.00  0.00    +0.000 A 
ATOM     16  C   UNL     1      50.146   2.131  17.323  0.00  0.00    +0.000 A 
ATOM     17  C   UNL     1      49.285   3.222  17.164  0.00  0.00    +0.000 A 
ATOM     18  C   UNL     1      49.804   4.508  17.343  0.00  0.00    +0.000 A 
ATOM     19  C   UNL     1      51.140   4.647  17.686  0.00  0.00    +0.000 A 
ATOM     20  N   UNL     1      51.986   3.609  17.853  0.00  0.00    +0.000 NA
BRANCH  15  22
ATOM     21  N   UNL     1      53.099   0.363  17.982  0.00  0.00    +0.000 NA
ATOM     22  C   UNL     1      52.389   1.275  17.855  0.00  0.00    +0.000 C 
ENDBRANCH  15  22
ENDBRANCH  14  17
ENDBRANCH  13  14
ENDBRANCH   1  13
TORSDOF 6
ENDMDL
MODEL 9
REMARK VINA RESULT:    -5.590      3.093      4.905
REMARK INTER + INTRA:          -8.290
REMARK INTER:                  -7.897
REMARK INTRA:                  -0.394
REMARK UNBOUND:                -0.739
REMARK  Name = 
REMARK  6 active torsions:
REMARK  status: ('A' for Active; 'I' for Inactive)
REMARK    1  A    between atoms: C_2  and  C_3
REMARK    2  A    between atoms: C_5  and  C_6
REMARK    3  A    between atoms: C_6  and  C_7
REMARK    4  A    between atoms: C_7  and  O_8
REMARK    5  A    between atoms: O_8  and  C_9
REMARK    6  A    between atoms: C_12  and  C_13
REMARK                            x       y       z     vdW  Elec       q    Type
REMARK                         _______ _______ _______ _____ _____    ______ ____
ROOT
ATOM      1  O   UNL     1      46.868   7.148  13.054  0.00  0.00    +0.000 OA
ENDROOT
BRANCH   1   2
ATOM      2  C   UNL     1      46.162   6.134  12.463  0.00  0.00    +0.000 A 
ATOM      3  C   UNL     1      45.880   6.026  11.101  0.00  0.00    +0.000 A 
ATOM      4  C   UNL     1      45.161   4.933  10.625  0.00  0.00    +0.000 A 
ATOM      5  C   UNL     1      44.739   3.972  11.532  0.00  0.00    +0.000 A 
ATOM      6  N   UNL     1      44.984   4.037  12.869  0.00  0.00    +0.000 NA
ATOM      7  C   UNL     1      45.688   5.120  13.293  0.00  0.00    +0.000 A 
BRANCH   5   8
ATOM      8  C   UNL     1      43.978   2.784  11.028  0.00  0.00    +0.000 C 
ATOM      9  N   UNL     1      44.491   2.180   9.913  0.00  0.00    +0.000 N 
ATOM     10  O   UNL     1      42.960   2.374  11.569  0.00  0.00    +0.000 OA
ATOM     11  H   UNL     1      45.331   2.551   9.483  0.00  0.00    +0.000 HD
ATOM     12  H   UNL     1      44.014   1.385   9.517  0.00  0.00    +0.000 HD
ENDBRANCH   5   8
ENDBRANCH   1   2
BRANCH   1  13
ATOM     13  C   UNL     1      48.293   7.002  13.044  0.00  0.00    +0.000 C 
BRANCH  13  14
ATOM     14  C   UNL     1      48.896   7.687  14.270  0.00  0.00    +0.000 C 
BRANCH  14  17
ATOM     15  C   UNL     1      48.425   4.855  16.759  0.00  0.00    +0.000 A 
ATOM     16  C   UNL     1      48.167   5.737  15.714  0.00  0.00    +0.000 A 
ATOM     17  C   UNL     1      49.119   6.714  15.403  0.00  0.00    +0.000 A 
ATOM     18  C   UNL     1      50.300   6.749  16.150  0.00  0.00    +0.000 A 
ATOM     19  C   UNL     1      50.471   5.829  17.174  0.00  0.00    +0.000 A 
ATOM     20  N   UNL     1      49.562   4.884  17.495  0.00  0.00    +0.000 NA
BRANCH  15  22
ATOM     21  N   UNL     1      46.711   3.030  17.457  0.00  0.00    +0.000 NA
ATOM     22  C   UNL     1      47.467   3.845  17.120  0.00  0.00    +0.000 C 
ENDBRANCH  15  22
ENDBRANCH  14  17
ENDBRANCH  13  14
ENDBRANCH   1  13
TORSDOF 6
ENDMDL
