MODEL 1
REMARK VINA RESULT:    -7.783      0.000      0.000
REMARK INTER + INTRA:         -11.806
REMARK INTER:                 -10.968
REMARK INTRA:                  -0.839
REMARK UNBOUND:                -0.839
REMARK  Name = 
REMARK  8 active torsions:
REMARK  status: ('A' for Active; 'I' for Inactive)
REMARK    1  A    between atoms: C_1  and  N_2
REMARK    2  A    between atoms: C_4  and  C_5
REMARK    3  A    between atoms: N_7  and  C_8
REMARK    4  A    between atoms: C_8  and  C_9
REMARK    5  A    between atoms: C_12  and  C_13
REMARK    6  A    between atoms: C_13  and  O_14
REMARK    7  A    between atoms: O_14  and  C_15
REMARK    8  A    between atoms: C_15  and  C_16
REMARK                            x       y       z     vdW  Elec       q    Type
REMARK                         _______ _______ _______ _____ _____    ______ ____
ROOT
ATOM      1  C   UNL     1      46.872   8.149  13.154  0.00  0.00    +0.000 C 
ENDROOT
BRANCH   1   2
ATOM      2  C   UNL     1      46.033   7.167  12.379  0.00  0.00    +0.000 A 
ATOM      3  C   UNL     1      44.748   6.805  12.803  0.00  0.00    +0.000 A 
ATOM      4  C   UNL     1      44.021   5.830  12.110  0.00  0.00    +0.000 A 
ATOM      5  C   UNL     1      44.561   5.194  10.992  0.00  0.00    +0.000 A 
ATOM      6  C   UNL     1      45.830   5.586  10.540  0.00  0.00    +0.000 A 
ATOM      7  C   UNL     1      46.555   6.565  11.229  0.00  0.00    +0.000 A 
BRANCH   5   8
ATOM      8  C   UNL     1      43.801   4.066  10.343  0.00  0.00    +0.000 C 
BRANCH   8   9
ATOM      9  O   UNL     1      44.606   2.895  10.350  0.00  0.00    +0.000 OA
BRANCH   9  10
ATOM     10  C   UNL     1      44.435   2.130   9.154  0.00  0.00    +0.000 C 
BRANCH  10  11
ATOM     11  C   UNL     1      45.708   2.115   8.335  0.00  0.00    +0.000 A 
ATOM     12  N   UNL     1      46.304   0.926   8.128  0.00  0.00    +0.000 NA
ATOM     13  C   UNL     1      47.354   0.919   7.283  0.00  0.00    +0.000 A 
ATOM     14  C   UNL     1      47.817   2.042   6.639  0.00  0.00    +0.000 A 
ATOM     15  C   UNL     1      47.170   3.212   6.945  0.00  0.00    +0.000 A 
ATOM     16  N   UNL     1      46.115   3.281   7.781  0.00  0.00    +0.000 NA
ENDBRANCH  10  11
ENDBRANCH   9  10
ENDBRANCH   8   9
ENDBRANCH   5   8
ENDBRANCH   1   2
BRANCH   1  19
ATOM     17  C   UNL     1      48.492   6.829  14.429  0.00  0.00    +0.000 C 
ATOM     18  O   UNL     1      49.134   6.542  13.429  0.00  0.00    +0.000 OA
ATOM     19  N   UNL     1      47.361   7.613  14.399  0.00  0.00    +0.000 N 
ATOM     20  H   UNL     1      46.940   7.840  15.296  0.00  0.00    +0.000 HD
BRANCH  17  24
ATOM     21  C   UNL     1      50.621   6.622  18.806  0.00  0.00    +0.000 C 
ATOM     22  N   UNL     1      49.777   6.244  17.697  0.00  0.00    +0.000 N 
ATOM     23  N   UNL     1      49.763   6.987  16.566  0.00  0.00    +0.000 NA
ATOM     24  C   UNL     1      48.865   6.359  15.780  0.00  0.00    +0.000 A 
ATOM     25  C   UNL     1      48.330   5.203  16.419  0.00  0.00    +0.000 A 
ATOM     26  C   UNL     1      47.403   4.215  16.079  0.00  0.00    +0.000 A 
ATOM     27  N   UNL     1      47.115   3.221  16.955  0.00  0.00    +0.000 NA
ATOM     28  C   UNL     1      47.735   3.210  18.156  0.00  0.00    +0.000 A 
ATOM     29  C   UNL     1      48.664   4.146  18.584  0.00  0.00    +0.000 A 
ATOM     30  C   UNL     1      48.944   5.157  17.664  0.00  0.00    +0.000 A 
ENDBRANCH  17  24
ENDBRANCH   1  19
TORSDOF 7
ENDMDL
MODEL 2
REMARK VINA RESULT:    -7.487      2.275      3.205
REMARK INTER + INTRA:         -11.389
REMARK INTER:                 -10.578
REMARK INTRA:                  -0.811
REMARK UNBOUND:                -0.839
REMARK  Name = 
REMARK  8 active torsions:
REMARK  status: ('A' for Active; 'I' for Inactive)
REMARK    1  A    between atoms: C_1  and  N_2
REMARK    2  A    between atoms: C_4  and  C_5
REMARK    3  A    between atoms: N_7  and  C_8
REMARK    4  A    between atoms: C_8  and  C_9
REMARK    5  A    between atoms: C_12  and  C_13
REMARK    6  A    between atoms: C_13  and  O_14
REMARK    7  A    between atoms: O_14  and  C_15
REMARK    8  A    between atoms: C_15  and  C_16
REMARK                            x       y       z     vdW  Elec       q    Type
REMARK                         _______ _______ _______ _____ _____    ______ ____
ROOT
ATOM      1  C   UNL     1      48.356   6.592  13.704  0.00  0.00    +0.000 C 
ENDROOT
BRANCH   1   2
ATOM      2  C   UNL     1      47.210   6.026  12.908  0.00  0.00    +0.000 A 
ATOM      3  C   UNL     1      46.886   6.519  11.637  0.00  0.00    +0.000 A 
ATOM      4  C   UNL     1      45.767   6.032  10.951  0.00  0.00    +0.000 A 
ATOM      5  C   UNL     1      44.949   5.055  11.519  0.00  0.00    +0.000 A 
ATOM      6  C   UNL     1      45.297   4.528  12.772  0.00  0.00    +0.000 A 
ATOM      7  C   UNL     1      46.419   5.011  13.455  0.00  0.00    +0.000 A 
BRANCH   5   8
ATOM      8  C   UNL     1      43.688   4.640  10.806  0.00  0.00    +0.000 C 
BRANCH   8   9
ATOM      9  O   UNL     1      44.023   4.137   9.520  0.00  0.00    +0.000 OA
BRANCH   9  10
ATOM     10  C   UNL     1      44.421   2.764   9.576  0.00  0.00    +0.000 C 
BRANCH  10  11
ATOM     11  C   UNL     1      45.485   2.465   8.542  0.00  0.00    +0.000 A 
ATOM     12  N   UNL     1      46.006   3.506   7.865  0.00  0.00    +0.000 NA
ATOM     13  C   UNL     1      47.046   3.233   7.052  0.00  0.00    +0.000 A 
ATOM     14  C   UNL     1      47.581   1.976   6.901  0.00  0.00    +0.000 A 
ATOM     15  C   UNL     1      46.956   0.975   7.601  0.00  0.00    +0.000 A 
ATOM     16  N   UNL     1      45.914   1.187   8.428  0.00  0.00    +0.000 NA
ENDBRANCH  10  11
ENDBRANCH   9  10
ENDBRANCH   8   9
ENDBRANCH   5   8
ENDBRANCH   1   2
BRANCH   1  19
ATOM     17  C   UNL     1      48.932   6.684  16.082  0.00  0.00    +0.000 C 
ATOM     18  O   UNL     1      50.074   6.293  15.881  0.00  0.00    +0.000 OA
ATOM     19  N   UNL     1      48.008   6.861  15.077  0.00  0.00    +0.000 N 
ATOM     20  H   UNL     1      47.110   7.250  15.348  0.00  0.00    +0.000 HD
BRANCH  17  24
ATOM     21  C   UNL     1      47.481   6.146  20.702  0.00  0.00    +0.000 C 
ATOM     22  N   UNL     1      47.788   6.800  19.451  0.00  0.00    +0.000 N 
ATOM     23  N   UNL     1      48.225   6.079  18.393  0.00  0.00    +0.000 NA
ATOM     24  C   UNL     1      48.424   7.005  17.432  0.00  0.00    +0.000 A 
ATOM     25  C   UNL     1      48.090   8.311  17.891  0.00  0.00    +0.000 A 
ATOM     26  C   UNL     1      48.098   9.594  17.337  0.00  0.00    +0.000 A 
ATOM     27  N   UNL     1      47.702  10.658  18.078  0.00  0.00    +0.000 NA
ATOM     28  C   UNL     1      47.308  10.453  19.355  0.00  0.00    +0.000 A 
ATOM     29  C   UNL     1      47.269   9.222  19.991  0.00  0.00    +0.000 A 
ATOM     30  C   UNL     1      47.679   8.144  19.207  0.00  0.00    +0.000 A 
ENDBRANCH  17  24
ENDBRANCH   1  19
TORSDOF 7
ENDMDL
MODEL 3
REMARK VINA RESULT:    -7.170      3.132      5.573
REMARK INTER + INTRA:         -10.942
REMARK INTER:                 -10.502
REMARK INTRA:                  -0.440
REMARK UNBOUND:                -0.839
REMARK  Name = 
REMARK  8 active torsions:
REMARK  status: ('A' for Active; 'I' for Inactive)
REMARK    1  A    between atoms: C_1  and  N_2
REMARK    2  A    between atoms: C_4  and  C_5
REMARK    3  A    between atoms: N_7  and  C_8
REMARK    4  A    between atoms: C_8  and  C_9
REMARK    5  A    between atoms: C_12  and  C_13
REMARK    6  A    between atoms: C_13  and  O_14
REMARK    7  A    between atoms: O_14  and  C_15
REMARK    8  A    between atoms: C_15  and  C_16
REMARK                            x       y       z     vdW  Elec       q    Type
REMARK                         _______ _______ _______ _____ _____    ______ ____
ROOT
ATOM      1  C   UNL     1      44.585   3.389  10.125  0.00  0.00    +0.000 C 
ENDROOT
BRANCH   1   2
ATOM      2  C   UNL     1      45.355   2.840   8.954  0.00  0.00    +0.000 A 
ATOM      3  C   UNL     1      45.533   1.462   8.773  0.00  0.00    +0.000 A 
ATOM      4  C   UNL     1      46.320   0.980   7.721  0.00  0.00    +0.000 A 
ATOM      5  C   UNL     1      46.950   1.858   6.838  0.00  0.00    +0.000 A 
ATOM      6  C   UNL     1      46.738   3.236   6.990  0.00  0.00    +0.000 A 
ATOM      7  C   UNL     1      45.946   3.718   8.038  0.00  0.00    +0.000 A 
BRANCH   5   8
ATOM      8  C   UNL     1      47.885   1.309   5.791  0.00  0.00    +0.000 C 
BRANCH   8   9
ATOM      9  O   UNL     1      47.564   1.883   4.531  0.00  0.00    +0.000 OA
BRANCH   9  10
ATOM     10  C   UNL     1      46.453   1.224   3.917  0.00  0.00    +0.000 C 
BRANCH  10  11
ATOM     11  C   UNL     1      46.850  -0.147   3.412  0.00  0.00    +0.000 A 
ATOM     12  N   UNL     1      47.707  -0.207   2.376  0.00  0.00    +0.000 NA
ATOM     13  C   UNL     1      48.152  -1.432   2.035  0.00  0.00    +0.000 A 
ATOM     14  C   UNL     1      47.783  -2.583   2.690  0.00  0.00    +0.000 A 
ATOM     15  C   UNL     1      46.876  -2.424   3.707  0.00  0.00    +0.000 A 
ATOM     16  N   UNL     1      46.396  -1.226   4.092  0.00  0.00    +0.000 NA
ENDBRANCH  10  11
ENDBRANCH   9  10
ENDBRANCH   8   9
ENDBRANCH   5   8
ENDBRANCH   1   2
BRANCH   1  19
ATOM     17  C   UNL     1      45.087   3.939  12.458  0.00  0.00    +0.000 C 
ATOM     18  O   UNL     1      44.065   3.406  12.865  0.00  0.00    +0.000 OA
ATOM     19  N   UNL     1      45.434   3.986  11.126  0.00  0.00    +0.000 N 
ATOM     20  H   UNL     1      46.336   4.398  10.904  0.00  0.00    +0.000 HD
BRANCH  17  24
ATOM     21  C   UNL     1      47.944   4.786  16.312  0.00  0.00    +0.000 C 
ATOM     22  N   UNL     1      47.319   4.987  15.026  0.00  0.00    +0.000 N 
ATOM     23  N   UNL     1      46.400   4.104  14.569  0.00  0.00    +0.000 NA
ATOM     24  C   UNL     1      46.060   4.593  13.358  0.00  0.00    +0.000 A 
ATOM     25  C   UNL     1      46.758   5.800  13.068  0.00  0.00    +0.000 A 
ATOM     26  C   UNL     1      46.790   6.702  12.001  0.00  0.00    +0.000 A 
ATOM     27  N   UNL     1      47.598   7.789  12.052  0.00  0.00    +0.000 NA
ATOM     28  C   UNL     1      48.370   7.978  13.146  0.00  0.00    +0.000 A 
ATOM     29  C   UNL     1      48.410   7.139  14.249  0.00  0.00    +0.000 A 
ATOM     30  C   UNL     1      47.568   6.029  14.172  0.00  0.00    +0.000 A 
ENDBRANCH  17  24
ENDBRANCH   1  19
TORSDOF 7
ENDMDL
MODEL 4
REMARK VINA RESULT:    -7.053      3.368      6.060
REMARK INTER + INTRA:         -10.778
REMARK INTER:                 -10.132
REMARK INTRA:                  -0.646
REMARK UNBOUND:                -0.839
REMARK  Name = 
REMARK  8 active torsions:
REMARK  status: ('A' for Active; 'I' for Inactive)
REMARK    1  A    between atoms: C_1  and  N_2
REMARK    2  A    between atoms: C_4  and  C_5
REMARK    3  A    between atoms: N_7  and  C_8
REMARK    4  A    between atoms: C_8  and  C_9
REMARK    5  A    between atoms: C_12  and  C_13
REMARK    6  A    between atoms: C_13  and  O_14
REMARK    7  A    between atoms: O_14  and  C_15
REMARK    8  A    between atoms: C_15  and  C_16
REMARK                            x       y       z     vdW  Elec       q    Type
REMARK                         _______ _______ _______ _____ _____    ______ ____
ROOT
ATOM      1  C   UNL     1      44.548   3.995   9.720  0.00  0.00    +0.000 C 
ENDROOT
BRANCH   1   2
ATOM      2  C   UNL     1      45.453   3.402   8.674  0.00  0.00    +0.000 A 
ATOM      3  C   UNL     1      46.005   4.185   7.652  0.00  0.00    +0.000 A 
ATOM      4  C   UNL     1      46.778   3.596   6.645  0.00  0.00    +0.000 A 
ATOM      5  C   UNL     1      47.009   2.220   6.632  0.00  0.00    +0.000 A 
ATOM      6  C   UNL     1      46.495   1.440   7.678  0.00  0.00    +0.000 A 
ATOM      7  C   UNL     1      45.726   2.029   8.689  0.00  0.00    +0.000 A 
BRANCH   5   8
ATOM      8  C   UNL     1      47.744   1.604   5.470  0.00  0.00    +0.000 C 
BRANCH   8   9
ATOM      9  O   UNL     1      47.226   0.303   5.226  0.00  0.00    +0.000 OA
BRANCH   9  10
ATOM     10  C   UNL     1      46.582   0.221   3.951  0.00  0.00    +0.000 C 
BRANCH  10  11
ATOM     11  C   UNL     1      46.920  -1.082   3.258  0.00  0.00    +0.000 A 
ATOM     12  N   UNL     1      48.079  -1.144   2.576  0.00  0.00    +0.000 NA
ATOM     13  C   UNL     1      48.423  -2.351   2.086  0.00  0.00    +0.000 A 
ATOM     14  C   UNL     1      47.666  -3.485   2.260  0.00  0.00    +0.000 A 
ATOM     15  C   UNL     1      46.484  -3.313   2.935  0.00  0.00    +0.000 A 
ATOM     16  N   UNL     1      46.087  -2.132   3.447  0.00  0.00    +0.000 NA
ENDBRANCH  10  11
ENDBRANCH   9  10
ENDBRANCH   8   9
ENDBRANCH   5   8
ENDBRANCH   1   2
BRANCH   1  19
ATOM     17  C   UNL     1      45.058   5.434  11.635  0.00  0.00    +0.000 C 
ATOM     18  O   UNL     1      44.634   4.615  12.438  0.00  0.00    +0.000 OA
ATOM     19  N   UNL     1      45.057   5.225  10.274  0.00  0.00    +0.000 N 
ATOM     20  H   UNL     1      45.490   5.944   9.702  0.00  0.00    +0.000 HD
BRANCH  17  24
ATOM     21  C   UNL     1      45.657  10.249  12.068  0.00  0.00    +0.000 C 
ATOM     22  N   UNL     1      45.898   8.837  12.253  0.00  0.00    +0.000 N 
ATOM     23  N   UNL     1      45.119   7.924  11.628  0.00  0.00    +0.000 NA
ATOM     24  C   UNL     1      45.614   6.740  12.044  0.00  0.00    +0.000 A 
ATOM     25  C   UNL     1      46.722   6.918  12.921  0.00  0.00    +0.000 A 
ATOM     26  C   UNL     1      47.587   6.071  13.619  0.00  0.00    +0.000 A 
ATOM     27  N   UNL     1      48.571   6.591  14.393  0.00  0.00    +0.000 NA
ATOM     28  C   UNL     1      48.695   7.934  14.478  0.00  0.00    +0.000 A 
ATOM     29  C   UNL     1      47.885   8.853  13.827  0.00  0.00    +0.000 A 
ATOM     30  C   UNL     1      46.882   8.293  13.037  0.00  0.00    +0.000 A 
ENDBRANCH  17  24
ENDBRANCH   1  19
TORSDOF 7
ENDMDL
MODEL 5
REMARK VINA RESULT:    -6.984      2.337      8.075
REMARK INTER + INTRA:         -10.681
REMARK INTER:                  -9.445
REMARK INTRA:                  -1.236
REMARK UNBOUND:                -0.839
REMARK  Name = 
REMARK  8 active torsions:
REMARK  status: ('A' for Active; 'I' for Inactive)
REMARK    1  A    between atoms: C_1  and  N_2
REMARK    2  A    between atoms: C_4  and  C_5
REMARK    3  A    between atoms: N_7  and  C_8
REMARK    4  A    between atoms: C_8  and  C_9
REMARK    5  A    between atoms: C_12  and  C_13
REMARK    6  A    between atoms: C_13  and  O_14
REMARK    7  A    between atoms: O_14  and  C_15
REMARK    8  A    between atoms: C_15  and  C_16
REMARK                            x       y       z     vdW  Elec       q    Type
REMARK                         _______ _______ _______ _____ _____    ______ ____
ROOT
ATOM      1  C   UNL     1      48.143   8.374  12.439  0.00  0.00    +0.000 C 
ENDROOT
BRANCH   1   2
ATOM      2  C   UNL     1      48.320   8.170  13.920  0.00  0.00    +0.000 A 
ATOM      3  C   UNL     1      48.183   9.229  14.828  0.00  0.00    +0.000 A 
ATOM      4  C   UNL     1      48.432   9.031  16.191  0.00  0.00    +0.000 A 
ATOM      5  C   UNL     1      48.827   7.782  16.673  0.00  0.00    +0.000 A 
ATOM      6  C   UNL     1      48.922   6.711  15.773  0.00  0.00    +0.000 A 
ATOM      7  C   UNL     1      48.668   6.907  14.411  0.00  0.00    +0.000 A 
BRANCH   5   8
ATOM      8  C   UNL     1      49.201   7.635  18.125  0.00  0.00    +0.000 C 
BRANCH   8   9
ATOM      9  O   UNL     1      48.049   7.263  18.869  0.00  0.00    +0.000 OA
BRANCH   9  10
ATOM     10  C   UNL     1      48.267   6.064  19.618  0.00  0.00    +0.000 C 
BRANCH  10  11
ATOM     11  C   UNL     1      48.202   4.846  18.721  0.00  0.00    +0.000 A 
ATOM     12  N   UNL     1      47.060   4.632  18.041  0.00  0.00    +0.000 NA
ATOM     13  C   UNL     1      47.074   3.625  17.146  0.00  0.00    +0.000 A 
ATOM     14  C   UNL     1      48.176   2.841  16.904  0.00  0.00    +0.000 A 
ATOM     15  C   UNL     1      49.279   3.111  17.674  0.00  0.00    +0.000 A 
ATOM     16  N   UNL     1      49.325   4.104  18.583  0.00  0.00    +0.000 NA
ENDBRANCH  10  11
ENDBRANCH   9  10
ENDBRANCH   8   9
ENDBRANCH   5   8
ENDBRANCH   1   2
BRANCH   1  19
ATOM     17  C   UNL     1      46.134   7.173  11.720  0.00  0.00    +0.000 C 
ATOM     18  O   UNL     1      45.388   8.017  12.196  0.00  0.00    +0.000 OA
ATOM     19  N   UNL     1      47.507   7.256  11.789  0.00  0.00    +0.000 N 
ATOM     20  H   UNL     1      48.031   6.533  11.306  0.00  0.00    +0.000 HD
BRANCH  17  24
ATOM     21  C   UNL     1      45.323   3.896   8.208  0.00  0.00    +0.000 C 
ATOM     22  N   UNL     1      45.268   4.522   9.508  0.00  0.00    +0.000 N 
ATOM     23  N   UNL     1      45.874   5.713   9.718  0.00  0.00    +0.000 NA
ATOM     24  C   UNL     1      45.637   5.970  11.021  0.00  0.00    +0.000 A 
ATOM     25  C   UNL     1      44.859   4.938  11.622  0.00  0.00    +0.000 A 
ATOM     26  C   UNL     1      44.336   4.698  12.895  0.00  0.00    +0.000 A 
ATOM     27  N   UNL     1      43.616   3.574  13.133  0.00  0.00    +0.000 NA
ATOM     28  C   UNL     1      43.419   2.698  12.123  0.00  0.00    +0.000 A 
ATOM     29  C   UNL     1      43.900   2.848  10.831  0.00  0.00    +0.000 A 
ATOM     30  C   UNL     1      44.636   4.012  10.612  0.00  0.00    +0.000 A 
ENDBRANCH  17  24
ENDBRANCH   1  19
TORSDOF 7
ENDMDL
MODEL 6
REMARK VINA RESULT:    -6.879      2.262      8.442
REMARK INTER + INTRA:         -10.533
REMARK INTER:                  -9.503
REMARK INTRA:                  -1.030
REMARK UNBOUND:                -0.839
REMARK  Name = 
REMARK  8 active torsions:
REMARK  status: ('A' for Active; 'I' for Inactive)
REMARK    1  A    between atoms: C_1  and  N_2
REMARK    2  A    between atoms: C_4  and  C_5
REMARK    3  A    between atoms: N_7  and  C_8
REMARK    4  A    between atoms: C_8  and  C_9
REMARK    5  A    between atoms: C_12  and  C_13
REMARK    6  A    between atoms: C_13  and  O_14
REMARK    7  A    between atoms: O_14  and  C_15
REMARK    8  A    between atoms: C_15  and  C_16
REMARK                            x       y       z     vdW  Elec       q    Type
REMARK                         _______ _______ _______ _____ _____    ______ ____
ROOT
ATOM      1  C   UNL     1      48.085   7.755  12.169  0.00  0.00    +0.000 C 
ENDROOT
BRANCH   1   2
ATOM      2  C   UNL     1      48.849   7.541  13.449  0.00  0.00    +0.000 A 
ATOM      3  C   UNL     1      50.157   8.015  13.611  0.00  0.00    +0.000 A 
ATOM      4  C   UNL     1      50.874   7.734  14.779  0.00  0.00    +0.000 A 
ATOM      5  C   UNL     1      50.307   6.972  15.801  0.00  0.00    +0.000 A 
ATOM      6  C   UNL     1      48.982   6.534  15.661  0.00  0.00    +0.000 A 
ATOM      7  C   UNL     1      48.262   6.820  14.495  0.00  0.00    +0.000 A 
BRANCH   5   8
ATOM      8  C   UNL     1      51.148   6.588  16.991  0.00  0.00    +0.000 C 
BRANCH   8   9
ATOM      9  O   UNL     1      51.790   5.348  16.729  0.00  0.00    +0.000 OA
BRANCH   9  10
ATOM     10  C   UNL     1      51.601   4.418  17.799  0.00  0.00    +0.000 C 
BRANCH  10  11
ATOM     11  C   UNL     1      50.210   3.820  17.756  0.00  0.00    +0.000 A 
ATOM     12  N   UNL     1      49.308   4.276  18.646  0.00  0.00    +0.000 NA
ATOM     13  C   UNL     1      48.044   3.832  18.499  0.00  0.00    +0.000 A 
ATOM     14  C   UNL     1      47.653   2.969  17.503  0.00  0.00    +0.000 A 
ATOM     15  C   UNL     1      48.652   2.531  16.670  0.00  0.00    +0.000 A 
ATOM     16  N   UNL     1      49.932   2.939  16.768  0.00  0.00    +0.000 NA
ENDBRANCH  10  11
ENDBRANCH   9  10
ENDBRANCH   8   9
ENDBRANCH   5   8
ENDBRANCH   1   2
BRANCH   1  19
ATOM     17  C   UNL     1      45.951   6.684  11.627  0.00  0.00    +0.000 C 
ATOM     18  O   UNL     1      45.318   7.711  11.825  0.00  0.00    +0.000 OA
ATOM     19  N   UNL     1      47.318   6.601  11.772  0.00  0.00    +0.000 N 
ATOM     20  H   UNL     1      47.750   5.716  11.521  0.00  0.00    +0.000 HD
BRANCH  17  24
ATOM     21  C   UNL     1      43.275   2.615  11.778  0.00  0.00    +0.000 C 
ATOM     22  N   UNL     1      44.148   3.638  11.250  0.00  0.00    +0.000 N 
ATOM     23  N   UNL     1      44.538   4.672  12.030  0.00  0.00    +0.000 NA
ATOM     24  C   UNL     1      45.310   5.418  11.214  0.00  0.00    +0.000 A 
ATOM     25  C   UNL     1      45.417   4.833   9.919  0.00  0.00    +0.000 A 
ATOM     26  C   UNL     1      46.068   5.162   8.728  0.00  0.00    +0.000 A 
ATOM     27  N   UNL     1      45.954   4.354   7.645  0.00  0.00    +0.000 NA
ATOM     28  C   UNL     1      45.201   3.236   7.740  0.00  0.00    +0.000 A 
ATOM     29  C   UNL     1      44.516   2.830   8.875  0.00  0.00    +0.000 A 
ATOM     30  C   UNL     1      44.650   3.676   9.975  0.00  0.00    +0.000 A 
ENDBRANCH  17  24
ENDBRANCH   1  19
TORSDOF 7
ENDMDL
MODEL 7
REMARK VINA RESULT:    -6.876      2.472      4.722
REMARK INTER + INTRA:         -10.529
REMARK INTER:                  -9.655
REMARK INTRA:                  -0.873
REMARK UNBOUND:                -0.839
REMARK  Name = 
REMARK  8 active torsions:
REMARK  status: ('A' for Active; 'I' for Inactive)
REMARK    1  A    between atoms: C_1  and  N_2
REMARK    2  A    between atoms: C_4  and  C_5
REMARK    3  A    between atoms: N_7  and  C_8
REMARK    4  A    between atoms: C_8  and  C_9
REMARK    5  A    between atoms: C_12  and  C_13
REMARK    6  A    between atoms: C_13  and  O_14
REMARK    7  A    between atoms: O_14  and  C_15
REMARK    8  A    between atoms: C_15  and  C_16
REMARK                            x       y       z     vdW  Elec       q    Type
REMARK                         _______ _______ _______ _____ _____    ______ ____
ROOT
ATOM      1  C   UNL     1      47.615   5.730  14.512  0.00  0.00    +0.000 C 
ENDROOT
BRANCH   1   2
ATOM      2  C   UNL     1      46.545   5.120  13.645  0.00  0.00    +0.000 A 
ATOM      3  C   UNL     1      45.425   5.856  13.236  0.00  0.00    +0.000 A 
ATOM      4  C   UNL     1      44.406   5.243  12.498  0.00  0.00    +0.000 A 
ATOM      5  C   UNL     1      44.479   3.891  12.162  0.00  0.00    +0.000 A 
ATOM      6  C   UNL     1      45.620   3.164  12.531  0.00  0.00    +0.000 A 
ATOM      7  C   UNL     1      46.642   3.777  13.265  0.00  0.00    +0.000 A 
BRANCH   5   8
ATOM      8  C   UNL     1      43.310   3.237  11.471  0.00  0.00    +0.000 C 
BRANCH   8   9
ATOM      9  O   UNL     1      43.746   2.690  10.233  0.00  0.00    +0.000 OA
BRANCH   9  10
ATOM     10  C   UNL     1      44.244   3.702   9.354  0.00  0.00    +0.000 C 
BRANCH  10  11
ATOM     11  C   UNL     1      45.379   3.170   8.506  0.00  0.00    +0.000 A 
ATOM     12  N   UNL     1      45.730   1.881   8.670  0.00  0.00    +0.000 NA
ATOM     13  C   UNL     1      46.645   1.393   7.810  0.00  0.00    +0.000 A 
ATOM     14  C   UNL     1      47.207   2.135   6.798  0.00  0.00    +0.000 A 
ATOM     15  C   UNL     1      46.815   3.448   6.736  0.00  0.00    +0.000 A 
ATOM     16  N   UNL     1      45.905   3.991   7.568  0.00  0.00    +0.000 NA
ENDBRANCH  10  11
ENDBRANCH   9  10
ENDBRANCH   8   9
ENDBRANCH   5   8
ENDBRANCH   1   2
BRANCH   1  19
ATOM     17  C   UNL     1      48.646   7.576  13.278  0.00  0.00    +0.000 C 
ATOM     18  O   UNL     1      49.281   6.818  12.559  0.00  0.00    +0.000 OA
ATOM     19  N   UNL     1      47.799   7.139  14.272  0.00  0.00    +0.000 N 
ATOM     20  H   UNL     1      47.273   7.853  14.768  0.00  0.00    +0.000 HD
BRANCH  17  24
ATOM     21  C   UNL     1      50.380  12.125  13.467  0.00  0.00    +0.000 C 
ATOM     22  N   UNL     1      49.456  11.042  13.224  0.00  0.00    +0.000 N 
ATOM     23  N   UNL     1      49.799   9.770  13.530  0.00  0.00    +0.000 NA
ATOM     24  C   UNL     1      48.724   9.047  13.155  0.00  0.00    +0.000 A 
ATOM     25  C   UNL     1      47.695   9.879  12.628  0.00  0.00    +0.000 A 
ATOM     26  C   UNL     1      46.412   9.673  12.113  0.00  0.00    +0.000 A 
ATOM     27  N   UNL     1      45.674  10.726  11.684  0.00  0.00    +0.000 NA
ATOM     28  C   UNL     1      46.202  11.968  11.759  0.00  0.00    +0.000 A 
ATOM     29  C   UNL     1      47.463  12.271  12.250  0.00  0.00    +0.000 A 
ATOM     30  C   UNL     1      48.201  11.171  12.687  0.00  0.00    +0.000 A 
ENDBRANCH  17  24
ENDBRANCH   1  19
TORSDOF 7
ENDMDL
MODEL 8
REMARK VINA RESULT:    -6.837      4.810      9.419
REMARK INTER + INTRA:         -10.474
REMARK INTER:                  -9.793
REMARK INTRA:                  -0.681
REMARK UNBOUND:                -0.839
REMARK  Name = 
REMARK  8 active torsions:
REMARK  status: ('A' for Active; 'I' for Inactive)
REMARK    1  A    between atoms: C_1  and  N_2
REMARK    2  A    between atoms: C_4  and  C_5
REMARK    3  A    between atoms: N_7  and  C_8
REMARK    4  A    between atoms: C_8  and  C_9
REMARK    5  A    between atoms: C_12  and  C_13
REMARK    6  A    between atoms: C_13  and  O_14
REMARK    7  A    between atoms: O_14  and  C_15
REMARK    8  A    between atoms: C_15  and  C_16
REMARK                            x       y       z     vdW  Elec       q    Type
REMARK                         _______ _______ _______ _____ _____    ______ ____
ROOT
ATOM      1  C   UNL     1      47.308   3.379  16.901  0.00  0.00    +0.000 C 
ENDROOT
BRANCH   1   2
ATOM      2  C   UNL     1      48.796   3.326  17.122  0.00  0.00    +0.000 A 
ATOM      3  C   UNL     1      49.510   2.125  17.023  0.00  0.00    +0.000 A 
ATOM      4  C   UNL     1      50.879   2.088  17.313  0.00  0.00    +0.000 A 
ATOM      5  C   UNL     1      51.558   3.240  17.712  0.00  0.00    +0.000 A 
ATOM      6  C   UNL     1      50.855   4.452  17.769  0.00  0.00    +0.000 A 
ATOM      7  C   UNL     1      49.487   4.491  17.474  0.00  0.00    +0.000 A 
BRANCH   5   8
ATOM      8  C   UNL     1      53.002   3.139  18.130  0.00  0.00    +0.000 C 
BRANCH   8   9
ATOM      9  O   UNL     1      53.212   1.898  18.789  0.00  0.00    +0.000 OA
BRANCH   9  10
ATOM     10  C   UNL     1      54.596   1.535  18.806  0.00  0.00    +0.000 C 
BRANCH  10  11
ATOM     11  C   UNL     1      54.766   0.044  18.603  0.00  0.00    +0.000 A 
ATOM     12  N   UNL     1      54.603  -0.754  19.675  0.00  0.00    +0.000 NA
ATOM     13  C   UNL     1      54.621  -2.081  19.444  0.00  0.00    +0.000 A 
ATOM     14  C   UNL     1      54.785  -2.631  18.195  0.00  0.00    +0.000 A 
ATOM     15  C   UNL     1      54.983  -1.738  17.173  0.00  0.00    +0.000 A 
ATOM     16  N   UNL     1      54.975  -0.402  17.343  0.00  0.00    +0.000 NA
ENDBRANCH  10  11
ENDBRANCH   9  10
ENDBRANCH   8   9
ENDBRANCH   5   8
ENDBRANCH   1   2
BRANCH   1  19
ATOM     17  C   UNL     1      46.934   4.119  14.597  0.00  0.00    +0.000 C 
ATOM     18  O   UNL     1      47.277   3.041  14.133  0.00  0.00    +0.000 OA
ATOM     19  N   UNL     1      46.916   4.387  15.947  0.00  0.00    +0.000 N 
ATOM     20  H   UNL     1      46.554   5.294  16.227  0.00  0.00    +0.000 HD
BRANCH  17  24
ATOM     21  C   UNL     1      46.978   8.386  12.246  0.00  0.00    +0.000 C 
ATOM     22  N   UNL     1      46.496   7.107  12.712  0.00  0.00    +0.000 N 
ATOM     23  N   UNL     1      47.246   6.360  13.554  0.00  0.00    +0.000 NA
ATOM     24  C   UNL     1      46.503   5.252  13.751  0.00  0.00    +0.000 A 
ATOM     25  C   UNL     1      45.270   5.318  13.040  0.00  0.00    +0.000 A 
ATOM     26  C   UNL     1      44.159   4.484  12.891  0.00  0.00    +0.000 A 
ATOM     27  N   UNL     1      43.119   4.868  12.111  0.00  0.00    +0.000 NA
ATOM     28  C   UNL     1      43.182   6.063  11.482  0.00  0.00    +0.000 A 
ATOM     29  C   UNL     1      44.240   6.955  11.565  0.00  0.00    +0.000 A 
ATOM     30  C   UNL     1      45.296   6.537  12.375  0.00  0.00    +0.000 A 
ENDBRANCH  17  24
ENDBRANCH   1  19
TORSDOF 7
ENDMDL
MODEL 9
REMARK VINA RESULT:    -6.558      1.747      2.502
REMARK INTER + INTRA:         -10.080
REMARK INTER:                  -9.378
REMARK INTRA:                  -0.702
REMARK UNBOUND:                -0.839
REMARK  Name = 
REMARK  8 active torsions:
REMARK  status: ('A' for Active; 'I' for Inactive)
REMARK    1  A    between atoms: C_1  and  N_2
REMARK    2  A    between atoms: C_4  and  C_5
REMARK    3  A    between atoms: N_7  and  C_8
REMARK    4  A    between atoms: C_8  and  C_9
REMARK    5  A    between atoms: C_12  and  C_13
REMARK    6  A    between atoms: C_13  and  O_14
REMARK    7  A    between atoms: O_14  and  C_15
REMARK    8  A    between atoms: C_15  and  C_16
REMARK                            x       y       z     vdW  Elec       q    Type
REMARK                         _______ _______ _______ _____ _____    ______ ____
ROOT
ATOM      1  C   UNL     1      48.346   7.025  14.042  0.00  0.00    +0.000 C 
ENDROOT
BRANCH   1   2
ATOM      2  C   UNL     1      47.352   6.186  13.284  0.00  0.00    +0.000 A 
ATOM      3  C   UNL     1      46.843   6.592  12.043  0.00  0.00    +0.000 A 
ATOM      4  C   UNL     1      45.860   5.834  11.397  0.00  0.00    +0.000 A 
ATOM      5  C   UNL     1      45.361   4.666  11.975  0.00  0.00    +0.000 A 
ATOM      6  C   UNL     1      45.900   4.234  13.195  0.00  0.00    +0.000 A 
ATOM      7  C   UNL     1      46.888   4.988  13.839  0.00  0.00    +0.000 A 
BRANCH   5   8
ATOM      8  C   UNL     1      44.220   3.941  11.310  0.00  0.00    +0.000 C 
BRANCH   8   9
ATOM      9  O   UNL     1      44.723   2.790  10.644  0.00  0.00    +0.000 OA
BRANCH   9  10
ATOM     10  C   UNL     1      44.411   2.808   9.248  0.00  0.00    +0.000 C 
BRANCH  10  11
ATOM     11  C   UNL     1      45.622   2.440   8.418  0.00  0.00    +0.000 A 
ATOM     12  N   UNL     1      45.981   1.143   8.378  0.00  0.00    +0.000 NA
ATOM     13  C   UNL     1      46.973   0.821   7.525  0.00  0.00    +0.000 A 
ATOM     14  C   UNL     1      47.605   1.735   6.716  0.00  0.00    +0.000 A 
ATOM     15  C   UNL     1      47.196   3.037   6.858  0.00  0.00    +0.000 A 
ATOM     16  N   UNL     1      46.210   3.419   7.692  0.00  0.00    +0.000 NA
ENDBRANCH  10  11
ENDBRANCH   9  10
ENDBRANCH   8   9
ENDBRANCH   5   8
ENDBRANCH   1   2
BRANCH   1  19
ATOM     17  C   UNL     1      48.866   7.375  16.408  0.00  0.00    +0.000 C 
ATOM     18  O   UNL     1      48.867   8.592  16.289  0.00  0.00    +0.000 OA
ATOM     19  N   UNL     1      48.623   6.515  15.361  0.00  0.00    +0.000 N 
ATOM     20  H   UNL     1      48.584   5.524  15.585  0.00  0.00    +0.000 HD
BRANCH  17  24
ATOM     21  C   UNL     1      48.246   5.706  20.943  0.00  0.00    +0.000 C 
ATOM     22  N   UNL     1      48.886   5.955  19.673  0.00  0.00    +0.000 N 
ATOM     23  N   UNL     1      48.263   6.697  18.729  0.00  0.00    +0.000 NA
ATOM     24  C   UNL     1      49.130   6.698  17.696  0.00  0.00    +0.000 A 
ATOM     25  C   UNL     1      50.312   5.967  18.007  0.00  0.00    +0.000 A 
ATOM     26  C   UNL     1      51.498   5.658  17.337  0.00  0.00    +0.000 A 
ATOM     27  N   UNL     1      52.451   4.912  17.949  0.00  0.00    +0.000 NA
ATOM     28  C   UNL     1      52.229   4.475  19.208  0.00  0.00    +0.000 A 
ATOM     29  C   UNL     1      51.086   4.727  19.951  0.00  0.00    +0.000 A 
ATOM     30  C   UNL     1      50.122   5.497  19.300  0.00  0.00    +0.000 A 
ENDBRANCH  17  24
ENDBRANCH   1  19
TORSDOF 7
ENDMDL
