MODEL 1
REMARK VINA RESULT:    -8.142      0.000      0.000
REMARK INTER + INTRA:         -12.880
REMARK INTER:                 -11.474
REMARK INTRA:                  -1.407
REMARK UNBOUND:                -1.407
REMARK  Name = 
REMARK  8 active torsions:
REMARK  status: ('A' for Active; 'I' for Inactive)
REMARK    1  A    between atoms: C_1  and  N_2
REMARK    2  A    between atoms: N_2  and  C_3
REMARK    3  A    between atoms: C_3  and  C_4
REMARK    4  A    between atoms: C_3  and  C_25
REMARK    5  A    between atoms: C_4  and  C_5
REMARK    6  A    between atoms: C_8  and  C_9
REMARK    7  A    between atoms: C_9  and  N_10
REMARK    8  A    between atoms: C_11  and  C_13
REMARK                            x       y       z     vdW  Elec       q    Type
REMARK                         _______ _______ _______ _____ _____    ______ ____
ROOT
ATOM      1  C   UNL     1      44.790   5.501  10.578  0.00  0.00    +0.000 A 
ATOM      2  C   UNL     1      44.105   6.067  11.650  0.00  0.00    +0.000 A 
ATOM      3  C   UNL     1      44.793   6.897  12.528  0.00  0.00    +0.000 A 
ATOM      4  C   UNL     1      46.155   7.131  12.336  0.00  0.00    +0.000 A 
ATOM      5  C   UNL     1      46.764   6.492  11.263  0.00  0.00    +0.000 A 
ATOM      6  N   UNL     1      46.120   5.677  10.398  0.00  0.00    +0.000 NA
ENDROOT
BRANCH   1   7
ATOM      7  C   UNL     1      44.046   4.712   9.528  0.00  0.00    +0.000 C 
BRANCH   7   8
ATOM      8  C   UNL     1      44.280   3.173   9.566  0.00  0.00    +0.000 C 
BRANCH   8   9
ATOM      9  C   UNL     1      45.309   2.742   8.527  0.00  0.00    +0.000 A 
ATOM     10  C   UNL     1      45.785   3.636   7.561  0.00  0.00    +0.000 A 
ATOM     11  C   UNL     1      46.753   3.220   6.650  0.00  0.00    +0.000 A 
ATOM     12  C   UNL     1      47.216   1.917   6.726  0.00  0.00    +0.000 A 
ATOM     13  N   UNL     1      46.790   1.020   7.638  0.00  0.00    +0.000 NA
ATOM     14  C   UNL     1      45.859   1.457   8.522  0.00  0.00    +0.000 A 
ENDBRANCH   8   9
BRANCH   8  16
ATOM     15  C   UNL     1      43.454   2.394  11.750  0.00  0.00    +0.000 C 
ATOM     16  N   UNL     1      44.600   2.568  10.874  0.00  0.00    +0.000 NA
ATOM     17  H   UNL     1      45.039   1.662  10.715  0.00  0.00    +0.000 HD
ENDBRANCH   8  16
ENDBRANCH   7   8
ENDBRANCH   1   7
BRANCH   4  18
ATOM     18  C   UNL     1      46.910   8.102  13.190  0.00  0.00    +0.000 C 
BRANCH  18  19
ATOM     19  N   UNL     1      47.370   7.465  14.400  0.00  0.00    +0.000 N 
ATOM     20  C   UNL     1      48.605   6.875  14.471  0.00  0.00    +0.000 C 
ATOM     21  O   UNL     1      49.392   6.908  13.527  0.00  0.00    +0.000 OA
ATOM     22  H   UNL     1      46.665   7.227  15.093  0.00  0.00    +0.000 HD
BRANCH  20  23
ATOM     23  C   UNL     1      48.968   6.256  15.751  0.00  0.00    +0.000 A 
ATOM     24  C   UNL     1      50.025   6.772  16.488  0.00  0.00    +0.000 A 
ATOM     25  S   UNL     1      50.279   5.974  17.974  0.00  0.00    +0.000 S 
ATOM     26  C   UNL     1      49.016   4.877  17.663  0.00  0.00    +0.000 A 
ATOM     27  N   UNL     1      48.710   3.891  18.549  0.00  0.00    +0.000 NA
ATOM     28  C   UNL     1      47.741   3.123  18.177  0.00  0.00    +0.000 A 
ATOM     29  N   UNL     1      47.051   3.248  16.998  0.00  0.00    +0.000 N 
ATOM     30  C   UNL     1      47.322   4.230  16.078  0.00  0.00    +0.000 A 
ATOM     31  O   UNL     1      46.689   4.327  15.032  0.00  0.00    +0.000 OA
ATOM     32  C   UNL     1      48.400   5.126  16.451  0.00  0.00    +0.000 A 
ATOM     33  H   UNL     1      46.293   2.620  16.766  0.00  0.00    +0.000 HD
ENDBRANCH  20  23
ENDBRANCH  18  19
ENDBRANCH   4  18
TORSDOF 7
ENDMDL
MODEL 2
REMARK VINA RESULT:    -7.322      3.099      4.458
REMARK INTER + INTRA:         -11.724
REMARK INTER:                 -10.506
REMARK INTRA:                  -1.218
REMARK UNBOUND:                -1.407
REMARK  Name = 
REMARK  8 active torsions:
REMARK  status: ('A' for Active; 'I' for Inactive)
REMARK    1  A    between atoms: C_1  and  N_2
REMARK    2  A    between atoms: N_2  and  C_3
REMARK    3  A    between atoms: C_3  and  C_4
REMARK    4  A    between atoms: C_3  and  C_25
REMARK    5  A    between atoms: C_4  and  C_5
REMARK    6  A    between atoms: C_8  and  C_9
REMARK    7  A    between atoms: C_9  and  N_10
REMARK    8  A    between atoms: C_11  and  C_13
REMARK                            x       y       z     vdW  Elec       q    Type
REMARK                         _______ _______ _______ _____ _____    ______ ____
ROOT
ATOM      1  C   UNL     1      46.972   4.421  14.316  0.00  0.00    +0.000 A 
ATOM      2  C   UNL     1      47.591   5.639  14.050  0.00  0.00    +0.000 A 
ATOM      3  C   UNL     1      48.288   6.279  15.069  0.00  0.00    +0.000 A 
ATOM      4  C   UNL     1      48.337   5.705  16.340  0.00  0.00    +0.000 A 
ATOM      5  C   UNL     1      47.656   4.508  16.523  0.00  0.00    +0.000 A 
ATOM      6  N   UNL     1      46.968   3.868  15.551  0.00  0.00    +0.000 NA
ENDROOT
BRANCH   1   7
ATOM      7  C   UNL     1      46.329   3.632  13.201  0.00  0.00    +0.000 C 
BRANCH   7   8
ATOM      8  C   UNL     1      45.109   4.320  12.520  0.00  0.00    +0.000 C 
BRANCH   8   9
ATOM      9  C   UNL     1      45.112   4.092  11.012  0.00  0.00    +0.000 A 
ATOM     10  C   UNL     1      44.726   2.864  10.464  0.00  0.00    +0.000 A 
ATOM     11  C   UNL     1      44.704   2.701   9.080  0.00  0.00    +0.000 A 
ATOM     12  C   UNL     1      45.076   3.770   8.282  0.00  0.00    +0.000 A 
ATOM     13  N   UNL     1      45.454   4.971   8.764  0.00  0.00    +0.000 NA
ATOM     14  C   UNL     1      45.450   5.107  10.113  0.00  0.00    +0.000 A 
ENDBRANCH   8   9
BRANCH   8  16
ATOM     15  C   UNL     1      42.811   5.108  12.919  0.00  0.00    +0.000 C 
ATOM     16  N   UNL     1      43.771   4.028  13.071  0.00  0.00    +0.000 NA
ATOM     17  H   UNL     1      43.407   3.192  12.616  0.00  0.00    +0.000 HD
ENDBRANCH   8  16
ENDBRANCH   7   8
ENDBRANCH   1   7
BRANCH   4  18
ATOM     18  C   UNL     1      49.165   6.301  17.436  0.00  0.00    +0.000 C 
BRANCH  18  19
ATOM     19  N   UNL     1      50.182   5.373  17.867  0.00  0.00    +0.000 N 
ATOM     20  C   UNL     1      51.433   5.374  17.306  0.00  0.00    +0.000 C 
ATOM     21  O   UNL     1      51.758   6.196  16.453  0.00  0.00    +0.000 OA
ATOM     22  H   UNL     1      49.872   4.556  18.387  0.00  0.00    +0.000 HD
BRANCH  20  23
ATOM     23  C   UNL     1      52.388   4.385  17.821  0.00  0.00    +0.000 A 
ATOM     24  C   UNL     1      53.587   4.811  18.376  0.00  0.00    +0.000 A 
ATOM     25  S   UNL     1      54.555   3.543  18.976  0.00  0.00    +0.000 S 
ATOM     26  C   UNL     1      53.428   2.372  18.471  0.00  0.00    +0.000 A 
ATOM     27  N   UNL     1      53.660   1.045  18.667  0.00  0.00    +0.000 NA
ATOM     28  C   UNL     1      52.730   0.270  18.219  0.00  0.00    +0.000 A 
ATOM     29  N   UNL     1      51.588   0.699  17.592  0.00  0.00    +0.000 N 
ATOM     30  C   UNL     1      51.310   2.027  17.378  0.00  0.00    +0.000 A 
ATOM     31  O   UNL     1      50.281   2.388  16.818  0.00  0.00    +0.000 OA
ATOM     32  C   UNL     1      52.323   2.942  17.868  0.00  0.00    +0.000 A 
ATOM     33  H   UNL     1      50.889   0.043  17.272  0.00  0.00    +0.000 HD
ENDBRANCH  20  23
ENDBRANCH  18  19
ENDBRANCH   4  18
TORSDOF 7
ENDMDL
MODEL 3
REMARK VINA RESULT:    -7.230      2.596      3.302
REMARK INTER + INTRA:         -11.595
REMARK INTER:                 -10.286
REMARK INTRA:                  -1.309
REMARK UNBOUND:                -1.407
REMARK  Name = 
REMARK  8 active torsions:
REMARK  status: ('A' for Active; 'I' for Inactive)
REMARK    1  A    between atoms: C_1  and  N_2
REMARK    2  A    between atoms: N_2  and  C_3
REMARK    3  A    between atoms: C_3  and  C_4
REMARK    4  A    between atoms: C_3  and  C_25
REMARK    5  A    between atoms: C_4  and  C_5
REMARK    6  A    between atoms: C_8  and  C_9
REMARK    7  A    between atoms: C_9  and  N_10
REMARK    8  A    between atoms: C_11  and  C_13
REMARK                            x       y       z     vdW  Elec       q    Type
REMARK                         _______ _______ _______ _____ _____    ______ ____
ROOT
ATOM      1  C   UNL     1      45.306   5.657  11.513  0.00  0.00    +0.000 A 
ATOM      2  C   UNL     1      46.259   6.554  11.037  0.00  0.00    +0.000 A 
ATOM      3  C   UNL     1      47.329   6.898  11.856  0.00  0.00    +0.000 A 
ATOM      4  C   UNL     1      47.418   6.362  13.141  0.00  0.00    +0.000 A 
ATOM      5  C   UNL     1      46.399   5.508  13.545  0.00  0.00    +0.000 A 
ATOM      6  N   UNL     1      45.347   5.161  12.771  0.00  0.00    +0.000 NA
ENDROOT
BRANCH   1   7
ATOM      7  C   UNL     1      44.212   5.153  10.603  0.00  0.00    +0.000 C 
BRANCH   7   8
ATOM      8  C   UNL     1      44.254   3.626  10.298  0.00  0.00    +0.000 C 
BRANCH   8   9
ATOM      9  C   UNL     1      45.188   3.318   9.132  0.00  0.00    +0.000 A 
ATOM     10  C   UNL     1      45.630   2.014   8.881  0.00  0.00    +0.000 A 
ATOM     11  C   UNL     1      46.453   1.762   7.785  0.00  0.00    +0.000 A 
ATOM     12  C   UNL     1      46.815   2.823   6.972  0.00  0.00    +0.000 A 
ATOM     13  N   UNL     1      46.414   4.095   7.173  0.00  0.00    +0.000 NA
ATOM     14  C   UNL     1      45.602   4.308   8.237  0.00  0.00    +0.000 A 
ENDBRANCH   8   9
BRANCH   8  16
ATOM     15  C   UNL     1      43.364   2.308  12.177  0.00  0.00    +0.000 C 
ATOM     16  N   UNL     1      44.539   2.718  11.426  0.00  0.00    +0.000 NA
ATOM     17  H   UNL     1      45.010   1.889  11.066  0.00  0.00    +0.000 HD
ENDBRANCH   8  16
ENDBRANCH   7   8
ENDBRANCH   1   7
BRANCH   4  18
ATOM     18  C   UNL     1      48.607   6.618  14.015  0.00  0.00    +0.000 C 
BRANCH  18  19
ATOM     19  N   UNL     1      48.196   6.846  15.379  0.00  0.00    +0.000 N 
ATOM     20  C   UNL     1      48.971   6.440  16.435  0.00  0.00    +0.000 C 
ATOM     21  O   UNL     1      50.068   5.915  16.266  0.00  0.00    +0.000 OA
ATOM     22  H   UNL     1      47.214   7.058  15.536  0.00  0.00    +0.000 HD
BRANCH  20  23
ATOM     23  C   UNL     1      48.453   6.722  17.779  0.00  0.00    +0.000 A 
ATOM     24  C   UNL     1      48.304   5.684  18.689  0.00  0.00    +0.000 A 
ATOM     25  S   UNL     1      47.746   6.188  20.219  0.00  0.00    +0.000 S 
ATOM     26  C   UNL     1      47.636   7.807  19.706  0.00  0.00    +0.000 A 
ATOM     27  N   UNL     1      47.192   8.781  20.547  0.00  0.00    +0.000 NA
ATOM     28  C   UNL     1      47.145   9.959  20.020  0.00  0.00    +0.000 A 
ATOM     29  N   UNL     1      47.499  10.253  18.728  0.00  0.00    +0.000 N 
ATOM     30  C   UNL     1      47.956   9.304  17.847  0.00  0.00    +0.000 A 
ATOM     31  O   UNL     1      48.272   9.590  16.697  0.00  0.00    +0.000 OA
ATOM     32  C   UNL     1      48.035   7.962  18.391  0.00  0.00    +0.000 A 
ATOM     33  H   UNL     1      47.450  11.199  18.374  0.00  0.00    +0.000 HD
ENDBRANCH  20  23
ENDBRANCH  18  19
ENDBRANCH   4  18
TORSDOF 7
ENDMDL
MODEL 4
REMARK VINA RESULT:    -7.194      2.721      3.595
REMARK INTER + INTRA:         -11.544
REMARK INTER:                 -10.592
REMARK INTRA:                  -0.952
REMARK UNBOUND:                -1.407
REMARK  Name = 
REMARK  8 active torsions:
REMARK  status: ('A' for Active; 'I' for Inactive)
REMARK    1  A    between atoms: C_1  and  N_2
REMARK    2  A    between atoms: N_2  and  C_3
REMARK    3  A    between atoms: C_3  and  C_4
REMARK    4  A    between atoms: C_3  and  C_25
REMARK    5  A    between atoms: C_4  and  C_5
REMARK    6  A    between atoms: C_8  and  C_9
REMARK    7  A    between atoms: C_9  and  N_10
REMARK    8  A    between atoms: C_11  and  C_13
REMARK                            x       y       z     vdW  Elec       q    Type
REMARK                         _______ _______ _______ _____ _____    ______ ____
ROOT
ATOM      1  C   UNL     1      46.295   5.141  13.187  0.00  0.00    +0.000 A 
ATOM      2  C   UNL     1      46.722   4.447  14.316  0.00  0.00    +0.000 A 
ATOM      3  C   UNL     1      47.642   5.047  15.168  0.00  0.00    +0.000 A 
ATOM      4  C   UNL     1      48.136   6.318  14.870  0.00  0.00    +0.000 A 
ATOM      5  C   UNL     1      47.683   6.917  13.701  0.00  0.00    +0.000 A 
ATOM      6  N   UNL     1      46.794   6.354  12.854  0.00  0.00    +0.000 NA
ENDROOT
BRANCH   1   7
ATOM      7  C   UNL     1      45.194   4.581  12.319  0.00  0.00    +0.000 C 
BRANCH   7   8
ATOM      8  C   UNL     1      44.867   5.414  11.044  0.00  0.00    +0.000 C 
BRANCH   8   9
ATOM      9  C   UNL     1      45.142   4.618   9.773  0.00  0.00    +0.000 A 
ATOM     10  C   UNL     1      44.513   3.391   9.535  0.00  0.00    +0.000 A 
ATOM     11  C   UNL     1      44.759   2.707   8.345  0.00  0.00    +0.000 A 
ATOM     12  C   UNL     1      45.633   3.268   7.429  0.00  0.00    +0.000 A 
ATOM     13  N   UNL     1      46.262   4.446   7.614  0.00  0.00    +0.000 NA
ATOM     14  C   UNL     1      45.992   5.097   8.772  0.00  0.00    +0.000 A 
ENDBRANCH   8   9
BRANCH   8  16
ATOM     15  C   UNL     1      42.542   5.448  11.854  0.00  0.00    +0.000 C 
ATOM     16  N   UNL     1      43.531   6.039  10.968  0.00  0.00    +0.000 NA
ATOM     17  H   UNL     1      43.622   7.030  11.184  0.00  0.00    +0.000 HD
ENDBRANCH   8  16
ENDBRANCH   7   8
ENDBRANCH   1   7
BRANCH   4  18
ATOM     18  C   UNL     1      49.042   7.046  15.815  0.00  0.00    +0.000 C 
BRANCH  18  19
ATOM     19  N   UNL     1      50.103   6.181  16.271  0.00  0.00    +0.000 N 
ATOM     20  C   UNL     1      50.071   5.609  17.517  0.00  0.00    +0.000 C 
ATOM     21  O   UNL     1      49.117   5.766  18.275  0.00  0.00    +0.000 OA
ATOM     22  H   UNL     1      50.985   6.227  15.768  0.00  0.00    +0.000 HD
BRANCH  20  23
ATOM     23  C   UNL     1      51.203   4.747  17.876  0.00  0.00    +0.000 A 
ATOM     24  C   UNL     1      52.342   5.309  18.437  0.00  0.00    +0.000 A 
ATOM     25  S   UNL     1      53.540   4.166  18.847  0.00  0.00    +0.000 S 
ATOM     26  C   UNL     1      52.599   2.883  18.244  0.00  0.00    +0.000 A 
ATOM     27  N   UNL     1      53.059   1.603  18.271  0.00  0.00    +0.000 NA
ATOM     28  C   UNL     1      52.247   0.734  17.766  0.00  0.00    +0.000 A 
ATOM     29  N   UNL     1      51.018   1.028  17.234  0.00  0.00    +0.000 N 
ATOM     30  C   UNL     1      50.512   2.304  17.191  0.00  0.00    +0.000 A 
ATOM     31  O   UNL     1      49.407   2.544  16.715  0.00  0.00    +0.000 OA
ATOM     32  C   UNL     1      51.383   3.319  17.752  0.00  0.00    +0.000 A 
ATOM     33  H   UNL     1      50.421   0.302  16.862  0.00  0.00    +0.000 HD
ENDBRANCH  20  23
ENDBRANCH  18  19
ENDBRANCH   4  18
TORSDOF 7
ENDMDL
MODEL 5
REMARK VINA RESULT:    -6.963      2.044      2.766
REMARK INTER + INTRA:         -11.218
REMARK INTER:                 -10.158
REMARK INTRA:                  -1.060
REMARK UNBOUND:                -1.407
REMARK  Name = 
REMARK  8 active torsions:
REMARK  status: ('A' for Active; 'I' for Inactive)
REMARK    1  A    between atoms: C_1  and  N_2
REMARK    2  A    between atoms: N_2  and  C_3
REMARK    3  A    between atoms: C_3  and  C_4
REMARK    4  A    between atoms: C_3  and  C_25
REMARK    5  A    between atoms: C_4  and  C_5
REMARK    6  A    between atoms: C_8  and  C_9
REMARK    7  A    between atoms: C_9  and  N_10
REMARK    8  A    between atoms: C_11  and  C_13
REMARK                            x       y       z     vdW  Elec       q    Type
REMARK                         _______ _______ _______ _____ _____    ______ ____
ROOT
ATOM      1  C   UNL     1      46.150   5.400  12.662  0.00  0.00    +0.000 A 
ATOM      2  C   UNL     1      46.692   6.489  11.986  0.00  0.00    +0.000 A 
ATOM      3  C   UNL     1      47.778   7.156  12.543  0.00  0.00    +0.000 A 
ATOM      4  C   UNL     1      48.289   6.740  13.773  0.00  0.00    +0.000 A 
ATOM      5  C   UNL     1      47.658   5.669  14.393  0.00  0.00    +0.000 A 
ATOM      6  N   UNL     1      46.600   5.007  13.877  0.00  0.00    +0.000 NA
ENDROOT
BRANCH   1   7
ATOM      7  C   UNL     1      45.065   4.568  12.022  0.00  0.00    +0.000 C 
BRANCH   7   8
ATOM      8  C   UNL     1      44.641   5.018  10.593  0.00  0.00    +0.000 C 
BRANCH   8   9
ATOM      9  C   UNL     1      45.148   4.049   9.531  0.00  0.00    +0.000 A 
ATOM     10  C   UNL     1      45.806   4.508   8.384  0.00  0.00    +0.000 A 
ATOM     11  C   UNL     1      46.291   3.593   7.451  0.00  0.00    +0.000 A 
ATOM     12  C   UNL     1      46.099   2.242   7.689  0.00  0.00    +0.000 A 
ATOM     13  N   UNL     1      45.473   1.752   8.779  0.00  0.00    +0.000 NA
ATOM     14  C   UNL     1      45.026   2.665   9.677  0.00  0.00    +0.000 A 
ENDBRANCH   8   9
BRANCH   8  16
ATOM     15  C   UNL     1      42.452   5.550  11.586  0.00  0.00    +0.000 C 
ATOM     16  N   UNL     1      43.210   5.306  10.370  0.00  0.00    +0.000 NA
ATOM     17  H   UNL     1      43.132   6.118   9.760  0.00  0.00    +0.000 HD
ENDBRANCH   8  16
ENDBRANCH   7   8
ENDBRANCH   1   7
BRANCH   4  18
ATOM     18  C   UNL     1      49.523   7.358  14.356  0.00  0.00    +0.000 C 
BRANCH  18  19
ATOM     19  N   UNL     1      49.464   7.348  15.797  0.00  0.00    +0.000 N 
ATOM     20  C   UNL     1      50.442   6.747  16.548  0.00  0.00    +0.000 C 
ATOM     21  O   UNL     1      51.433   6.239  16.030  0.00  0.00    +0.000 OA
ATOM     22  H   UNL     1      48.563   7.548  16.224  0.00  0.00    +0.000 HD
BRANCH  20  23
ATOM     23  C   UNL     1      50.278   6.797  18.006  0.00  0.00    +0.000 A 
ATOM     24  C   UNL     1      50.740   7.900  18.711  0.00  0.00    +0.000 A 
ATOM     25  S   UNL     1      50.422   7.825  20.385  0.00  0.00    +0.000 S 
ATOM     26  C   UNL     1      49.699   6.293  20.235  0.00  0.00    +0.000 A 
ATOM     27  N   UNL     1      49.217   5.635  21.324  0.00  0.00    +0.000 NA
ATOM     28  C   UNL     1      48.710   4.476  21.065  0.00  0.00    +0.000 A 
ATOM     29  N   UNL     1      48.643   3.912  19.817  0.00  0.00    +0.000 N 
ATOM     30  C   UNL     1      49.112   4.541  18.690  0.00  0.00    +0.000 A 
ATOM     31  O   UNL     1      49.037   4.020  17.582  0.00  0.00    +0.000 OA
ATOM     32  C   UNL     1      49.687   5.852  18.924  0.00  0.00    +0.000 A 
ATOM     33  H   UNL     1      48.224   3.003  19.675  0.00  0.00    +0.000 HD
ENDBRANCH  20  23
ENDBRANCH  18  19
ENDBRANCH   4  18
TORSDOF 7
ENDMDL
MODEL 6
REMARK VINA RESULT:    -6.956      2.744      8.171
REMARK INTER + INTRA:         -11.209
REMARK INTER:                  -9.757
REMARK INTRA:                  -1.451
REMARK UNBOUND:                -1.407
REMARK  Name = 
REMARK  8 active torsions:
REMARK  status: ('A' for Active; 'I' for Inactive)
REMARK    1  A    between atoms: C_1  and  N_2
REMARK    2  A    between atoms: N_2  and  C_3
REMARK    3  A    between atoms: C_3  and  C_4
REMARK    4  A    between atoms: C_3  and  C_25
REMARK    5  A    between atoms: C_4  and  C_5
REMARK    6  A    between atoms: C_8  and  C_9
REMARK    7  A    between atoms: C_9  and  N_10
REMARK    8  A    between atoms: C_11  and  C_13
REMARK                            x       y       z     vdW  Elec       q    Type
REMARK                         _______ _______ _______ _____ _____    ______ ____
ROOT
ATOM      1  C   UNL     1      49.234   7.729  15.842  0.00  0.00    +0.000 A 
ATOM      2  C   UNL     1      48.282   8.705  15.559  0.00  0.00    +0.000 A 
ATOM      3  C   UNL     1      47.757   8.781  14.273  0.00  0.00    +0.000 A 
ATOM      4  C   UNL     1      48.203   7.899  13.290  0.00  0.00    +0.000 A 
ATOM      5  C   UNL     1      49.184   6.985  13.654  0.00  0.00    +0.000 A 
ATOM      6  N   UNL     1      49.715   6.893  14.893  0.00  0.00    +0.000 NA
ENDROOT
BRANCH   1   7
ATOM      7  C   UNL     1      49.720   7.526  17.257  0.00  0.00    +0.000 C 
BRANCH   7   8
ATOM      8  C   UNL     1      48.706   6.832  18.214  0.00  0.00    +0.000 C 
BRANCH   8   9
ATOM      9  C   UNL     1      48.472   5.379  17.816  0.00  0.00    +0.000 A 
ATOM     10  C   UNL     1      49.538   4.482  17.682  0.00  0.00    +0.000 A 
ATOM     11  C   UNL     1      49.286   3.152  17.354  0.00  0.00    +0.000 A 
ATOM     12  C   UNL     1      47.972   2.755  17.164  0.00  0.00    +0.000 A 
ATOM     13  N   UNL     1      46.913   3.581  17.283  0.00  0.00    +0.000 NA
ATOM     14  C   UNL     1      47.187   4.866  17.619  0.00  0.00    +0.000 A 
ENDBRANCH   8   9
BRANCH   8  16
ATOM     15  C   UNL     1      50.087   7.785  20.016  0.00  0.00    +0.000 C 
ATOM     16  N   UNL     1      48.973   6.922  19.663  0.00  0.00    +0.000 NA
ATOM     17  H   UNL     1      48.131   7.258  20.129  0.00  0.00    +0.000 HD
ENDBRANCH   8  16
ENDBRANCH   7   8
ENDBRANCH   1   7
BRANCH   4  18
ATOM     18  C   UNL     1      47.587   7.872  11.924  0.00  0.00    +0.000 C 
BRANCH  18  19
ATOM     19  N   UNL     1      46.893   6.627  11.704  0.00  0.00    +0.000 N 
ATOM     20  C   UNL     1      45.531   6.536  11.836  0.00  0.00    +0.000 C 
ATOM     21  O   UNL     1      44.840   7.519  12.095  0.00  0.00    +0.000 OA
ATOM     22  H   UNL     1      47.451   5.777  11.722  0.00  0.00    +0.000 HD
BRANCH  20  23
ATOM     23  C   UNL     1      44.930   5.220  11.590  0.00  0.00    +0.000 A 
ATOM     24  C   UNL     1      44.238   4.579  12.609  0.00  0.00    +0.000 A 
ATOM     25  S   UNL     1      43.557   3.087  12.143  0.00  0.00    +0.000 S 
ATOM     26  C   UNL     1      44.205   3.220  10.575  0.00  0.00    +0.000 A 
ATOM     27  N   UNL     1      44.009   2.241   9.650  0.00  0.00    +0.000 NA
ATOM     28  C   UNL     1      44.570   2.466   8.509  0.00  0.00    +0.000 A 
ATOM     29  N   UNL     1      45.313   3.578   8.208  0.00  0.00    +0.000 N 
ATOM     30  C   UNL     1      45.533   4.592   9.108  0.00  0.00    +0.000 A 
ATOM     31  O   UNL     1      46.197   5.581   8.816  0.00  0.00    +0.000 OA
ATOM     32  C   UNL     1      44.917   4.392  10.406  0.00  0.00    +0.000 A 
ATOM     33  H   UNL     1      45.721   3.703   7.291  0.00  0.00    +0.000 HD
ENDBRANCH  20  23
ENDBRANCH  18  19
ENDBRANCH   4  18
TORSDOF 7
ENDMDL
MODEL 7
REMARK VINA RESULT:    -6.784      2.712      3.309
REMARK INTER + INTRA:         -10.966
REMARK INTER:                  -9.970
REMARK INTRA:                  -0.996
REMARK UNBOUND:                -1.407
REMARK  Name = 
REMARK  8 active torsions:
REMARK  status: ('A' for Active; 'I' for Inactive)
REMARK    1  A    between atoms: C_1  and  N_2
REMARK    2  A    between atoms: N_2  and  C_3
REMARK    3  A    between atoms: C_3  and  C_4
REMARK    4  A    between atoms: C_3  and  C_25
REMARK    5  A    between atoms: C_4  and  C_5
REMARK    6  A    between atoms: C_8  and  C_9
REMARK    7  A    between atoms: C_9  and  N_10
REMARK    8  A    between atoms: C_11  and  C_13
REMARK                            x       y       z     vdW  Elec       q    Type
REMARK                         _______ _______ _______ _____ _____    ______ ____
ROOT
ATOM      1  C   UNL     1      46.086   6.092  12.602  0.00  0.00    +0.000 A 
ATOM      2  C   UNL     1      47.275   5.802  13.267  0.00  0.00    +0.000 A 
ATOM      3  C   UNL     1      47.963   6.832  13.899  0.00  0.00    +0.000 A 
ATOM      4  C   UNL     1      47.467   8.135  13.839  0.00  0.00    +0.000 A 
ATOM      5  C   UNL     1      46.295   8.336  13.120  0.00  0.00    +0.000 A 
ATOM      6  N   UNL     1      45.610   7.354  12.493  0.00  0.00    +0.000 NA
ENDROOT
BRANCH   1   7
ATOM      7  C   UNL     1      45.243   4.980  12.028  0.00  0.00    +0.000 C 
BRANCH   7   8
ATOM      8  C   UNL     1      44.650   5.260  10.615  0.00  0.00    +0.000 C 
BRANCH   8   9
ATOM      9  C   UNL     1      45.176   4.266   9.585  0.00  0.00    +0.000 A 
ATOM     10  C   UNL     1      44.995   2.888   9.747  0.00  0.00    +0.000 A 
ATOM     11  C   UNL     1      45.455   2.010   8.768  0.00  0.00    +0.000 A 
ATOM     12  C   UNL     1      46.089   2.535   7.654  0.00  0.00    +0.000 A 
ATOM     13  N   UNL     1      46.285   3.854   7.453  0.00  0.00    +0.000 NA
ATOM     14  C   UNL     1      45.813   4.686   8.414  0.00  0.00    +0.000 A 
ENDBRANCH   8   9
BRANCH   8  16
ATOM     15  C   UNL     1      42.485   5.387  11.782  0.00  0.00    +0.000 C 
ATOM     16  N   UNL     1      43.181   5.369  10.506  0.00  0.00    +0.000 NA
ATOM     17  H   UNL     1      42.956   6.220   9.992  0.00  0.00    +0.000 HD
ENDBRANCH   8  16
ENDBRANCH   7   8
ENDBRANCH   1   7
BRANCH   4  18
ATOM     18  C   UNL     1      48.114   9.254  14.596  0.00  0.00    +0.000 C 
BRANCH  18  19
ATOM     19  N   UNL     1      47.774   9.184  15.996  0.00  0.00    +0.000 N 
ATOM     20  C   UNL     1      48.646   8.664  16.918  0.00  0.00    +0.000 C 
ATOM     21  O   UNL     1      49.770   8.284  16.600  0.00  0.00    +0.000 OA
ATOM     22  H   UNL     1      46.790   9.270  16.238  0.00  0.00    +0.000 HD
BRANCH  20  23
ATOM     23  C   UNL     1      48.194   8.641  18.314  0.00  0.00    +0.000 A 
ATOM     24  C   UNL     1      47.912   9.835  18.964  0.00  0.00    +0.000 A 
ATOM     25  S   UNL     1      47.347   9.630  20.560  0.00  0.00    +0.000 S 
ATOM     26  C   UNL     1      47.505   7.939  20.457  0.00  0.00    +0.000 A 
ATOM     27  N   UNL     1      47.199   7.141  21.515  0.00  0.00    +0.000 NA
ATOM     28  C   UNL     1      47.382   5.880  21.302  0.00  0.00    +0.000 A 
ATOM     29  N   UNL     1      47.845   5.344  20.128  0.00  0.00    +0.000 N 
ATOM     30  C   UNL     1      48.161   6.111  19.033  0.00  0.00    +0.000 A 
ATOM     31  O   UNL     1      48.570   5.610  17.991  0.00  0.00    +0.000 OA
ATOM     32  C   UNL     1      47.968   7.537  19.218  0.00  0.00    +0.000 A 
ATOM     33  H   UNL     1      47.958   4.345  20.017  0.00  0.00    +0.000 HD
ENDBRANCH  20  23
ENDBRANCH  18  19
ENDBRANCH   4  18
TORSDOF 7
ENDMDL
MODEL 8
REMARK VINA RESULT:    -6.664      3.214      8.248
REMARK INTER + INTRA:         -10.798
REMARK INTER:                  -9.699
REMARK INTRA:                  -1.099
REMARK UNBOUND:                -1.407
REMARK  Name = 
REMARK  8 active torsions:
REMARK  status: ('A' for Active; 'I' for Inactive)
REMARK    1  A    between atoms: C_1  and  N_2
REMARK    2  A    between atoms: N_2  and  C_3
REMARK    3  A    between atoms: C_3  and  C_4
REMARK    4  A    between atoms: C_3  and  C_25
REMARK    5  A    between atoms: C_4  and  C_5
REMARK    6  A    between atoms: C_8  and  C_9
REMARK    7  A    between atoms: C_9  and  N_10
REMARK    8  A    between atoms: C_11  and  C_13
REMARK                            x       y       z     vdW  Elec       q    Type
REMARK                         _______ _______ _______ _____ _____    ______ ____
ROOT
ATOM      1  C   UNL     1      49.864   6.128  16.383  0.00  0.00    +0.000 A 
ATOM      2  C   UNL     1      48.540   5.875  16.032  0.00  0.00    +0.000 A 
ATOM      3  C   UNL     1      48.044   6.405  14.846  0.00  0.00    +0.000 A 
ATOM      4  C   UNL     1      48.868   7.193  14.042  0.00  0.00    +0.000 A 
ATOM      5  C   UNL     1      50.161   7.425  14.492  0.00  0.00    +0.000 A 
ATOM      6  N   UNL     1      50.666   6.927  15.643  0.00  0.00    +0.000 NA
ENDROOT
BRANCH   1   7
ATOM      7  C   UNL     1      50.475   5.455  17.588  0.00  0.00    +0.000 C 
BRANCH   7   8
ATOM      8  C   UNL     1      50.056   3.970  17.802  0.00  0.00    +0.000 C 
BRANCH   8   9
ATOM      9  C   UNL     1      51.269   3.048  17.825  0.00  0.00    +0.000 A 
ATOM     10  C   UNL     1      51.177   1.716  17.403  0.00  0.00    +0.000 A 
ATOM     11  C   UNL     1      52.315   0.911  17.402  0.00  0.00    +0.000 A 
ATOM     12  C   UNL     1      53.513   1.459  17.828  0.00  0.00    +0.000 A 
ATOM     13  N   UNL     1      53.651   2.735  18.242  0.00  0.00    +0.000 NA
ATOM     14  C   UNL     1      52.532   3.500  18.218  0.00  0.00    +0.000 A 
ENDBRANCH   8   9
BRANCH   8  16
ATOM     15  C   UNL     1      49.067   4.753  19.917  0.00  0.00    +0.000 C 
ATOM     16  N   UNL     1      49.175   3.674  18.950  0.00  0.00    +0.000 NA
ATOM     17  H   UNL     1      48.246   3.449  18.597  0.00  0.00    +0.000 HD
ENDBRANCH   8  16
ENDBRANCH   7   8
ENDBRANCH   1   7
BRANCH   4  18
ATOM     18  C   UNL     1      48.411   7.692  12.705  0.00  0.00    +0.000 C 
BRANCH  18  19
ATOM     19  N   UNL     1      47.668   6.670  12.008  0.00  0.00    +0.000 N 
ATOM     20  C   UNL     1      46.372   6.874  11.612  0.00  0.00    +0.000 C 
ATOM     21  O   UNL     1      45.805   7.950  11.787  0.00  0.00    +0.000 OA
ATOM     22  H   UNL     1      48.027   5.720  12.063  0.00  0.00    +0.000 HD
BRANCH  20  23
ATOM     23  C   UNL     1      45.713   5.765  10.912  0.00  0.00    +0.000 A 
ATOM     24  C   UNL     1      45.854   5.641   9.537  0.00  0.00    +0.000 A 
ATOM     25  S   UNL     1      45.074   4.270   8.888  0.00  0.00    +0.000 S 
ATOM     26  C   UNL     1      44.478   3.819  10.417  0.00  0.00    +0.000 A 
ATOM     27  N   UNL     1      43.696   2.716  10.566  0.00  0.00    +0.000 NA
ATOM     28  C   UNL     1      43.302   2.502  11.777  0.00  0.00    +0.000 A 
ATOM     29  N   UNL     1      43.616   3.292  12.854  0.00  0.00    +0.000 N 
ATOM     30  C   UNL     1      44.406   4.411  12.750  0.00  0.00    +0.000 A 
ATOM     31  O   UNL     1      44.679   5.100  13.727  0.00  0.00    +0.000 OA
ATOM     32  C   UNL     1      44.882   4.693  11.409  0.00  0.00    +0.000 A 
ATOM     33  H   UNL     1      43.286   3.067  13.782  0.00  0.00    +0.000 HD
ENDBRANCH  20  23
ENDBRANCH  18  19
ENDBRANCH   4  18
TORSDOF 7
ENDMDL
MODEL 9
REMARK VINA RESULT:    -6.560      3.671      4.447
REMARK INTER + INTRA:         -10.651
REMARK INTER:                  -9.479
REMARK INTRA:                  -1.172
REMARK UNBOUND:                -1.407
REMARK  Name = 
REMARK  8 active torsions:
REMARK  status: ('A' for Active; 'I' for Inactive)
REMARK    1  A    between atoms: C_1  and  N_2
REMARK    2  A    between atoms: N_2  and  C_3
REMARK    3  A    between atoms: C_3  and  C_4
REMARK    4  A    between atoms: C_3  and  C_25
REMARK    5  A    between atoms: C_4  and  C_5
REMARK    6  A    between atoms: C_8  and  C_9
REMARK    7  A    between atoms: C_9  and  N_10
REMARK    8  A    between atoms: C_11  and  C_13
REMARK                            x       y       z     vdW  Elec       q    Type
REMARK                         _______ _______ _______ _____ _____    ______ ____
ROOT
ATOM      1  C   UNL     1      46.078   6.034  12.664  0.00  0.00    +0.000 A 
ATOM      2  C   UNL     1      47.212   5.698  13.399  0.00  0.00    +0.000 A 
ATOM      3  C   UNL     1      47.909   6.702  14.061  0.00  0.00    +0.000 A 
ATOM      4  C   UNL     1      47.477   8.025  13.962  0.00  0.00    +0.000 A 
ATOM      5  C   UNL     1      46.360   8.272  13.174  0.00  0.00    +0.000 A 
ATOM      6  N   UNL     1      45.668   7.315  12.516  0.00  0.00    +0.000 NA
ENDROOT
BRANCH   1   7
ATOM      7  C   UNL     1      45.219   4.956  12.050  0.00  0.00    +0.000 C 
BRANCH   7   8
ATOM      8  C   UNL     1      44.665   5.276  10.630  0.00  0.00    +0.000 C 
BRANCH   8   9
ATOM      9  C   UNL     1      45.187   4.288   9.593  0.00  0.00    +0.000 A 
ATOM     10  C   UNL     1      44.976   2.911   9.732  0.00  0.00    +0.000 A 
ATOM     11  C   UNL     1      45.434   2.038   8.747  0.00  0.00    +0.000 A 
ATOM     12  C   UNL     1      46.097   2.567   7.651  0.00  0.00    +0.000 A 
ATOM     13  N   UNL     1      46.323   3.885   7.474  0.00  0.00    +0.000 NA
ATOM     14  C   UNL     1      45.852   4.711   8.440  0.00  0.00    +0.000 A 
ENDBRANCH   8   9
BRANCH   8  16
ATOM     15  C   UNL     1      42.470   5.347  11.744  0.00  0.00    +0.000 C 
ATOM     16  N   UNL     1      43.203   5.427  10.491  0.00  0.00    +0.000 NA
ATOM     17  H   UNL     1      43.008   6.324  10.049  0.00  0.00    +0.000 HD
ENDBRANCH   8  16
ENDBRANCH   7   8
ENDBRANCH   1   7
BRANCH   4  18
ATOM     18  C   UNL     1      48.131   9.122  14.746  0.00  0.00    +0.000 C 
BRANCH  18  19
ATOM     19  N   UNL     1      47.722   9.071  16.128  0.00  0.00    +0.000 N 
ATOM     20  C   UNL     1      48.595   8.695  17.117  0.00  0.00    +0.000 C 
ATOM     21  O   UNL     1      49.771   8.436  16.876  0.00  0.00    +0.000 OA
ATOM     22  H   UNL     1      46.723   9.052  16.315  0.00  0.00    +0.000 HD
BRANCH  20  23
ATOM     23  C   UNL     1      48.070   8.677  18.488  0.00  0.00    +0.000 A 
ATOM     24  C   UNL     1      48.095   7.497  19.218  0.00  0.00    +0.000 A 
ATOM     25  S   UNL     1      47.502   7.661  20.808  0.00  0.00    +0.000 S 
ATOM     26  C   UNL     1      47.144   9.306  20.563  0.00  0.00    +0.000 A 
ATOM     27  N   UNL     1      46.580  10.056  21.548  0.00  0.00    +0.000 NA
ATOM     28  C   UNL     1      46.349  11.283  21.218  0.00  0.00    +0.000 A 
ATOM     29  N   UNL     1      46.628  11.830  19.992  0.00  0.00    +0.000 N 
ATOM     30  C   UNL     1      47.201  11.112  18.970  0.00  0.00    +0.000 A 
ATOM     31  O   UNL     1      47.445  11.623  17.882  0.00  0.00    +0.000 OA
ATOM     32  C   UNL     1      47.487   9.727  19.291  0.00  0.00    +0.000 A 
ATOM     33  H   UNL     1      46.433  12.802  19.796  0.00  0.00    +0.000 HD
ENDBRANCH  20  23
ENDBRANCH  18  19
ENDBRANCH   4  18
TORSDOF 7
ENDMDL
