MODEL 1
REMARK VINA RESULT:    -8.357      0.000      0.000
REMARK INTER + INTRA:         -11.830
REMARK INTER:                 -10.800
REMARK INTRA:                  -1.030
REMARK UNBOUND:                -1.030
REMARK  Name = 
REMARK  5 active torsions:
REMARK  status: ('A' for Active; 'I' for Inactive)
REMARK    1  A    between atoms: C_2  and  C_4
REMARK    2  A    between atoms: C_7  and  C_8
REMARK    3  A    between atoms: C_8  and  N_9
REMARK    4  A    between atoms: N_9  and  C_10
REMARK    5  A    between atoms: C_14  and  C_15
REMARK                            x       y       z     vdW  Elec       q    Type
REMARK                         _______ _______ _______ _____ _____    ______ ____
ROOT
ATOM      1  N   UNL     1      44.004   4.607  10.833  0.00  0.00    +0.000 N 
ATOM      2  H   UNL     1      43.118   5.001  11.149  0.00  0.00    +0.000 HD
ENDROOT
BRANCH   1   3
ATOM      3  C   UNL     1      45.032   4.908  11.748  0.00  0.00    +0.000 A 
ATOM      4  C   UNL     1      45.457   4.016  12.737  0.00  0.00    +0.000 A 
ATOM      5  C   UNL     1      46.532   4.328  13.566  0.00  0.00    +0.000 A 
ATOM      6  C   UNL     1      47.231   5.523  13.394  0.00  0.00    +0.000 A 
ATOM      7  C   UNL     1      46.891   6.431  12.376  0.00  0.00    +0.000 A 
ATOM      8  C   UNL     1      45.781   6.093  11.574  0.00  0.00    +0.000 A 
ATOM      9  F   UNL     1      45.396   6.919  10.583  0.00  0.00    +0.000 F 
BRANCH   7  10
ATOM     10  C   UNL     1      47.696   7.658  12.153  0.00  0.00    +0.000 A 
ATOM     11  C   UNL     1      49.035   7.607  11.717  0.00  0.00    +0.000 A 
ATOM     12  C   UNL     1      49.795   8.769  11.531  0.00  0.00    +0.000 A 
ATOM     13  C   UNL     1      49.226  10.016  11.761  0.00  0.00    +0.000 A 
ATOM     14  C   UNL     1      47.906  10.089  12.181  0.00  0.00    +0.000 A 
ATOM     15  F   UNL     1      47.349  11.286  12.402  0.00  0.00    +0.000 F 
ATOM     16  C   UNL     1      47.151   8.936  12.382  0.00  0.00    +0.000 A 
ENDBRANCH   7  10
ENDBRANCH   1   3
BRANCH   1  17
ATOM     17  C   UNL     1      43.881   3.242  10.342  0.00  0.00    +0.000 C 
BRANCH  17  21
ATOM     18  C   UNL     1      46.773   2.382   7.243  0.00  0.00    +0.000 A 
ATOM     19  C   UNL     1      46.347   3.699   7.442  0.00  0.00    +0.000 A 
ATOM     20  C   UNL     1      45.391   3.987   8.419  0.00  0.00    +0.000 A 
ATOM     21  C   UNL     1      44.830   2.960   9.196  0.00  0.00    +0.000 A 
ATOM     22  C   UNL     1      45.254   1.640   8.977  0.00  0.00    +0.000 A 
ATOM     23  C   UNL     1      46.212   1.350   8.002  0.00  0.00    +0.000 A 
BRANCH  18  25
ATOM     24  N   UNL     1      48.972   2.776   6.281  0.00  0.00    +0.000 N 
ATOM     25  C   UNL     1      47.821   2.036   6.249  0.00  0.00    +0.000 C 
ATOM     26  O   UNL     1      47.692   1.101   5.473  0.00  0.00    +0.000 OA
ATOM     27  H   UNL     1      49.725   2.454   5.689  0.00  0.00    +0.000 HD
ATOM     28  H   UNL     1      49.212   3.360   7.070  0.00  0.00    +0.000 HD
ENDBRANCH  18  25
ENDBRANCH  17  21
ENDBRANCH   1  17
TORSDOF 5
ENDMDL
MODEL 2
REMARK VINA RESULT:    -7.783      2.485      3.101
REMARK INTER + INTRA:         -11.089
REMARK INTER:                 -10.342
REMARK INTRA:                  -0.747
REMARK UNBOUND:                -1.030
REMARK  Name = 
REMARK  5 active torsions:
REMARK  status: ('A' for Active; 'I' for Inactive)
REMARK    1  A    between atoms: C_2  and  C_4
REMARK    2  A    between atoms: C_7  and  C_8
REMARK    3  A    between atoms: C_8  and  N_9
REMARK    4  A    between atoms: N_9  and  C_10
REMARK    5  A    between atoms: C_14  and  C_15
REMARK                            x       y       z     vdW  Elec       q    Type
REMARK                         _______ _______ _______ _____ _____    ______ ____
ROOT
ATOM      1  N   UNL     1      44.832   3.983  11.717  0.00  0.00    +0.000 N 
ATOM      2  H   UNL     1      45.502   3.226  11.853  0.00  0.00    +0.000 HD
ENDROOT
BRANCH   1   3
ATOM      3  C   UNL     1      45.430   5.228  11.994  0.00  0.00    +0.000 A 
ATOM      4  C   UNL     1      44.922   6.440  11.518  0.00  0.00    +0.000 A 
ATOM      5  C   UNL     1      45.503   7.652  11.887  0.00  0.00    +0.000 A 
ATOM      6  C   UNL     1      46.578   7.677  12.774  0.00  0.00    +0.000 A 
ATOM      7  C   UNL     1      47.093   6.494  13.336  0.00  0.00    +0.000 A 
ATOM      8  C   UNL     1      46.497   5.286  12.918  0.00  0.00    +0.000 A 
ATOM      9  F   UNL     1      46.943   4.115  13.412  0.00  0.00    +0.000 F 
BRANCH   7  10
ATOM     10  C   UNL     1      48.184   6.544  14.342  0.00  0.00    +0.000 A 
ATOM     11  C   UNL     1      49.363   7.285  14.132  0.00  0.00    +0.000 A 
ATOM     12  C   UNL     1      50.398   7.308  15.076  0.00  0.00    +0.000 A 
ATOM     13  C   UNL     1      50.268   6.601  16.267  0.00  0.00    +0.000 A 
ATOM     14  C   UNL     1      49.111   5.873  16.497  0.00  0.00    +0.000 A 
ATOM     15  F   UNL     1      48.976   5.191  17.641  0.00  0.00    +0.000 F 
ATOM     16  C   UNL     1      48.085   5.834  15.554  0.00  0.00    +0.000 A 
ENDBRANCH   7  10
ENDBRANCH   1   3
BRANCH   1  17
ATOM     17  C   UNL     1      44.047   3.839  10.499  0.00  0.00    +0.000 C 
BRANCH  17  21
ATOM     18  C   UNL     1      46.607   2.341   7.351  0.00  0.00    +0.000 A 
ATOM     19  C   UNL     1      46.366   3.715   7.448  0.00  0.00    +0.000 A 
ATOM     20  C   UNL     1      45.517   4.210   8.442  0.00  0.00    +0.000 A 
ATOM     21  C   UNL     1      44.879   3.336   9.338  0.00  0.00    +0.000 A 
ATOM     22  C   UNL     1      45.116   1.958   9.221  0.00  0.00    +0.000 A 
ATOM     23  C   UNL     1      45.967   1.461   8.230  0.00  0.00    +0.000 A 
BRANCH  18  25
ATOM     24  N   UNL     1      48.584   2.568   5.954  0.00  0.00    +0.000 N 
ATOM     25  C   UNL     1      47.538   1.776   6.342  0.00  0.00    +0.000 C 
ATOM     26  O   UNL     1      47.414   0.637   5.915  0.00  0.00    +0.000 OA
ATOM     27  H   UNL     1      49.280   2.129   5.365  0.00  0.00    +0.000 HD
ATOM     28  H   UNL     1      48.861   3.385   6.479  0.00  0.00    +0.000 HD
ENDBRANCH  18  25
ENDBRANCH  17  21
ENDBRANCH   1  17
TORSDOF 5
ENDMDL
MODEL 3
REMARK VINA RESULT:    -7.680      1.986      2.558
REMARK INTER + INTRA:         -10.955
REMARK INTER:                 -10.100
REMARK INTRA:                  -0.855
REMARK UNBOUND:                -1.030
REMARK  Name = 
REMARK  5 active torsions:
REMARK  status: ('A' for Active; 'I' for Inactive)
REMARK    1  A    between atoms: C_2  and  C_4
REMARK    2  A    between atoms: C_7  and  C_8
REMARK    3  A    between atoms: C_8  and  N_9
REMARK    4  A    between atoms: N_9  and  C_10
REMARK    5  A    between atoms: C_14  and  C_15
REMARK                            x       y       z     vdW  Elec       q    Type
REMARK                         _______ _______ _______ _____ _____    ______ ____
ROOT
ATOM      1  N   UNL     1      44.647   4.508  11.678  0.00  0.00    +0.000 N 
ATOM      2  H   UNL     1      45.339   3.788  11.884  0.00  0.00    +0.000 HD
ENDROOT
BRANCH   1   3
ATOM      3  C   UNL     1      45.201   5.791  11.859  0.00  0.00    +0.000 A 
ATOM      4  C   UNL     1      44.521   6.968  11.531  0.00  0.00    +0.000 A 
ATOM      5  C   UNL     1      45.079   8.215  11.804  0.00  0.00    +0.000 A 
ATOM      6  C   UNL     1      46.312   8.309  12.449  0.00  0.00    +0.000 A 
ATOM      7  C   UNL     1      47.014   7.162  12.860  0.00  0.00    +0.000 A 
ATOM      8  C   UNL     1      46.430   5.918  12.543  0.00  0.00    +0.000 A 
ATOM      9  F   UNL     1      47.050   4.778  12.902  0.00  0.00    +0.000 F 
BRANCH   7  10
ATOM     10  C   UNL     1      48.284   7.281  13.620  0.00  0.00    +0.000 A 
ATOM     11  C   UNL     1      48.415   6.805  14.939  0.00  0.00    +0.000 A 
ATOM     12  C   UNL     1      49.610   6.942  15.657  0.00  0.00    +0.000 A 
ATOM     13  C   UNL     1      50.714   7.544  15.062  0.00  0.00    +0.000 A 
ATOM     14  C   UNL     1      50.608   8.009  13.761  0.00  0.00    +0.000 A 
ATOM     15  F   UNL     1      51.666   8.588  13.179  0.00  0.00    +0.000 F 
ATOM     16  C   UNL     1      49.417   7.890  13.048  0.00  0.00    +0.000 A 
ENDBRANCH   7  10
ENDBRANCH   1   3
BRANCH   1  17
ATOM     17  C   UNL     1      43.884   4.239  10.468  0.00  0.00    +0.000 C 
BRANCH  17  21
ATOM     18  C   UNL     1      46.484   2.383   7.551  0.00  0.00    +0.000 A 
ATOM     19  C   UNL     1      46.344   3.775   7.563  0.00  0.00    +0.000 A 
ATOM     20  C   UNL     1      45.484   4.385   8.480  0.00  0.00    +0.000 A 
ATOM     21  C   UNL     1      44.736   3.612   9.383  0.00  0.00    +0.000 A 
ATOM     22  C   UNL     1      44.873   2.216   9.351  0.00  0.00    +0.000 A 
ATOM     23  C   UNL     1      45.734   1.604   8.437  0.00  0.00    +0.000 A 
BRANCH  18  25
ATOM     24  N   UNL     1      48.510   2.410   6.205  0.00  0.00    +0.000 N 
ATOM     25  C   UNL     1      47.421   1.696   6.627  0.00  0.00    +0.000 C 
ATOM     26  O   UNL     1      47.264   0.530   6.298  0.00  0.00    +0.000 OA
ATOM     27  H   UNL     1      49.204   1.896   5.681  0.00  0.00    +0.000 HD
ATOM     28  H   UNL     1      48.804   3.260   6.665  0.00  0.00    +0.000 HD
ENDBRANCH  18  25
ENDBRANCH  17  21
ENDBRANCH   1  17
TORSDOF 5
ENDMDL
MODEL 4
REMARK VINA RESULT:    -6.903      3.852      6.083
REMARK INTER + INTRA:          -9.951
REMARK INTER:                  -8.777
REMARK INTRA:                  -1.174
REMARK UNBOUND:                -1.030
REMARK  Name = 
REMARK  5 active torsions:
REMARK  status: ('A' for Active; 'I' for Inactive)
REMARK    1  A    between atoms: C_2  and  C_4
REMARK    2  A    between atoms: C_7  and  C_8
REMARK    3  A    between atoms: C_8  and  N_9
REMARK    4  A    between atoms: N_9  and  C_10
REMARK    5  A    between atoms: C_14  and  C_15
REMARK                            x       y       z     vdW  Elec       q    Type
REMARK                         _______ _______ _______ _____ _____    ______ ____
ROOT
ATOM      1  N   UNL     1      47.596   8.047  12.483  0.00  0.00    +0.000 N 
ATOM      2  H   UNL     1      48.090   8.735  11.914  0.00  0.00    +0.000 HD
ENDROOT
BRANCH   1   3
ATOM      3  C   UNL     1      48.066   8.076  13.811  0.00  0.00    +0.000 A 
ATOM      4  C   UNL     1      48.198   9.258  14.546  0.00  0.00    +0.000 A 
ATOM      5  C   UNL     1      48.590   9.226  15.883  0.00  0.00    +0.000 A 
ATOM      6  C   UNL     1      48.817   8.008  16.523  0.00  0.00    +0.000 A 
ATOM      7  C   UNL     1      48.639   6.784  15.853  0.00  0.00    +0.000 A 
ATOM      8  C   UNL     1      48.267   6.857  14.494  0.00  0.00    +0.000 A 
ATOM      9  F   UNL     1      48.084   5.724  13.790  0.00  0.00    +0.000 F 
BRANCH   7  10
ATOM     10  C   UNL     1      48.804   5.495  16.571  0.00  0.00    +0.000 A 
ATOM     11  C   UNL     1      50.043   5.086  17.100  0.00  0.00    +0.000 A 
ATOM     12  C   UNL     1      50.196   3.857  17.755  0.00  0.00    +0.000 A 
ATOM     13  C   UNL     1      49.102   3.013  17.914  0.00  0.00    +0.000 A 
ATOM     14  C   UNL     1      47.870   3.403  17.409  0.00  0.00    +0.000 A 
ATOM     15  F   UNL     1      46.811   2.598  17.559  0.00  0.00    +0.000 F 
ATOM     16  C   UNL     1      47.717   4.616  16.742  0.00  0.00    +0.000 A 
ENDBRANCH   7  10
ENDBRANCH   1   3
BRANCH   1  17
ATOM     17  C   UNL     1      46.160   8.035  12.247  0.00  0.00    +0.000 C 
BRANCH  17  21
ATOM     18  C   UNL     1      44.489   4.151  11.334  0.00  0.00    +0.000 A 
ATOM     19  C   UNL     1      44.318   4.692  12.613  0.00  0.00    +0.000 A 
ATOM     20  C   UNL     1      44.878   5.933  12.930  0.00  0.00    +0.000 A 
ATOM     21  C   UNL     1      45.636   6.639  11.982  0.00  0.00    +0.000 A 
ATOM     22  C   UNL     1      45.815   6.079  10.707  0.00  0.00    +0.000 A 
ATOM     23  C   UNL     1      45.253   4.840  10.387  0.00  0.00    +0.000 A 
BRANCH  18  25
ATOM     24  N   UNL     1      44.478   2.171   9.922  0.00  0.00    +0.000 N 
ATOM     25  C   UNL     1      43.872   2.860  10.938  0.00  0.00    +0.000 C 
ATOM     26  O   UNL     1      42.902   2.402  11.523  0.00  0.00    +0.000 OA
ATOM     27  H   UNL     1      44.128   1.239   9.746  0.00  0.00    +0.000 HD
ATOM     28  H   UNL     1      45.415   2.387   9.613  0.00  0.00    +0.000 HD
ENDBRANCH  18  25
ENDBRANCH  17  21
ENDBRANCH   1  17
TORSDOF 5
ENDMDL
MODEL 5
REMARK VINA RESULT:    -6.869      2.607      4.414
REMARK INTER + INTRA:          -9.908
REMARK INTER:                  -9.421
REMARK INTRA:                  -0.487
REMARK UNBOUND:                -1.030
REMARK  Name = 
REMARK  5 active torsions:
REMARK  status: ('A' for Active; 'I' for Inactive)
REMARK    1  A    between atoms: C_2  and  C_4
REMARK    2  A    between atoms: C_7  and  C_8
REMARK    3  A    between atoms: C_8  and  N_9
REMARK    4  A    between atoms: N_9  and  C_10
REMARK    5  A    between atoms: C_14  and  C_15
REMARK                            x       y       z     vdW  Elec       q    Type
REMARK                         _______ _______ _______ _____ _____    ______ ____
ROOT
ATOM      1  N   UNL     1      44.209   5.358  11.282  0.00  0.00    +0.000 N 
ATOM      2  H   UNL     1      43.460   5.802  11.812  0.00  0.00    +0.000 HD
ENDROOT
BRANCH   1   3
ATOM      3  C   UNL     1      45.460   5.635  11.867  0.00  0.00    +0.000 A 
ATOM      4  C   UNL     1      46.322   6.626  11.388  0.00  0.00    +0.000 A 
ATOM      5  C   UNL     1      47.513   6.917  12.050  0.00  0.00    +0.000 A 
ATOM      6  C   UNL     1      47.846   6.250  13.229  0.00  0.00    +0.000 A 
ATOM      7  C   UNL     1      46.989   5.288  13.794  0.00  0.00    +0.000 A 
ATOM      8  C   UNL     1      45.805   5.002  13.081  0.00  0.00    +0.000 A 
ATOM      9  F   UNL     1      44.941   4.088  13.561  0.00  0.00    +0.000 F 
BRANCH   7  10
ATOM     10  C   UNL     1      47.317   4.648  15.092  0.00  0.00    +0.000 A 
ATOM     11  C   UNL     1      47.151   5.318  16.321  0.00  0.00    +0.000 A 
ATOM     12  C   UNL     1      47.485   4.715  17.540  0.00  0.00    +0.000 A 
ATOM     13  C   UNL     1      47.978   3.415  17.561  0.00  0.00    +0.000 A 
ATOM     14  C   UNL     1      48.139   2.735  16.363  0.00  0.00    +0.000 A 
ATOM     15  F   UNL     1      48.610   1.481  16.374  0.00  0.00    +0.000 F 
ATOM     16  C   UNL     1      47.823   3.336  15.147  0.00  0.00    +0.000 A 
ENDBRANCH   7  10
ENDBRANCH   1   3
BRANCH   1  17
ATOM     17  C   UNL     1      43.904   3.987  10.898  0.00  0.00    +0.000 C 
BRANCH  17  21
ATOM     18  C   UNL     1      46.268   2.656   7.528  0.00  0.00    +0.000 A 
ATOM     19  C   UNL     1      45.722   1.712   8.404  0.00  0.00    +0.000 A 
ATOM     20  C   UNL     1      44.982   2.129   9.513  0.00  0.00    +0.000 A 
ATOM     21  C   UNL     1      44.795   3.497   9.776  0.00  0.00    +0.000 A 
ATOM     22  C   UNL     1      45.361   4.435   8.899  0.00  0.00    +0.000 A 
ATOM     23  C   UNL     1      46.099   4.020   7.787  0.00  0.00    +0.000 A 
BRANCH  18  25
ATOM     24  N   UNL     1      47.235   3.229   5.371  0.00  0.00    +0.000 N 
ATOM     25  C   UNL     1      47.020   2.258   6.312  0.00  0.00    +0.000 C 
ATOM     26  O   UNL     1      47.476   1.133   6.174  0.00  0.00    +0.000 OA
ATOM     27  H   UNL     1      47.853   2.983   4.610  0.00  0.00    +0.000 HD
ATOM     28  H   UNL     1      47.111   4.210   5.577  0.00  0.00    +0.000 HD
ENDBRANCH  18  25
ENDBRANCH  17  21
ENDBRANCH   1  17
TORSDOF 5
ENDMDL
MODEL 6
REMARK VINA RESULT:    -6.838      3.553      7.322
REMARK INTER + INTRA:          -9.867
REMARK INTER:                  -8.913
REMARK INTRA:                  -0.954
REMARK UNBOUND:                -1.030
REMARK  Name = 
REMARK  5 active torsions:
REMARK  status: ('A' for Active; 'I' for Inactive)
REMARK    1  A    between atoms: C_2  and  C_4
REMARK    2  A    between atoms: C_7  and  C_8
REMARK    3  A    between atoms: C_8  and  N_9
REMARK    4  A    between atoms: N_9  and  C_10
REMARK    5  A    between atoms: C_14  and  C_15
REMARK                            x       y       z     vdW  Elec       q    Type
REMARK                         _______ _______ _______ _____ _____    ______ ____
ROOT
ATOM      1  N   UNL     1      45.471   7.094  13.260  0.00  0.00    +0.000 N 
ATOM      2  H   UNL     1      45.292   7.016  14.261  0.00  0.00    +0.000 HD
ENDROOT
BRANCH   1   3
ATOM      3  C   UNL     1      44.723   6.135  12.549  0.00  0.00    +0.000 A 
ATOM      4  C   UNL     1      43.353   5.937  12.747  0.00  0.00    +0.000 A 
ATOM      5  C   UNL     1      42.642   5.032  11.962  0.00  0.00    +0.000 A 
ATOM      6  C   UNL     1      43.279   4.337  10.934  0.00  0.00    +0.000 A 
ATOM      7  C   UNL     1      44.640   4.541  10.646  0.00  0.00    +0.000 A 
ATOM      8  C   UNL     1      45.333   5.445  11.478  0.00  0.00    +0.000 A 
ATOM      9  F   UNL     1      46.640   5.684  11.263  0.00  0.00    +0.000 F 
BRANCH   7  10
ATOM     10  C   UNL     1      45.283   3.857   9.496  0.00  0.00    +0.000 A 
ATOM     11  C   UNL     1      45.906   4.570   8.453  0.00  0.00    +0.000 A 
ATOM     12  C   UNL     1      46.490   3.917   7.359  0.00  0.00    +0.000 A 
ATOM     13  C   UNL     1      46.481   2.528   7.293  0.00  0.00    +0.000 A 
ATOM     14  C   UNL     1      45.882   1.807   8.315  0.00  0.00    +0.000 A 
ATOM     15  F   UNL     1      45.871   0.470   8.261  0.00  0.00    +0.000 F 
ATOM     16  C   UNL     1      45.286   2.452   9.397  0.00  0.00    +0.000 A 
ENDBRANCH   7  10
ENDBRANCH   1   3
BRANCH   1  17
ATOM     17  C   UNL     1      45.478   8.470  12.785  0.00  0.00    +0.000 C 
BRANCH  17  21
ATOM     18  C   UNL     1      49.460   9.837  11.791  0.00  0.00    +0.000 A 
ATOM     19  C   UNL     1      49.300   8.732  12.634  0.00  0.00    +0.000 A 
ATOM     20  C   UNL     1      48.019   8.299  12.987  0.00  0.00    +0.000 A 
ATOM     21  C   UNL     1      46.881   8.976  12.521  0.00  0.00    +0.000 A 
ATOM     22  C   UNL     1      47.053  10.093  11.689  0.00  0.00    +0.000 A 
ATOM     23  C   UNL     1      48.332  10.527  11.332  0.00  0.00    +0.000 A 
BRANCH  18  25
ATOM     24  N   UNL     1      51.826  10.168  12.245  0.00  0.00    +0.000 N 
ATOM     25  C   UNL     1      50.798  10.303  11.351  0.00  0.00    +0.000 C 
ATOM     26  O   UNL     1      50.993  10.738  10.226  0.00  0.00    +0.000 OA
ATOM     27  H   UNL     1      52.752  10.370  11.894  0.00  0.00    +0.000 HD
ATOM     28  H   UNL     1      51.752   9.575  13.060  0.00  0.00    +0.000 HD
ENDBRANCH  18  25
ENDBRANCH  17  21
ENDBRANCH   1  17
TORSDOF 5
ENDMDL
MODEL 7
REMARK VINA RESULT:    -6.802      4.634      8.308
REMARK INTER + INTRA:          -9.821
REMARK INTER:                  -9.512
REMARK INTRA:                  -0.309
REMARK UNBOUND:                -1.030
REMARK  Name = 
REMARK  5 active torsions:
REMARK  status: ('A' for Active; 'I' for Inactive)
REMARK    1  A    between atoms: C_2  and  C_4
REMARK    2  A    between atoms: C_7  and  C_8
REMARK    3  A    between atoms: C_8  and  N_9
REMARK    4  A    between atoms: N_9  and  C_10
REMARK    5  A    between atoms: C_14  and  C_15
REMARK                            x       y       z     vdW  Elec       q    Type
REMARK                         _______ _______ _______ _____ _____    ______ ____
ROOT
ATOM      1  N   UNL     1      45.406   4.717  14.188  0.00  0.00    +0.000 N 
ATOM      2  H   UNL     1      44.887   5.209  14.916  0.00  0.00    +0.000 HD
ENDROOT
BRANCH   1   3
ATOM      3  C   UNL     1      44.677   4.709  12.983  0.00  0.00    +0.000 A 
ATOM      4  C   UNL     1      43.485   5.417  12.808  0.00  0.00    +0.000 A 
ATOM      5  C   UNL     1      42.843   5.443  11.571  0.00  0.00    +0.000 A 
ATOM      6  C   UNL     1      43.406   4.794  10.472  0.00  0.00    +0.000 A 
ATOM      7  C   UNL     1      44.636   4.118  10.570  0.00  0.00    +0.000 A 
ATOM      8  C   UNL     1      45.241   4.092  11.844  0.00  0.00    +0.000 A 
ATOM      9  F   UNL     1      46.417   3.458  12.012  0.00  0.00    +0.000 F 
BRANCH   7  10
ATOM     10  C   UNL     1      45.262   3.504   9.373  0.00  0.00    +0.000 A 
ATOM     11  C   UNL     1      45.742   4.278   8.299  0.00  0.00    +0.000 A 
ATOM     12  C   UNL     1      46.311   3.689   7.161  0.00  0.00    +0.000 A 
ATOM     13  C   UNL     1      46.429   2.306   7.080  0.00  0.00    +0.000 A 
ATOM     14  C   UNL     1      45.971   1.527   8.132  0.00  0.00    +0.000 A 
ATOM     15  F   UNL     1      46.083   0.194   8.064  0.00  0.00    +0.000 F 
ATOM     16  C   UNL     1      45.390   2.106   9.258  0.00  0.00    +0.000 A 
ENDBRANCH   7  10
ENDBRANCH   1   3
BRANCH   1  17
ATOM     17  C   UNL     1      46.817   5.072  14.152  0.00  0.00    +0.000 C 
BRANCH  17  21
ATOM     18  C   UNL     1      48.993   4.402  17.830  0.00  0.00    +0.000 A 
ATOM     19  C   UNL     1      48.237   3.363  17.277  0.00  0.00    +0.000 A 
ATOM     20  C   UNL     1      47.504   3.575  16.106  0.00  0.00    +0.000 A 
ATOM     21  C   UNL     1      47.500   4.834  15.482  0.00  0.00    +0.000 A 
ATOM     22  C   UNL     1      48.251   5.873  16.055  0.00  0.00    +0.000 A 
ATOM     23  C   UNL     1      48.985   5.663  17.224  0.00  0.00    +0.000 A 
BRANCH  18  25
ATOM     24  N   UNL     1      49.158   4.040  20.229  0.00  0.00    +0.000 N 
ATOM     25  C   UNL     1      49.824   4.209  19.045  0.00  0.00    +0.000 C 
ATOM     26  O   UNL     1      51.043   4.148  18.991  0.00  0.00    +0.000 OA
ATOM     27  H   UNL     1      49.724   3.784  21.026  0.00  0.00    +0.000 HD
ATOM     28  H   UNL     1      48.173   3.817  20.263  0.00  0.00    +0.000 HD
ENDBRANCH  18  25
ENDBRANCH  17  21
ENDBRANCH   1  17
TORSDOF 5
ENDMDL
MODEL 8
REMARK VINA RESULT:    -6.701      5.046      8.140
REMARK INTER + INTRA:          -9.690
REMARK INTER:                  -8.873
REMARK INTRA:                  -0.817
REMARK UNBOUND:                -1.030
REMARK  Name = 
REMARK  5 active torsions:
REMARK  status: ('A' for Active; 'I' for Inactive)
REMARK    1  A    between atoms: C_2  and  C_4
REMARK    2  A    between atoms: C_7  and  C_8
REMARK    3  A    between atoms: C_8  and  N_9
REMARK    4  A    between atoms: N_9  and  C_10
REMARK    5  A    between atoms: C_14  and  C_15
REMARK                            x       y       z     vdW  Elec       q    Type
REMARK                         _______ _______ _______ _____ _____    ______ ____
ROOT
ATOM      1  N   UNL     1      48.765   6.639  14.962  0.00  0.00    +0.000 N 
ATOM      2  H   UNL     1      49.347   5.944  14.494  0.00  0.00    +0.000 HD
ENDROOT
BRANCH   1   3
ATOM      3  C   UNL     1      47.695   7.027  14.131  0.00  0.00    +0.000 A 
ATOM      4  C   UNL     1      47.297   8.358  13.974  0.00  0.00    +0.000 A 
ATOM      5  C   UNL     1      46.286   8.700  13.079  0.00  0.00    +0.000 A 
ATOM      6  C   UNL     1      45.680   7.720  12.292  0.00  0.00    +0.000 A 
ATOM      7  C   UNL     1      46.081   6.373  12.360  0.00  0.00    +0.000 A 
ATOM      8  C   UNL     1      47.089   6.062  13.296  0.00  0.00    +0.000 A 
ATOM      9  F   UNL     1      47.518   4.792  13.419  0.00  0.00    +0.000 F 
BRANCH   7  10
ATOM     10  C   UNL     1      45.485   5.357  11.457  0.00  0.00    +0.000 A 
ATOM     11  C   UNL     1      45.688   5.383  10.063  0.00  0.00    +0.000 A 
ATOM     12  C   UNL     1      45.102   4.433   9.216  0.00  0.00    +0.000 A 
ATOM     13  C   UNL     1      44.311   3.420   9.747  0.00  0.00    +0.000 A 
ATOM     14  C   UNL     1      44.107   3.372  11.118  0.00  0.00    +0.000 A 
ATOM     15  F   UNL     1      43.350   2.399  11.639  0.00  0.00    +0.000 F 
ATOM     16  C   UNL     1      44.674   4.323  11.964  0.00  0.00    +0.000 A 
ENDBRANCH   7  10
ENDBRANCH   1   3
BRANCH   1  17
ATOM     17  C   UNL     1      48.488   6.310  16.352  0.00  0.00    +0.000 C 
BRANCH  17  21
ATOM     18  C   UNL     1      51.018   3.006  17.534  0.00  0.00    +0.000 A 
ATOM     19  C   UNL     1      49.659   2.781  17.288  0.00  0.00    +0.000 A 
ATOM     20  C   UNL     1      48.824   3.845  16.935  0.00  0.00    +0.000 A 
ATOM     21  C   UNL     1      49.331   5.152  16.845  0.00  0.00    +0.000 A 
ATOM     22  C   UNL     1      50.692   5.368  17.109  0.00  0.00    +0.000 A 
ATOM     23  C   UNL     1      51.529   4.306  17.459  0.00  0.00    +0.000 A 
BRANCH  18  25
ATOM     24  N   UNL     1      51.412   0.645  17.963  0.00  0.00    +0.000 N 
ATOM     25  C   UNL     1      51.950   1.899  17.865  0.00  0.00    +0.000 C 
ATOM     26  O   UNL     1      53.152   2.084  17.991  0.00  0.00    +0.000 OA
ATOM     27  H   UNL     1      52.071  -0.116  18.063  0.00  0.00    +0.000 HD
ATOM     28  H   UNL     1      50.494   0.426  17.603  0.00  0.00    +0.000 HD
ENDBRANCH  18  25
ENDBRANCH  17  21
ENDBRANCH   1  17
TORSDOF 5
ENDMDL
MODEL 9
REMARK VINA RESULT:    -6.493      5.044      8.622
REMARK INTER + INTRA:          -9.421
REMARK INTER:                  -8.507
REMARK INTRA:                  -0.914
REMARK UNBOUND:                -1.030
REMARK  Name = 
REMARK  5 active torsions:
REMARK  status: ('A' for Active; 'I' for Inactive)
REMARK    1  A    between atoms: C_2  and  C_4
REMARK    2  A    between atoms: C_7  and  C_8
REMARK    3  A    between atoms: C_8  and  N_9
REMARK    4  A    between atoms: N_9  and  C_10
REMARK    5  A    between atoms: C_14  and  C_15
REMARK                            x       y       z     vdW  Elec       q    Type
REMARK                         _______ _______ _______ _____ _____    ______ ____
ROOT
ATOM      1  N   UNL     1      48.594   7.442  14.095  0.00  0.00    +0.000 N 
ATOM      2  H   UNL     1      48.886   6.466  14.142  0.00  0.00    +0.000 HD
ENDROOT
BRANCH   1   3
ATOM      3  C   UNL     1      47.357   7.556  13.432  0.00  0.00    +0.000 A 
ATOM      4  C   UNL     1      46.648   8.757  13.342  0.00  0.00    +0.000 A 
ATOM      5  C   UNL     1      45.467   8.836  12.606  0.00  0.00    +0.000 A 
ATOM      6  C   UNL     1      44.993   7.724  11.912  0.00  0.00    +0.000 A 
ATOM      7  C   UNL     1      45.695   6.504  11.914  0.00  0.00    +0.000 A 
ATOM      8  C   UNL     1      46.872   6.456  12.691  0.00  0.00    +0.000 A 
ATOM      9  F   UNL     1      47.591   5.319  12.742  0.00  0.00    +0.000 F 
BRANCH   7  10
ATOM     10  C   UNL     1      45.222   5.355  11.103  0.00  0.00    +0.000 A 
ATOM     11  C   UNL     1      45.560   5.207   9.744  0.00  0.00    +0.000 A 
ATOM     12  C   UNL     1      45.089   4.131   8.979  0.00  0.00    +0.000 A 
ATOM     13  C   UNL     1      44.281   3.163   9.565  0.00  0.00    +0.000 A 
ATOM     14  C   UNL     1      43.946   3.285  10.905  0.00  0.00    +0.000 A 
ATOM     15  F   UNL     1      43.170   2.355  11.478  0.00  0.00    +0.000 F 
ATOM     16  C   UNL     1      44.398   4.361  11.665  0.00  0.00    +0.000 A 
ENDBRANCH   7  10
ENDBRANCH   1   3
BRANCH   1  17
ATOM     17  C   UNL     1      48.786   8.159  15.347  0.00  0.00    +0.000 C 
BRANCH  17  21
ATOM     18  C   UNL     1      48.653   5.428  18.700  0.00  0.00    +0.000 A 
ATOM     19  C   UNL     1      48.699   6.806  18.934  0.00  0.00    +0.000 A 
ATOM     20  C   UNL     1      48.773   7.698  17.861  0.00  0.00    +0.000 A 
ATOM     21  C   UNL     1      48.824   7.225  16.540  0.00  0.00    +0.000 A 
ATOM     22  C   UNL     1      48.794   5.840  16.317  0.00  0.00    +0.000 A 
ATOM     23  C   UNL     1      48.717   4.946  17.388  0.00  0.00    +0.000 A 
BRANCH  18  25
ATOM     24  N   UNL     1      48.429   3.127  19.455  0.00  0.00    +0.000 N 
ATOM     25  C   UNL     1      48.527   4.446  19.806  0.00  0.00    +0.000 C 
ATOM     26  O   UNL     1      48.562   4.787  20.979  0.00  0.00    +0.000 OA
ATOM     27  H   UNL     1      48.471   2.460  20.213  0.00  0.00    +0.000 HD
ATOM     28  H   UNL     1      48.667   2.800  18.529  0.00  0.00    +0.000 HD
ENDBRANCH  18  25
ENDBRANCH  17  21
ENDBRANCH   1  17
TORSDOF 5
ENDMDL
