MODEL 1
REMARK VINA RESULT:    -8.426      0.000      0.000
REMARK INTER + INTRA:         -13.063
REMARK INTER:                 -11.873
REMARK INTRA:                  -1.189
REMARK UNBOUND:                -1.189
REMARK  Name = 
REMARK  7 active torsions:
REMARK  status: ('A' for Active; 'I' for Inactive)
REMARK    1  A    between atoms: C_2  and  C_3
REMARK    2  A    between atoms: C_2  and  C_11
REMARK    3  A    between atoms: C_3  and  C_4
REMARK    4  A    between atoms: C_4  and  C_5
REMARK    5  A    between atoms: C_14  and  C_15
REMARK    6  A    between atoms: C_15  and  N_16
REMARK    7  A    between atoms: C_17  and  C_19
REMARK                            x       y       z     vdW  Elec       q    Type
REMARK                         _______ _______ _______ _____ _____    ______ ____
ROOT
ATOM      1  C   UNL     1      44.787   4.548  11.175  0.00  0.00    +0.000 A 
ATOM      2  C   UNL     1      45.574   5.400  10.407  0.00  0.00    +0.000 A 
ATOM      3  C   UNL     1      46.260   6.430  11.044  0.00  0.00    +0.000 A 
ATOM      4  C   UNL     1      46.138   6.593  12.426  0.00  0.00    +0.000 A 
ATOM      5  C   UNL     1      45.342   5.677  13.108  0.00  0.00    +0.000 A 
ATOM      6  N   UNL     1      44.660   4.665  12.520  0.00  0.00    +0.000 NA
ENDROOT
BRANCH   1   8
ATOM      7  O   UNL     1      43.210   2.796  11.135  0.00  0.00    +0.000 OA
ATOM      8  C   UNL     1      44.048   3.439  10.497  0.00  0.00    +0.000 C 
BRANCH   8   9
ATOM      9  C   UNL     1      44.376   3.115   9.050  0.00  0.00    +0.000 C 
BRANCH   9  10
ATOM     10  C   UNL     1      45.528   2.106   8.991  0.00  0.00    +0.000 C 
BRANCH  10  11
ATOM     11  C   UNL     1      46.287   2.114   7.688  0.00  0.00    +0.000 A 
ATOM     12  C   UNL     1      47.000   0.984   7.278  0.00  0.00    +0.000 A 
ATOM     13  C   UNL     1      47.650   1.012   6.052  0.00  0.00    +0.000 A 
ATOM     14  N   UNL     1      47.638   2.073   5.219  0.00  0.00    +0.000 NA
ATOM     15  C   UNL     1      46.940   3.153   5.630  0.00  0.00    +0.000 A 
ATOM     16  C   UNL     1      46.256   3.221   6.836  0.00  0.00    +0.000 A 
ENDBRANCH  10  11
ENDBRANCH   9  10
ENDBRANCH   8   9
ENDBRANCH   1   8
BRANCH   4  17
ATOM     17  C   UNL     1      46.866   7.692  13.145  0.00  0.00    +0.000 C 
BRANCH  17  18
ATOM     18  N   UNL     1      47.360   7.251  14.425  0.00  0.00    +0.000 N 
ATOM     19  C   UNL     1      48.652   6.806  14.570  0.00  0.00    +0.000 C 
ATOM     20  O   UNL     1      49.447   6.810  13.635  0.00  0.00    +0.000 OA
ATOM     21  H   UNL     1      46.674   7.002  15.132  0.00  0.00    +0.000 HD
BRANCH  19  22
ATOM     22  C   UNL     1      49.053   6.383  15.918  0.00  0.00    +0.000 A 
ATOM     23  C   UNL     1      49.984   7.131  16.626  0.00  0.00    +0.000 A 
ATOM     24  S   UNL     1      50.309   6.520  18.186  0.00  0.00    +0.000 S 
ATOM     25  C   UNL     1      49.257   5.205  17.949  0.00  0.00    +0.000 A 
ATOM     26  N   UNL     1      49.096   4.255  18.911  0.00  0.00    +0.000 NA
ATOM     27  C   UNL     1      48.296   3.296  18.585  0.00  0.00    +0.000 A 
ATOM     28  N   UNL     1      47.631   3.207  17.390  0.00  0.00    +0.000 N 
ATOM     29  C   UNL     1      47.726   4.164  16.408  0.00  0.00    +0.000 A 
ATOM     30  O   UNL     1      47.063   4.093  15.379  0.00  0.00    +0.000 OA
ATOM     31  C   UNL     1      48.642   5.248  16.711  0.00  0.00    +0.000 A 
ATOM     32  H   UNL     1      47.003   2.438  17.206  0.00  0.00    +0.000 HD
ENDBRANCH  19  22
ENDBRANCH  17  18
ENDBRANCH   4  17
TORSDOF 7
ENDMDL
MODEL 2
REMARK VINA RESULT:    -8.199      1.318      1.475
REMARK INTER + INTRA:         -12.743
REMARK INTER:                 -11.861
REMARK INTRA:                  -0.882
REMARK UNBOUND:                -1.189
REMARK  Name = 
REMARK  7 active torsions:
REMARK  status: ('A' for Active; 'I' for Inactive)
REMARK    1  A    between atoms: C_2  and  C_3
REMARK    2  A    between atoms: C_2  and  C_11
REMARK    3  A    between atoms: C_3  and  C_4
REMARK    4  A    between atoms: C_4  and  C_5
REMARK    5  A    between atoms: C_14  and  C_15
REMARK    6  A    between atoms: C_15  and  N_16
REMARK    7  A    between atoms: C_17  and  C_19
REMARK                            x       y       z     vdW  Elec       q    Type
REMARK                         _______ _______ _______ _____ _____    ______ ____
ROOT
ATOM      1  C   UNL     1      45.041   4.492  11.600  0.00  0.00    +0.000 A 
ATOM      2  C   UNL     1      45.418   5.644  10.917  0.00  0.00    +0.000 A 
ATOM      3  C   UNL     1      46.387   6.467  11.484  0.00  0.00    +0.000 A 
ATOM      4  C   UNL     1      46.948   6.131  12.717  0.00  0.00    +0.000 A 
ATOM      5  C   UNL     1      46.518   4.947  13.312  0.00  0.00    +0.000 A 
ATOM      6  N   UNL     1      45.577   4.124  12.790  0.00  0.00    +0.000 NA
ENDROOT
BRANCH   1   8
ATOM      7  O   UNL     1      42.822   3.744  11.329  0.00  0.00    +0.000 OA
ATOM      8  C   UNL     1      44.002   3.602  10.997  0.00  0.00    +0.000 C 
BRANCH   8   9
ATOM      9  C   UNL     1      44.435   2.525  10.018  0.00  0.00    +0.000 C 
BRANCH   9  10
ATOM     10  C   UNL     1      44.704   3.149   8.644  0.00  0.00    +0.000 C 
BRANCH  10  11
ATOM     11  C   UNL     1      45.917   2.591   7.942  0.00  0.00    +0.000 A 
ATOM     12  C   UNL     1      46.220   1.229   8.028  0.00  0.00    +0.000 A 
ATOM     13  C   UNL     1      47.318   0.743   7.332  0.00  0.00    +0.000 A 
ATOM     14  N   UNL     1      48.122   1.510   6.566  0.00  0.00    +0.000 NA
ATOM     15  C   UNL     1      47.810   2.821   6.492  0.00  0.00    +0.000 A 
ATOM     16  C   UNL     1      46.732   3.400   7.148  0.00  0.00    +0.000 A 
ENDBRANCH  10  11
ENDBRANCH   9  10
ENDBRANCH   8   9
ENDBRANCH   1   8
BRANCH   4  17
ATOM     17  C   UNL     1      47.997   6.995  13.355  0.00  0.00    +0.000 C 
BRANCH  17  18
ATOM     18  N   UNL     1      47.881   6.997  14.792  0.00  0.00    +0.000 N 
ATOM     19  C   UNL     1      48.989   6.857  15.592  0.00  0.00    +0.000 C 
ATOM     20  O   UNL     1      50.121   6.773  15.122  0.00  0.00    +0.000 OA
ATOM     21  H   UNL     1      46.965   6.811  15.188  0.00  0.00    +0.000 HD
BRANCH  19  22
ATOM     22  C   UNL     1      48.759   6.875  17.042  0.00  0.00    +0.000 A 
ATOM     23  C   UNL     1      48.500   8.079  17.683  0.00  0.00    +0.000 A 
ATOM     24  S   UNL     1      48.221   7.916  19.359  0.00  0.00    +0.000 S 
ATOM     25  C   UNL     1      48.489   6.238  19.295  0.00  0.00    +0.000 A 
ATOM     26  N   UNL     1      48.436   5.478  20.422  0.00  0.00    +0.000 NA
ATOM     27  C   UNL     1      48.693   4.226  20.235  0.00  0.00    +0.000 A 
ATOM     28  N   UNL     1      48.985   3.664  19.020  0.00  0.00    +0.000 N 
ATOM     29  C   UNL     1      49.004   4.382  17.848  0.00  0.00    +0.000 A 
ATOM     30  O   UNL     1      49.197   3.838  16.766  0.00  0.00    +0.000 OA
ATOM     31  C   UNL     1      48.755   5.803  18.009  0.00  0.00    +0.000 A 
ATOM     32  H   UNL     1      49.158   2.672  18.939  0.00  0.00    +0.000 HD
ENDBRANCH  19  22
ENDBRANCH  17  18
ENDBRANCH   4  17
TORSDOF 7
ENDMDL
MODEL 3
REMARK VINA RESULT:    -7.545      2.220      2.705
REMARK INTER + INTRA:         -11.822
REMARK INTER:                 -10.977
REMARK INTRA:                  -0.845
REMARK UNBOUND:                -1.189
REMARK  Name = 
REMARK  7 active torsions:
REMARK  status: ('A' for Active; 'I' for Inactive)
REMARK    1  A    between atoms: C_2  and  C_3
REMARK    2  A    between atoms: C_2  and  C_11
REMARK    3  A    between atoms: C_3  and  C_4
REMARK    4  A    between atoms: C_4  and  C_5
REMARK    5  A    between atoms: C_14  and  C_15
REMARK    6  A    between atoms: C_15  and  N_16
REMARK    7  A    between atoms: C_17  and  C_19
REMARK                            x       y       z     vdW  Elec       q    Type
REMARK                         _______ _______ _______ _____ _____    ______ ____
ROOT
ATOM      1  C   UNL     1      45.031   4.758  11.600  0.00  0.00    +0.000 A 
ATOM      2  C   UNL     1      45.418   4.120  12.774  0.00  0.00    +0.000 A 
ATOM      3  C   UNL     1      46.412   4.704  13.554  0.00  0.00    +0.000 A 
ATOM      4  C   UNL     1      47.002   5.901  13.143  0.00  0.00    +0.000 A 
ATOM      5  C   UNL     1      46.532   6.471  11.963  0.00  0.00    +0.000 A 
ATOM      6  N   UNL     1      45.569   5.930  11.179  0.00  0.00    +0.000 NA
ENDROOT
BRANCH   1   8
ATOM      7  O   UNL     1      42.901   3.799  11.284  0.00  0.00    +0.000 OA
ATOM      8  C   UNL     1      43.964   4.136  10.757  0.00  0.00    +0.000 C 
BRANCH   8   9
ATOM      9  C   UNL     1      44.235   3.907   9.281  0.00  0.00    +0.000 C 
BRANCH   9  10
ATOM     10  C   UNL     1      44.587   2.435   9.040  0.00  0.00    +0.000 C 
BRANCH  10  11
ATOM     11  C   UNL     1      45.810   2.227   8.181  0.00  0.00    +0.000 A 
ATOM     12  C   UNL     1      46.340   0.945   8.003  0.00  0.00    +0.000 A 
ATOM     13  C   UNL     1      47.438   0.785   7.171  0.00  0.00    +0.000 A 
ATOM     14  N   UNL     1      48.037   1.800   6.512  0.00  0.00    +0.000 NA
ATOM     15  C   UNL     1      47.508   3.029   6.693  0.00  0.00    +0.000 A 
ATOM     16  C   UNL     1      46.411   3.289   7.503  0.00  0.00    +0.000 A 
ENDBRANCH  10  11
ENDBRANCH   9  10
ENDBRANCH   8   9
ENDBRANCH   1   8
BRANCH   4  17
ATOM     17  C   UNL     1      48.075   6.560  13.962  0.00  0.00    +0.000 C 
BRANCH  17  18
ATOM     18  N   UNL     1      47.995   6.174  15.349  0.00  0.00    +0.000 N 
ATOM     19  C   UNL     1      48.857   6.699  16.280  0.00  0.00    +0.000 C 
ATOM     20  O   UNL     1      49.693   7.548  15.983  0.00  0.00    +0.000 OA
ATOM     21  H   UNL     1      47.502   5.313  15.568  0.00  0.00    +0.000 HD
BRANCH  19  22
ATOM     22  C   UNL     1      48.687   6.240  17.665  0.00  0.00    +0.000 A 
ATOM     23  C   UNL     1      48.975   4.922  17.994  0.00  0.00    +0.000 A 
ATOM     24  S   UNL     1      48.757   4.568  19.649  0.00  0.00    +0.000 S 
ATOM     25  C   UNL     1      48.219   6.149  19.973  0.00  0.00    +0.000 A 
ATOM     26  N   UNL     1      47.828   6.512  21.225  0.00  0.00    +0.000 NA
ATOM     27  C   UNL     1      47.411   7.730  21.321  0.00  0.00    +0.000 A 
ATOM     28  N   UNL     1      47.362   8.622  20.282  0.00  0.00    +0.000 N 
ATOM     29  C   UNL     1      47.790   8.315  19.012  0.00  0.00    +0.000 A 
ATOM     30  O   UNL     1      47.802   9.156  18.120  0.00  0.00    +0.000 OA
ATOM     31  C   UNL     1      48.236   6.945  18.842  0.00  0.00    +0.000 A 
ATOM     32  H   UNL     1      47.043   9.569  20.429  0.00  0.00    +0.000 HD
ENDBRANCH  19  22
ENDBRANCH  17  18
ENDBRANCH   4  17
TORSDOF 7
ENDMDL
MODEL 4
REMARK VINA RESULT:    -7.393      2.413      2.923
REMARK INTER + INTRA:         -11.607
REMARK INTER:                 -10.569
REMARK INTRA:                  -1.038
REMARK UNBOUND:                -1.189
REMARK  Name = 
REMARK  7 active torsions:
REMARK  status: ('A' for Active; 'I' for Inactive)
REMARK    1  A    between atoms: C_2  and  C_3
REMARK    2  A    between atoms: C_2  and  C_11
REMARK    3  A    between atoms: C_3  and  C_4
REMARK    4  A    between atoms: C_4  and  C_5
REMARK    5  A    between atoms: C_14  and  C_15
REMARK    6  A    between atoms: C_15  and  N_16
REMARK    7  A    between atoms: C_17  and  C_19
REMARK                            x       y       z     vdW  Elec       q    Type
REMARK                         _______ _______ _______ _____ _____    ______ ____
ROOT
ATOM      1  C   UNL     1      45.471   4.809  11.767  0.00  0.00    +0.000 A 
ATOM      2  C   UNL     1      45.554   3.511  12.262  0.00  0.00    +0.000 A 
ATOM      3  C   UNL     1      46.269   3.290  13.436  0.00  0.00    +0.000 A 
ATOM      4  C   UNL     1      46.892   4.361  14.081  0.00  0.00    +0.000 A 
ATOM      5  C   UNL     1      46.735   5.624  13.516  0.00  0.00    +0.000 A 
ATOM      6  N   UNL     1      46.048   5.875  12.376  0.00  0.00    +0.000 NA
ENDROOT
BRANCH   1   8
ATOM      7  O   UNL     1      43.503   5.329  10.578  0.00  0.00    +0.000 OA
ATOM      8  C   UNL     1      44.703   5.054  10.508  0.00  0.00    +0.000 C 
BRANCH   8   9
ATOM      9  C   UNL     1      45.419   4.923   9.175  0.00  0.00    +0.000 C 
BRANCH   9  10
ATOM     10  C   UNL     1      44.876   3.711   8.410  0.00  0.00    +0.000 C 
BRANCH  10  11
ATOM     11  C   UNL     1      45.937   2.900   7.707  0.00  0.00    +0.000 A 
ATOM     12  C   UNL     1      46.232   1.602   8.132  0.00  0.00    +0.000 A 
ATOM     13  C   UNL     1      47.181   0.870   7.435  0.00  0.00    +0.000 A 
ATOM     14  N   UNL     1      47.847   1.335   6.357  0.00  0.00    +0.000 NA
ATOM     15  C   UNL     1      47.544   2.589   5.959  0.00  0.00    +0.000 A 
ATOM     16  C   UNL     1      46.609   3.398   6.589  0.00  0.00    +0.000 A 
ENDBRANCH  10  11
ENDBRANCH   9  10
ENDBRANCH   8   9
ENDBRANCH   1   8
BRANCH   4  17
ATOM     17  C   UNL     1      47.670   4.157  15.349  0.00  0.00    +0.000 C 
BRANCH  17  18
ATOM     18  N   UNL     1      47.572   5.301  16.220  0.00  0.00    +0.000 N 
ATOM     19  C   UNL     1      48.663   6.099  16.465  0.00  0.00    +0.000 C 
ATOM     20  O   UNL     1      49.746   5.902  15.921  0.00  0.00    +0.000 OA
ATOM     21  H   UNL     1      46.786   5.336  16.862  0.00  0.00    +0.000 HD
BRANCH  19  22
ATOM     22  C   UNL     1      48.452   7.241  17.365  0.00  0.00    +0.000 A 
ATOM     23  C   UNL     1      48.638   8.534  16.893  0.00  0.00    +0.000 A 
ATOM     24  S   UNL     1      48.317   9.740  18.056  0.00  0.00    +0.000 S 
ATOM     25  C   UNL     1      47.970   8.576  19.247  0.00  0.00    +0.000 A 
ATOM     26  N   UNL     1      47.648   8.947  20.516  0.00  0.00    +0.000 NA
ATOM     27  C   UNL     1      47.443   7.962  21.325  0.00  0.00    +0.000 A 
ATOM     28  N   UNL     1      47.517   6.638  20.976  0.00  0.00    +0.000 N 
ATOM     29  C   UNL     1      47.792   6.216  19.697  0.00  0.00    +0.000 A 
ATOM     30  O   UNL     1      47.779   5.026  19.399  0.00  0.00    +0.000 OA
ATOM     31  C   UNL     1      48.066   7.286  18.756  0.00  0.00    +0.000 A 
ATOM     32  H   UNL     1      47.325   5.915  21.654  0.00  0.00    +0.000 HD
ENDBRANCH  19  22
ENDBRANCH  17  18
ENDBRANCH   4  17
TORSDOF 7
ENDMDL
MODEL 5
REMARK VINA RESULT:    -7.308      3.492      8.186
REMARK INTER + INTRA:         -11.488
REMARK INTER:                 -10.050
REMARK INTRA:                  -1.438
REMARK UNBOUND:                -1.189
REMARK  Name = 
REMARK  7 active torsions:
REMARK  status: ('A' for Active; 'I' for Inactive)
REMARK    1  A    between atoms: C_2  and  C_3
REMARK    2  A    between atoms: C_2  and  C_11
REMARK    3  A    between atoms: C_3  and  C_4
REMARK    4  A    between atoms: C_4  and  C_5
REMARK    5  A    between atoms: C_14  and  C_15
REMARK    6  A    between atoms: C_15  and  N_16
REMARK    7  A    between atoms: C_17  and  C_19
REMARK                            x       y       z     vdW  Elec       q    Type
REMARK                         _______ _______ _______ _____ _____    ______ ____
ROOT
ATOM      1  C   UNL     1      48.907   7.363  16.262  0.00  0.00    +0.000 A 
ATOM      2  C   UNL     1      48.458   8.628  15.896  0.00  0.00    +0.000 A 
ATOM      3  C   UNL     1      48.210   8.883  14.550  0.00  0.00    +0.000 A 
ATOM      4  C   UNL     1      48.425   7.881  13.602  0.00  0.00    +0.000 A 
ATOM      5  C   UNL     1      48.858   6.643  14.071  0.00  0.00    +0.000 A 
ATOM      6  N   UNL     1      49.110   6.359  15.372  0.00  0.00    +0.000 NA
ENDROOT
BRANCH   1   8
ATOM      7  O   UNL     1      50.269   7.389  18.187  0.00  0.00    +0.000 OA
ATOM      8  C   UNL     1      49.175   7.080  17.705  0.00  0.00    +0.000 C 
BRANCH   8   9
ATOM      9  C   UNL     1      48.103   6.389  18.529  0.00  0.00    +0.000 C 
BRANCH   9  10
ATOM     10  C   UNL     1      48.661   5.095  19.129  0.00  0.00    +0.000 C 
BRANCH  10  11
ATOM     11  C   UNL     1      48.882   3.994  18.121  0.00  0.00    +0.000 A 
ATOM     12  C   UNL     1      47.838   3.574  17.292  0.00  0.00    +0.000 A 
ATOM     13  C   UNL     1      48.089   2.591  16.346  0.00  0.00    +0.000 A 
ATOM     14  N   UNL     1      49.293   2.006  16.171  0.00  0.00    +0.000 NA
ATOM     15  C   UNL     1      50.290   2.429  16.977  0.00  0.00    +0.000 A 
ATOM     16  C   UNL     1      50.138   3.407  17.950  0.00  0.00    +0.000 A 
ENDBRANCH  10  11
ENDBRANCH   9  10
ENDBRANCH   8   9
ENDBRANCH   1   8
BRANCH   4  17
ATOM     17  C   UNL     1      48.166   8.123  12.143  0.00  0.00    +0.000 C 
BRANCH  17  18
ATOM     18  N   UNL     1      47.516   6.994  11.527  0.00  0.00    +0.000 N 
ATOM     19  C   UNL     1      46.146   6.914  11.461  0.00  0.00    +0.000 C 
ATOM     20  O   UNL     1      45.424   7.816  11.877  0.00  0.00    +0.000 OA
ATOM     21  H   UNL     1      48.062   6.145  11.410  0.00  0.00    +0.000 HD
BRANCH  19  22
ATOM     22  C   UNL     1      45.588   5.723  10.808  0.00  0.00    +0.000 A 
ATOM     23  C   UNL     1      45.773   5.534   9.445  0.00  0.00    +0.000 A 
ATOM     24  S   UNL     1      45.092   4.084   8.857  0.00  0.00    +0.000 S 
ATOM     25  C   UNL     1      44.480   3.685  10.393  0.00  0.00    +0.000 A 
ATOM     26  N   UNL     1      43.745   2.555  10.581  0.00  0.00    +0.000 NA
ATOM     27  C   UNL     1      43.315   2.393  11.788  0.00  0.00    +0.000 A 
ATOM     28  N   UNL     1      43.563   3.253  12.826  0.00  0.00    +0.000 N 
ATOM     29  C   UNL     1      44.337   4.381  12.694  0.00  0.00    +0.000 A 
ATOM     30  O   UNL     1      44.602   5.092  13.658  0.00  0.00    +0.000 OA
ATOM     31  C   UNL     1      44.817   4.627  11.347  0.00  0.00    +0.000 A 
ATOM     32  H   UNL     1      43.212   3.057  13.753  0.00  0.00    +0.000 HD
ENDBRANCH  19  22
ENDBRANCH  17  18
ENDBRANCH   4  17
TORSDOF 7
ENDMDL
MODEL 6
REMARK VINA RESULT:    -7.171      3.058      8.514
REMARK INTER + INTRA:         -11.295
REMARK INTER:                 -10.028
REMARK INTRA:                  -1.267
REMARK UNBOUND:                -1.189
REMARK  Name = 
REMARK  7 active torsions:
REMARK  status: ('A' for Active; 'I' for Inactive)
REMARK    1  A    between atoms: C_2  and  C_3
REMARK    2  A    between atoms: C_2  and  C_11
REMARK    3  A    between atoms: C_3  and  C_4
REMARK    4  A    between atoms: C_4  and  C_5
REMARK    5  A    between atoms: C_14  and  C_15
REMARK    6  A    between atoms: C_15  and  N_16
REMARK    7  A    between atoms: C_17  and  C_19
REMARK                            x       y       z     vdW  Elec       q    Type
REMARK                         _______ _______ _______ _____ _____    ______ ____
ROOT
ATOM      1  C   UNL     1      49.083   7.661  16.101  0.00  0.00    +0.000 A 
ATOM      2  C   UNL     1      48.348   8.777  15.714  0.00  0.00    +0.000 A 
ATOM      3  C   UNL     1      47.848   8.828  14.416  0.00  0.00    +0.000 A 
ATOM      4  C   UNL     1      48.101   7.776  13.533  0.00  0.00    +0.000 A 
ATOM      5  C   UNL     1      48.831   6.695  14.022  0.00  0.00    +0.000 A 
ATOM      6  N   UNL     1      49.333   6.612  15.277  0.00  0.00    +0.000 NA
ENDROOT
BRANCH   1   8
ATOM      7  O   UNL     1      49.359   8.510  18.283  0.00  0.00    +0.000 OA
ATOM      8  C   UNL     1      49.622   7.598  17.494  0.00  0.00    +0.000 C 
BRANCH   8   9
ATOM      9  C   UNL     1      50.508   6.429  17.887  0.00  0.00    +0.000 C 
BRANCH   9  10
ATOM     10  C   UNL     1      49.664   5.339  18.556  0.00  0.00    +0.000 C 
BRANCH  10  11
ATOM     11  C   UNL     1      49.619   4.039  17.791  0.00  0.00    +0.000 A 
ATOM     12  C   UNL     1      48.499   3.708  17.023  0.00  0.00    +0.000 A 
ATOM     13  C   UNL     1      48.511   2.526  16.297  0.00  0.00    +0.000 A 
ATOM     14  N   UNL     1      49.548   1.663  16.283  0.00  0.00    +0.000 NA
ATOM     15  C   UNL     1      50.622   2.002  17.027  0.00  0.00    +0.000 A 
ATOM     16  C   UNL     1      50.706   3.162  17.784  0.00  0.00    +0.000 A 
ENDBRANCH  10  11
ENDBRANCH   9  10
ENDBRANCH   8   9
ENDBRANCH   1   8
BRANCH   4  17
ATOM     17  C   UNL     1      47.575   7.799  12.127  0.00  0.00    +0.000 C 
BRANCH  17  18
ATOM     18  N   UNL     1      46.895   6.572  11.796  0.00  0.00    +0.000 N 
ATOM     19  C   UNL     1      45.565   6.398  12.094  0.00  0.00    +0.000 C 
ATOM     20  O   UNL     1      44.894   7.289  12.607  0.00  0.00    +0.000 OA
ATOM     21  H   UNL     1      47.467   5.753  11.613  0.00  0.00    +0.000 HD
BRANCH  19  22
ATOM     22  C   UNL     1      44.969   5.111  11.710  0.00  0.00    +0.000 A 
ATOM     23  C   UNL     1      44.253   4.377  12.647  0.00  0.00    +0.000 A 
ATOM     24  S   UNL     1      43.600   2.929  12.025  0.00  0.00    +0.000 S 
ATOM     25  C   UNL     1      44.295   3.206  10.498  0.00  0.00    +0.000 A 
ATOM     26  N   UNL     1      44.148   2.306   9.488  0.00  0.00    +0.000 NA
ATOM     27  C   UNL     1      44.756   2.626   8.395  0.00  0.00    +0.000 A 
ATOM     28  N   UNL     1      45.487   3.771   8.216  0.00  0.00    +0.000 N 
ATOM     29  C   UNL     1      45.625   4.730   9.191  0.00  0.00    +0.000 A 
ATOM     30  O   UNL     1      46.225   5.779   8.977  0.00  0.00    +0.000 OA
ATOM     31  C   UNL     1      44.989   4.402  10.453  0.00  0.00    +0.000 A 
ATOM     32  H   UNL     1      45.923   3.971   7.327  0.00  0.00    +0.000 HD
ENDBRANCH  19  22
ENDBRANCH  17  18
ENDBRANCH   4  17
TORSDOF 7
ENDMDL
MODEL 7
REMARK VINA RESULT:    -6.785      4.053      8.607
REMARK INTER + INTRA:         -10.751
REMARK INTER:                  -9.143
REMARK INTRA:                  -1.607
REMARK UNBOUND:                -1.189
REMARK  Name = 
REMARK  7 active torsions:
REMARK  status: ('A' for Active; 'I' for Inactive)
REMARK    1  A    between atoms: C_2  and  C_3
REMARK    2  A    between atoms: C_2  and  C_11
REMARK    3  A    between atoms: C_3  and  C_4
REMARK    4  A    between atoms: C_4  and  C_5
REMARK    5  A    between atoms: C_14  and  C_15
REMARK    6  A    between atoms: C_15  and  N_16
REMARK    7  A    between atoms: C_17  and  C_19
REMARK                            x       y       z     vdW  Elec       q    Type
REMARK                         _______ _______ _______ _____ _____    ______ ____
ROOT
ATOM      1  C   UNL     1      50.018   7.144  18.363  0.00  0.00    +0.000 A 
ATOM      2  C   UNL     1      50.679   6.731  17.210  0.00  0.00    +0.000 A 
ATOM      3  C   UNL     1      50.180   7.135  15.975  0.00  0.00    +0.000 A 
ATOM      4  C   UNL     1      49.032   7.928  15.916  0.00  0.00    +0.000 A 
ATOM      5  C   UNL     1      48.455   8.304  17.126  0.00  0.00    +0.000 A 
ATOM      6  N   UNL     1      48.912   7.929  18.344  0.00  0.00    +0.000 NA
ENDROOT
BRANCH   1   8
ATOM      7  O   UNL     1      50.938   7.572  20.490  0.00  0.00    +0.000 OA
ATOM      8  C   UNL     1      50.548   6.715  19.693  0.00  0.00    +0.000 C 
BRANCH   8   9
ATOM      9  C   UNL     1      50.623   5.232  20.010  0.00  0.00    +0.000 C 
BRANCH   9  10
ATOM     10  C   UNL     1      49.288   4.560  19.672  0.00  0.00    +0.000 C 
BRANCH  10  11
ATOM     11  C   UNL     1      49.337   3.673  18.452  0.00  0.00    +0.000 A 
ATOM     12  C   UNL     1      50.520   3.015  18.103  0.00  0.00    +0.000 A 
ATOM     13  C   UNL     1      50.516   2.172  17.001  0.00  0.00    +0.000 A 
ATOM     14  N   UNL     1      49.430   1.943  16.234  0.00  0.00    +0.000 NA
ATOM     15  C   UNL     1      48.296   2.583  16.590  0.00  0.00    +0.000 A 
ATOM     16  C   UNL     1      48.199   3.443  17.676  0.00  0.00    +0.000 A 
ENDBRANCH  10  11
ENDBRANCH   9  10
ENDBRANCH   8   9
ENDBRANCH   1   8
BRANCH   4  17
ATOM     17  C   UNL     1      48.469   8.382  14.600  0.00  0.00    +0.000 C 
BRANCH  17  18
ATOM     18  N   UNL     1      47.412   7.514  14.148  0.00  0.00    +0.000 N 
ATOM     19  C   UNL     1      47.670   6.470  13.293  0.00  0.00    +0.000 C 
ATOM     20  O   UNL     1      48.809   6.206  12.919  0.00  0.00    +0.000 OA
ATOM     21  H   UNL     1      46.458   7.853  14.232  0.00  0.00    +0.000 HD
BRANCH  19  22
ATOM     22  C   UNL     1      46.521   5.645  12.897  0.00  0.00    +0.000 A 
ATOM     23  C   UNL     1      46.564   4.270  13.083  0.00  0.00    +0.000 A 
ATOM     24  S   UNL     1      45.135   3.470  12.604  0.00  0.00    +0.000 S 
ATOM     25  C   UNL     1      44.429   4.927  12.083  0.00  0.00    +0.000 A 
ATOM     26  N   UNL     1      43.191   4.942  11.520  0.00  0.00    +0.000 NA
ATOM     27  C   UNL     1      42.792   6.110  11.138  0.00  0.00    +0.000 A 
ATOM     28  N   UNL     1      43.515   7.265  11.281  0.00  0.00    +0.000 N 
ATOM     29  C   UNL     1      44.749   7.306  11.884  0.00  0.00    +0.000 A 
ATOM     30  O   UNL     1      45.340   8.366  12.063  0.00  0.00    +0.000 OA
ATOM     31  C   UNL     1      45.259   6.012  12.300  0.00  0.00    +0.000 A 
ATOM     32  H   UNL     1      43.136   8.151  10.978  0.00  0.00    +0.000 HD
ENDBRANCH  19  22
ENDBRANCH  17  18
ENDBRANCH   4  17
TORSDOF 7
ENDMDL
MODEL 8
REMARK VINA RESULT:    -6.612      3.924      8.233
REMARK INTER + INTRA:         -10.507
REMARK INTER:                  -9.163
REMARK INTRA:                  -1.344
REMARK UNBOUND:                -1.189
REMARK  Name = 
REMARK  7 active torsions:
REMARK  status: ('A' for Active; 'I' for Inactive)
REMARK    1  A    between atoms: C_2  and  C_3
REMARK    2  A    between atoms: C_2  and  C_11
REMARK    3  A    between atoms: C_3  and  C_4
REMARK    4  A    between atoms: C_4  and  C_5
REMARK    5  A    between atoms: C_14  and  C_15
REMARK    6  A    between atoms: C_15  and  N_16
REMARK    7  A    between atoms: C_17  and  C_19
REMARK                            x       y       z     vdW  Elec       q    Type
REMARK                         _______ _______ _______ _____ _____    ______ ____
ROOT
ATOM      1  C   UNL     1      49.616   7.338  18.426  0.00  0.00    +0.000 A 
ATOM      2  C   UNL     1      48.607   8.280  18.598  0.00  0.00    +0.000 A 
ATOM      3  C   UNL     1      48.121   8.948  17.477  0.00  0.00    +0.000 A 
ATOM      4  C   UNL     1      48.657   8.671  16.218  0.00  0.00    +0.000 A 
ATOM      5  C   UNL     1      49.650   7.697  16.148  0.00  0.00    +0.000 A 
ATOM      6  N   UNL     1      50.147   7.029  17.216  0.00  0.00    +0.000 NA
ENDROOT
BRANCH   1   8
ATOM      7  O   UNL     1      51.048   7.130  20.288  0.00  0.00    +0.000 OA
ATOM      8  C   UNL     1      50.143   6.616  19.625  0.00  0.00    +0.000 C 
BRANCH   8   9
ATOM      9  C   UNL     1      49.570   5.253  19.971  0.00  0.00    +0.000 C 
BRANCH   9  10
ATOM     10  C   UNL     1      48.467   4.883  18.974  0.00  0.00    +0.000 C 
BRANCH  10  11
ATOM     11  C   UNL     1      48.843   3.775  18.022  0.00  0.00    +0.000 A 
ATOM     12  C   UNL     1      47.895   3.248  17.141  0.00  0.00    +0.000 A 
ATOM     13  C   UNL     1      48.288   2.261  16.248  0.00  0.00    +0.000 A 
ATOM     14  N   UNL     1      49.543   1.770  16.174  0.00  0.00    +0.000 NA
ATOM     15  C   UNL     1      50.445   2.295  17.030  0.00  0.00    +0.000 A 
ATOM     16  C   UNL     1      50.150   3.286  17.956  0.00  0.00    +0.000 A 
ENDBRANCH  10  11
ENDBRANCH   9  10
ENDBRANCH   8   9
ENDBRANCH   1   8
BRANCH   4  17
ATOM     17  C   UNL     1      48.154   9.371  14.988  0.00  0.00    +0.000 C 
BRANCH  17  18
ATOM     18  N   UNL     1      47.097   8.627  14.350  0.00  0.00    +0.000 N 
ATOM     19  C   UNL     1      47.350   7.838  13.254  0.00  0.00    +0.000 C 
ATOM     20  O   UNL     1      48.484   7.696  12.806  0.00  0.00    +0.000 OA
ATOM     21  H   UNL     1      46.142   8.918  14.533  0.00  0.00    +0.000 HD
BRANCH  19  22
ATOM     22  C   UNL     1      46.203   7.120  12.682  0.00  0.00    +0.000 A 
ATOM     23  C   UNL     1      45.212   7.827  12.015  0.00  0.00    +0.000 A 
ATOM     24  S   UNL     1      43.973   6.837  11.384  0.00  0.00    +0.000 S 
ATOM     25  C   UNL     1      44.691   5.435  12.027  0.00  0.00    +0.000 A 
ATOM     26  N   UNL     1      44.105   4.217  11.875  0.00  0.00    +0.000 NA
ATOM     27  C   UNL     1      44.739   3.245  12.442  0.00  0.00    +0.000 A 
ATOM     28  N   UNL     1      45.913   3.380  13.137  0.00  0.00    +0.000 N 
ATOM     29  C   UNL     1      46.565   4.582  13.276  0.00  0.00    +0.000 A 
ATOM     30  O   UNL     1      47.652   4.659  13.841  0.00  0.00    +0.000 OA
ATOM     31  C   UNL     1      45.875   5.714  12.686  0.00  0.00    +0.000 A 
ATOM     32  H   UNL     1      46.369   2.575  13.541  0.00  0.00    +0.000 HD
ENDBRANCH  19  22
ENDBRANCH  17  18
ENDBRANCH   4  17
TORSDOF 7
ENDMDL
MODEL 9
REMARK VINA RESULT:    -6.345      3.410      9.404
REMARK INTER + INTRA:         -10.131
REMARK INTER:                  -8.657
REMARK INTRA:                  -1.474
REMARK UNBOUND:                -1.189
REMARK  Name = 
REMARK  7 active torsions:
REMARK  status: ('A' for Active; 'I' for Inactive)
REMARK    1  A    between atoms: C_2  and  C_3
REMARK    2  A    between atoms: C_2  and  C_11
REMARK    3  A    between atoms: C_3  and  C_4
REMARK    4  A    between atoms: C_4  and  C_5
REMARK    5  A    between atoms: C_14  and  C_15
REMARK    6  A    between atoms: C_15  and  N_16
REMARK    7  A    between atoms: C_17  and  C_19
REMARK                            x       y       z     vdW  Elec       q    Type
REMARK                         _______ _______ _______ _____ _____    ______ ____
ROOT
ATOM      1  C   UNL     1      49.393   5.248  17.205  0.00  0.00    +0.000 A 
ATOM      2  C   UNL     1      50.067   6.392  16.789  0.00  0.00    +0.000 A 
ATOM      3  C   UNL     1      49.666   7.010  15.608  0.00  0.00    +0.000 A 
ATOM      4  C   UNL     1      48.614   6.469  14.865  0.00  0.00    +0.000 A 
ATOM      5  C   UNL     1      47.992   5.333  15.375  0.00  0.00    +0.000 A 
ATOM      6  N   UNL     1      48.356   4.706  16.519  0.00  0.00    +0.000 NA
ENDROOT
BRANCH   1   8
ATOM      7  O   UNL     1      50.988   4.209  18.596  0.00  0.00    +0.000 OA
ATOM      8  C   UNL     1      49.817   4.581  18.473  0.00  0.00    +0.000 C 
BRANCH   8   9
ATOM      9  C   UNL     1      48.784   4.347  19.561  0.00  0.00    +0.000 C 
BRANCH   9  10
ATOM     10  C   UNL     1      48.965   5.379  20.680  0.00  0.00    +0.000 C 
BRANCH  10  11
ATOM     11  C   UNL     1      48.762   6.808  20.239  0.00  0.00    +0.000 A 
ATOM     12  C   UNL     1      49.805   7.733  20.337  0.00  0.00    +0.000 A 
ATOM     13  C   UNL     1      49.598   9.026  19.880  0.00  0.00    +0.000 A 
ATOM     14  N   UNL     1      48.437   9.455  19.340  0.00  0.00    +0.000 NA
ATOM     15  C   UNL     1      47.444   8.546  19.250  0.00  0.00    +0.000 A 
ATOM     16  C   UNL     1      47.556   7.230  19.676  0.00  0.00    +0.000 A 
ENDBRANCH  10  11
ENDBRANCH   9  10
ENDBRANCH   8   9
ENDBRANCH   1   8
BRANCH   4  17
ATOM     17  C   UNL     1      48.156   7.111  13.587  0.00  0.00    +0.000 C 
BRANCH  17  18
ATOM     18  N   UNL     1      47.423   6.184  12.762  0.00  0.00    +0.000 N 
ATOM     19  C   UNL     1      46.486   6.628  11.860  0.00  0.00    +0.000 C 
ATOM     20  O   UNL     1      46.269   7.824  11.686  0.00  0.00    +0.000 OA
ATOM     21  H   UNL     1      47.396   5.213  13.057  0.00  0.00    +0.000 HD
BRANCH  19  22
ATOM     22  C   UNL     1      45.799   5.599  11.067  0.00  0.00    +0.000 A 
ATOM     23  C   UNL     1      45.880   5.630   9.682  0.00  0.00    +0.000 A 
ATOM     24  S   UNL     1      45.057   4.344   8.920  0.00  0.00    +0.000 S 
ATOM     25  C   UNL     1      44.519   3.732  10.413  0.00  0.00    +0.000 A 
ATOM     26  N   UNL     1      43.717   2.635  10.471  0.00  0.00    +0.000 NA
ATOM     27  C   UNL     1      43.355   2.300  11.664  0.00  0.00    +0.000 A 
ATOM     28  N   UNL     1      43.734   2.957  12.807  0.00  0.00    +0.000 N 
ATOM     29  C   UNL     1      44.579   4.041  12.801  0.00  0.00    +0.000 A 
ATOM     30  O   UNL     1      44.958   4.562  13.844  0.00  0.00    +0.000 OA
ATOM     31  C   UNL     1      44.987   4.479  11.479  0.00  0.00    +0.000 A 
ATOM     32  H   UNL     1      43.431   2.631  13.713  0.00  0.00    +0.000 HD
ENDBRANCH  19  22
ENDBRANCH  17  18
ENDBRANCH   4  17
TORSDOF 7
ENDMDL
