MODEL 1
REMARK VINA RESULT:    -8.002      0.000      0.000
REMARK INTER + INTRA:         -11.200
REMARK INTER:                 -10.341
REMARK INTRA:                  -0.859
REMARK UNBOUND:                -0.859
REMARK  Name = 
REMARK  6 active torsions:
REMARK  status: ('A' for Active; 'I' for Inactive)
REMARK    1  A    between atoms: C_1  and  C_2
REMARK    2  A    between atoms: C_6  and  C_7
REMARK    3  A    between atoms: C_7  and  C_8
REMARK    4  A    between atoms: C_11  and  C_12
REMARK    5  A    between atoms: C_12  and  N_13
REMARK    6  A    between atoms: C_14  and  C_16
REMARK                            x       y       z     vdW  Elec       q    Type
REMARK                         _______ _______ _______ _____ _____    ______ ____
ROOT
ATOM      1  C   UNL     1      46.760   8.079  13.230  0.00  0.00    +0.000 C 
ENDROOT
BRANCH   1   5
ATOM      2  C   UNL     1      44.719   5.307  10.610  0.00  0.00    +0.000 A 
ATOM      3  C   UNL     1      44.144   5.687  11.831  0.00  0.00    +0.000 A 
ATOM      4  C   UNL     1      44.810   6.568  12.687  0.00  0.00    +0.000 A 
ATOM      5  C   UNL     1      46.065   7.084  12.339  0.00  0.00    +0.000 A 
ATOM      6  C   UNL     1      46.670   6.648  11.153  0.00  0.00    +0.000 A 
ATOM      7  C   UNL     1      45.999   5.779  10.289  0.00  0.00    +0.000 A 
BRANCH   2   8
ATOM      8  C   UNL     1      43.953   4.446   9.629  0.00  0.00    +0.000 C 
BRANCH   8  14
ATOM      9  C   UNL     1      46.879   3.466   5.821  0.00  0.00    +0.000 C 
ATOM     10  C   UNL     1      46.210   3.010   7.078  0.00  0.00    +0.000 A 
ATOM     11  C   UNL     1      46.402   1.723   7.570  0.00  0.00    +0.000 A 
ATOM     12  N   UNL     1      45.814   1.274   8.699  0.00  0.00    +0.000 NA
ATOM     13  C   UNL     1      45.013   2.168   9.326  0.00  0.00    +0.000 A 
ATOM     14  C   UNL     1      44.806   3.464   8.860  0.00  0.00    +0.000 A 
ATOM     15  N   UNL     1      45.412   3.900   7.723  0.00  0.00    +0.000 NA
ENDBRANCH   8  14
ENDBRANCH   2   8
ENDBRANCH   1   5
BRANCH   1  16
ATOM     16  N   UNL     1      47.284   7.450  14.412  0.00  0.00    +0.000 N 
ATOM     17  C   UNL     1      48.519   6.858  14.409  0.00  0.00    +0.000 C 
ATOM     18  O   UNL     1      49.257   6.890  13.428  0.00  0.00    +0.000 OA
ATOM     19  H   UNL     1      46.616   7.211  15.139  0.00  0.00    +0.000 HD
BRANCH  17  20
ATOM     20  C   UNL     1      48.952   6.246  15.672  0.00  0.00    +0.000 A 
ATOM     21  C   UNL     1      50.045   6.767  16.353  0.00  0.00    +0.000 A 
ATOM     22  S   UNL     1      50.358   5.986  17.836  0.00  0.00    +0.000 S 
ATOM     23  C   UNL     1      49.080   4.890  17.593  0.00  0.00    +0.000 A 
ATOM     24  N   UNL     1      48.804   3.922  18.508  0.00  0.00    +0.000 NA
ATOM     25  C   UNL     1      47.832   3.138  18.178  0.00  0.00    +0.000 A 
ATOM     26  N   UNL     1      47.111   3.233  17.016  0.00  0.00    +0.000 N 
ATOM     27  C   UNL     1      47.333   4.214  16.077  0.00  0.00    +0.000 A 
ATOM     28  O   UNL     1      46.644   4.294  15.067  0.00  0.00    +0.000 OA
ATOM     29  C   UNL     1      48.419   5.120  16.401  0.00  0.00    +0.000 A 
ATOM     30  H   UNL     1      46.361   2.588  16.817  0.00  0.00    +0.000 HD
ENDBRANCH  17  20
ENDBRANCH   1  16
TORSDOF 5
ENDMDL
MODEL 2
REMARK VINA RESULT:    -7.205      2.315      3.945
REMARK INTER + INTRA:         -10.170
REMARK INTER:                  -9.579
REMARK INTRA:                  -0.591
REMARK UNBOUND:                -0.859
REMARK  Name = 
REMARK  6 active torsions:
REMARK  status: ('A' for Active; 'I' for Inactive)
REMARK    1  A    between atoms: C_1  and  C_2
REMARK    2  A    between atoms: C_6  and  C_7
REMARK    3  A    between atoms: C_7  and  C_8
REMARK    4  A    between atoms: C_11  and  C_12
REMARK    5  A    between atoms: C_12  and  N_13
REMARK    6  A    between atoms: C_14  and  C_16
REMARK                            x       y       z     vdW  Elec       q    Type
REMARK                         _______ _______ _______ _____ _____    ______ ____
ROOT
ATOM      1  C   UNL     1      46.252   5.071  14.024  0.00  0.00    +0.000 C 
ENDROOT
BRANCH   1   5
ATOM      2  C   UNL     1      45.003   4.347   9.945  0.00  0.00    +0.000 A 
ATOM      3  C   UNL     1      45.667   5.534  10.286  0.00  0.00    +0.000 A 
ATOM      4  C   UNL     1      46.055   5.777  11.605  0.00  0.00    +0.000 A 
ATOM      5  C   UNL     1      45.784   4.840  12.611  0.00  0.00    +0.000 A 
ATOM      6  C   UNL     1      45.057   3.689  12.282  0.00  0.00    +0.000 A 
ATOM      7  C   UNL     1      44.681   3.437  10.960  0.00  0.00    +0.000 A 
BRANCH   2   8
ATOM      8  C   UNL     1      44.684   4.028   8.501  0.00  0.00    +0.000 C 
BRANCH   8  14
ATOM      9  C   UNL     1      47.688   2.463   4.959  0.00  0.00    +0.000 C 
ATOM     10  C   UNL     1      46.972   2.201   6.244  0.00  0.00    +0.000 A 
ATOM     11  C   UNL     1      47.115   0.991   6.914  0.00  0.00    +0.000 A 
ATOM     12  N   UNL     1      46.483   0.715   8.075  0.00  0.00    +0.000 NA
ATOM     13  C   UNL     1      45.690   1.705   8.547  0.00  0.00    +0.000 A 
ATOM     14  C   UNL     1      45.531   2.929   7.901  0.00  0.00    +0.000 A 
ATOM     15  N   UNL     1      46.181   3.190   6.735  0.00  0.00    +0.000 NA
ENDBRANCH   8  14
ENDBRANCH   2   8
ENDBRANCH   1   5
BRANCH   1  16
ATOM     16  N   UNL     1      46.996   6.295  14.136  0.00  0.00    +0.000 N 
ATOM     17  C   UNL     1      48.110   6.375  14.930  0.00  0.00    +0.000 C 
ATOM     18  O   UNL     1      48.557   5.401  15.528  0.00  0.00    +0.000 OA
ATOM     19  H   UNL     1      46.524   7.148  13.849  0.00  0.00    +0.000 HD
BRANCH  17  20
ATOM     20  C   UNL     1      48.791   7.676  14.969  0.00  0.00    +0.000 A 
ATOM     21  C   UNL     1      48.831   8.399  16.154  0.00  0.00    +0.000 A 
ATOM     22  S   UNL     1      49.728   9.844  16.040  0.00  0.00    +0.000 S 
ATOM     23  C   UNL     1      50.047   9.582  14.390  0.00  0.00    +0.000 A 
ATOM     24  N   UNL     1      50.776  10.473  13.667  0.00  0.00    +0.000 NA
ATOM     25  C   UNL     1      50.909  10.167  12.419  0.00  0.00    +0.000 A 
ATOM     26  N   UNL     1      50.380   9.049  11.829  0.00  0.00    +0.000 N 
ATOM     27  C   UNL     1      49.663   8.103  12.526  0.00  0.00    +0.000 A 
ATOM     28  O   UNL     1      49.237   7.096  11.975  0.00  0.00    +0.000 OA
ATOM     29  C   UNL     1      49.483   8.405  13.933  0.00  0.00    +0.000 A 
ATOM     30  H   UNL     1      50.521   8.865  10.846  0.00  0.00    +0.000 HD
ENDBRANCH  17  20
ENDBRANCH   1  16
TORSDOF 5
ENDMDL
MODEL 3
REMARK VINA RESULT:    -7.143      1.663      1.953
REMARK INTER + INTRA:         -10.089
REMARK INTER:                  -9.417
REMARK INTRA:                  -0.672
REMARK UNBOUND:                -0.859
REMARK  Name = 
REMARK  6 active torsions:
REMARK  status: ('A' for Active; 'I' for Inactive)
REMARK    1  A    between atoms: C_1  and  C_2
REMARK    2  A    between atoms: C_6  and  C_7
REMARK    3  A    between atoms: C_7  and  C_8
REMARK    4  A    between atoms: C_11  and  C_12
REMARK    5  A    between atoms: C_12  and  N_13
REMARK    6  A    between atoms: C_14  and  C_16
REMARK                            x       y       z     vdW  Elec       q    Type
REMARK                         _______ _______ _______ _____ _____    ______ ____
ROOT
ATOM      1  C   UNL     1      48.155   7.946  13.688  0.00  0.00    +0.000 C 
ENDROOT
BRANCH   1   5
ATOM      2  C   UNL     1      44.954   6.007  11.518  0.00  0.00    +0.000 A 
ATOM      3  C   UNL     1      45.028   7.406  11.578  0.00  0.00    +0.000 A 
ATOM      4  C   UNL     1      46.050   8.034  12.293  0.00  0.00    +0.000 A 
ATOM      5  C   UNL     1      47.017   7.275  12.965  0.00  0.00    +0.000 A 
ATOM      6  C   UNL     1      46.901   5.879  12.964  0.00  0.00    +0.000 A 
ATOM      7  C   UNL     1      45.888   5.249  12.236  0.00  0.00    +0.000 A 
BRANCH   2   8
ATOM      8  C   UNL     1      43.919   5.324  10.651  0.00  0.00    +0.000 C 
BRANCH   8  14
ATOM      9  C   UNL     1      46.780   3.864   6.949  0.00  0.00    +0.000 C 
ATOM     10  C   UNL     1      45.836   3.519   8.056  0.00  0.00    +0.000 A 
ATOM     11  C   UNL     1      45.497   2.198   8.329  0.00  0.00    +0.000 A 
ATOM     12  N   UNL     1      44.647   1.848   9.317  0.00  0.00    +0.000 NA
ATOM     13  C   UNL     1      44.138   2.879  10.031  0.00  0.00    +0.000 A 
ATOM     14  C   UNL     1      44.463   4.211   9.785  0.00  0.00    +0.000 A 
ATOM     15  N   UNL     1      45.326   4.544   8.788  0.00  0.00    +0.000 NA
ENDBRANCH   8  14
ENDBRANCH   2   8
ENDBRANCH   1   5
BRANCH   1  16
ATOM     16  N   UNL     1      48.043   7.779  15.112  0.00  0.00    +0.000 N 
ATOM     17  C   UNL     1      48.996   7.098  15.821  0.00  0.00    +0.000 C 
ATOM     18  O   UNL     1      50.013   6.656  15.292  0.00  0.00    +0.000 OA
ATOM     19  H   UNL     1      47.124   7.925  15.520  0.00  0.00    +0.000 HD
BRANCH  17  20
ATOM     20  C   UNL     1      48.779   6.990  17.269  0.00  0.00    +0.000 A 
ATOM     21  C   UNL     1      48.518   8.132  18.016  0.00  0.00    +0.000 A 
ATOM     22  S   UNL     1      48.212   7.813  19.663  0.00  0.00    +0.000 S 
ATOM     23  C   UNL     1      48.472   6.146  19.446  0.00  0.00    +0.000 A 
ATOM     24  N   UNL     1      48.375   5.281  20.491  0.00  0.00    +0.000 NA
ATOM     25  C   UNL     1      48.634   4.051  20.191  0.00  0.00    +0.000 A 
ATOM     26  N   UNL     1      48.980   3.608  18.941  0.00  0.00    +0.000 N 
ATOM     27  C   UNL     1      49.061   4.440  17.848  0.00  0.00    +0.000 A 
ATOM     28  O   UNL     1      49.335   4.005  16.737  0.00  0.00    +0.000 OA
ATOM     29  C   UNL     1      48.782   5.835  18.135  0.00  0.00    +0.000 A 
ATOM     30  H   UNL     1      49.170   2.631  18.771  0.00  0.00    +0.000 HD
ENDBRANCH  17  20
ENDBRANCH   1  16
TORSDOF 5
ENDMDL
MODEL 4
REMARK VINA RESULT:    -7.047      2.465      2.994
REMARK INTER + INTRA:          -9.966
REMARK INTER:                  -9.068
REMARK INTRA:                  -0.898
REMARK UNBOUND:                -0.859
REMARK  Name = 
REMARK  6 active torsions:
REMARK  status: ('A' for Active; 'I' for Inactive)
REMARK    1  A    between atoms: C_1  and  C_2
REMARK    2  A    between atoms: C_6  and  C_7
REMARK    3  A    between atoms: C_7  and  C_8
REMARK    4  A    between atoms: C_11  and  C_12
REMARK    5  A    between atoms: C_12  and  N_13
REMARK    6  A    between atoms: C_14  and  C_16
REMARK                            x       y       z     vdW  Elec       q    Type
REMARK                         _______ _______ _______ _____ _____    ______ ____
ROOT
ATOM      1  C   UNL     1      48.509   6.909  14.048  0.00  0.00    +0.000 C 
ENDROOT
BRANCH   1   5
ATOM      2  C   UNL     1      45.243   5.584  11.540  0.00  0.00    +0.000 A 
ATOM      3  C   UNL     1      45.987   6.722  11.198  0.00  0.00    +0.000 A 
ATOM      4  C   UNL     1      47.030   7.162  12.016  0.00  0.00    +0.000 A 
ATOM      5  C   UNL     1      47.348   6.474  13.194  0.00  0.00    +0.000 A 
ATOM      6  C   UNL     1      46.558   5.380  13.571  0.00  0.00    +0.000 A 
ATOM      7  C   UNL     1      45.524   4.930  12.746  0.00  0.00    +0.000 A 
BRANCH   2   8
ATOM      8  C   UNL     1      44.189   5.038  10.601  0.00  0.00    +0.000 C 
BRANCH   8  14
ATOM      9  C   UNL     1      46.747   3.778   6.614  0.00  0.00    +0.000 C 
ATOM     10  C   UNL     1      45.919   3.371   7.790  0.00  0.00    +0.000 A 
ATOM     11  C   UNL     1      45.648   2.033   8.052  0.00  0.00    +0.000 A 
ATOM     12  N   UNL     1      44.902   1.626   9.101  0.00  0.00    +0.000 NA
ATOM     13  C   UNL     1      44.428   2.620   9.890  0.00  0.00    +0.000 A 
ATOM     14  C   UNL     1      44.688   3.968   9.656  0.00  0.00    +0.000 A 
ATOM     15  N   UNL     1      45.446   4.358   8.596  0.00  0.00    +0.000 NA
ENDBRANCH   8  14
ENDBRANCH   2   8
ENDBRANCH   1   5
BRANCH   1  16
ATOM     16  N   UNL     1      48.225   6.738  15.447  0.00  0.00    +0.000 N 
ATOM     17  C   UNL     1      49.202   6.354  16.326  0.00  0.00    +0.000 C 
ATOM     18  O   UNL     1      50.370   6.199  15.978  0.00  0.00    +0.000 OA
ATOM     19  H   UNL     1      47.248   6.632  15.707  0.00  0.00    +0.000 HD
BRANCH  17  20
ATOM     20  C   UNL     1      48.798   6.210  17.730  0.00  0.00    +0.000 A 
ATOM     21  C   UNL     1      48.929   4.981  18.364  0.00  0.00    +0.000 A 
ATOM     22  S   UNL     1      48.488   5.014  20.011  0.00  0.00    +0.000 S 
ATOM     23  C   UNL     1      48.053   6.656  19.919  0.00  0.00    +0.000 A 
ATOM     24  N   UNL     1      47.571   7.315  21.007  0.00  0.00    +0.000 NA
ATOM     25  C   UNL     1      47.246   8.545  20.785  0.00  0.00    +0.000 A 
ATOM     26  N   UNL     1      47.360   9.177  19.575  0.00  0.00    +0.000 N 
ATOM     27  C   UNL     1      47.870   8.562  18.455  0.00  0.00    +0.000 A 
ATOM     28  O   UNL     1      47.994   9.167  17.397  0.00  0.00    +0.000 OA
ATOM     29  C   UNL     1      48.247   7.175  18.652  0.00  0.00    +0.000 A 
ATOM     30  H   UNL     1      47.089  10.143  19.466  0.00  0.00    +0.000 HD
ENDBRANCH  17  20
ENDBRANCH   1  16
TORSDOF 5
ENDMDL
MODEL 5
REMARK VINA RESULT:    -7.036      3.915      9.775
REMARK INTER + INTRA:          -9.952
REMARK INTER:                  -9.200
REMARK INTRA:                  -0.752
REMARK UNBOUND:                -0.859
REMARK  Name = 
REMARK  6 active torsions:
REMARK  status: ('A' for Active; 'I' for Inactive)
REMARK    1  A    between atoms: C_1  and  C_2
REMARK    2  A    between atoms: C_6  and  C_7
REMARK    3  A    between atoms: C_7  and  C_8
REMARK    4  A    between atoms: C_11  and  C_12
REMARK    5  A    between atoms: C_12  and  N_13
REMARK    6  A    between atoms: C_14  and  C_16
REMARK                            x       y       z     vdW  Elec       q    Type
REMARK                         _______ _______ _______ _____ _____    ______ ____
ROOT
ATOM      1  C   UNL     1      47.365   3.552  16.884  0.00  0.00    +0.000 C 
ENDROOT
BRANCH   1   5
ATOM      2  C   UNL     1      51.620   3.903  17.583  0.00  0.00    +0.000 A 
ATOM      3  C   UNL     1      51.018   2.642  17.473  0.00  0.00    +0.000 A 
ATOM      4  C   UNL     1      49.642   2.526  17.266  0.00  0.00    +0.000 A 
ATOM      5  C   UNL     1      48.839   3.670  17.167  0.00  0.00    +0.000 A 
ATOM      6  C   UNL     1      49.430   4.927  17.349  0.00  0.00    +0.000 A 
ATOM      7  C   UNL     1      50.809   5.045  17.541  0.00  0.00    +0.000 A 
BRANCH   2   8
ATOM      8  C   UNL     1      53.123   4.036  17.693  0.00  0.00    +0.000 C 
BRANCH   8  14
ATOM      9  C   UNL     1      54.160   5.398  22.285  0.00  0.00    +0.000 C 
ATOM     10  C   UNL     1      54.146   4.337  21.232  0.00  0.00    +0.000 A 
ATOM     11  C   UNL     1      54.589   3.047  21.504  0.00  0.00    +0.000 A 
ATOM     12  N   UNL     1      54.595   2.063  20.580  0.00  0.00    +0.000 NA
ATOM     13  C   UNL     1      54.138   2.420  19.356  0.00  0.00    +0.000 A 
ATOM     14  C   UNL     1      53.684   3.702  19.056  0.00  0.00    +0.000 A 
ATOM     15  N   UNL     1      53.681   4.679  20.003  0.00  0.00    +0.000 NA
ENDBRANCH   8  14
ENDBRANCH   2   8
ENDBRANCH   1   5
BRANCH   1  16
ATOM     16  N   UNL     1      46.935   4.530  15.922  0.00  0.00    +0.000 N 
ATOM     17  C   UNL     1      46.959   4.260  14.580  0.00  0.00    +0.000 C 
ATOM     18  O   UNL     1      47.285   3.160  14.140  0.00  0.00    +0.000 OA
ATOM     19  H   UNL     1      46.890   5.495  16.238  0.00  0.00    +0.000 HD
BRANCH  17  20
ATOM     20  C   UNL     1      46.498   5.333  13.690  0.00  0.00    +0.000 A 
ATOM     21  C   UNL     1      47.300   6.447  13.478  0.00  0.00    +0.000 A 
ATOM     22  S   UNL     1      46.647   7.553  12.357  0.00  0.00    +0.000 S 
ATOM     23  C   UNL     1      45.245   6.610  12.159  0.00  0.00    +0.000 A 
ATOM     24  N   UNL     1      44.247   7.006  11.323  0.00  0.00    +0.000 NA
ATOM     25  C   UNL     1      43.227   6.214  11.298  0.00  0.00    +0.000 A 
ATOM     26  N   UNL     1      43.114   5.062  12.031  0.00  0.00    +0.000 N 
ATOM     27  C   UNL     1      44.109   4.606  12.866  0.00  0.00    +0.000 A 
ATOM     28  O   UNL     1      43.991   3.552  13.478  0.00  0.00    +0.000 OA
ATOM     29  C   UNL     1      45.277   5.464  12.931  0.00  0.00    +0.000 A 
ATOM     30  H   UNL     1      42.288   4.485  11.967  0.00  0.00    +0.000 HD
ENDBRANCH  17  20
ENDBRANCH   1  16
TORSDOF 5
ENDMDL
MODEL 6
REMARK VINA RESULT:    -7.031      3.336      8.152
REMARK INTER + INTRA:          -9.944
REMARK INTER:                  -9.181
REMARK INTRA:                  -0.764
REMARK UNBOUND:                -0.859
REMARK  Name = 
REMARK  6 active torsions:
REMARK  status: ('A' for Active; 'I' for Inactive)
REMARK    1  A    between atoms: C_1  and  C_2
REMARK    2  A    between atoms: C_6  and  C_7
REMARK    3  A    between atoms: C_7  and  C_8
REMARK    4  A    between atoms: C_11  and  C_12
REMARK    5  A    between atoms: C_12  and  N_13
REMARK    6  A    between atoms: C_14  and  C_16
REMARK                            x       y       z     vdW  Elec       q    Type
REMARK                         _______ _______ _______ _____ _____    ______ ____
ROOT
ATOM      1  C   UNL     1      48.207   7.318  13.438  0.00  0.00    +0.000 C 
ENDROOT
BRANCH   1   5
ATOM      2  C   UNL     1      49.672   5.494  17.077  0.00  0.00    +0.000 A 
ATOM      3  C   UNL     1      48.427   5.127  16.549  0.00  0.00    +0.000 A 
ATOM      4  C   UNL     1      47.944   5.728  15.384  0.00  0.00    +0.000 A 
ATOM      5  C   UNL     1      48.696   6.710  14.726  0.00  0.00    +0.000 A 
ATOM      6  C   UNL     1      49.907   7.127  15.294  0.00  0.00    +0.000 A 
ATOM      7  C   UNL     1      50.398   6.516  16.451  0.00  0.00    +0.000 A 
BRANCH   2   8
ATOM      8  C   UNL     1      50.250   4.766  18.272  0.00  0.00    +0.000 C 
BRANCH   8  14
ATOM      9  C   UNL     1      54.282   1.982  18.361  0.00  0.00    +0.000 C 
ATOM     10  C   UNL     1      52.839   2.141  18.004  0.00  0.00    +0.000 A 
ATOM     11  C   UNL     1      52.122   1.102  17.422  0.00  0.00    +0.000 A 
ATOM     12  N   UNL     1      50.819   1.209  17.083  0.00  0.00    +0.000 NA
ATOM     13  C   UNL     1      50.252   2.409  17.349  0.00  0.00    +0.000 A 
ATOM     14  C   UNL     1      50.944   3.466  17.936  0.00  0.00    +0.000 A 
ATOM     15  N   UNL     1      52.255   3.338  18.275  0.00  0.00    +0.000 NA
ENDBRANCH   8  14
ENDBRANCH   2   8
ENDBRANCH   1   5
BRANCH   1  16
ATOM     16  N   UNL     1      47.470   6.365  12.654  0.00  0.00    +0.000 N 
ATOM     17  C   UNL     1      46.463   6.766  11.817  0.00  0.00    +0.000 C 
ATOM     18  O   UNL     1      46.185   7.950  11.650  0.00  0.00    +0.000 OA
ATOM     19  H   UNL     1      47.522   5.393  12.946  0.00  0.00    +0.000 HD
BRANCH  17  20
ATOM     20  C   UNL     1      45.779   5.706  11.066  0.00  0.00    +0.000 A 
ATOM     21  C   UNL     1      45.920   5.637   9.685  0.00  0.00    +0.000 A 
ATOM     22  S   UNL     1      45.124   4.301   8.985  0.00  0.00    +0.000 S 
ATOM     23  C   UNL     1      44.518   3.801  10.494  0.00  0.00    +0.000 A 
ATOM     24  N   UNL     1      43.728   2.699  10.601  0.00  0.00    +0.000 NA
ATOM     25  C   UNL     1      43.309   2.457  11.799  0.00  0.00    +0.000 A 
ATOM     26  N   UNL     1      43.608   3.217  12.899  0.00  0.00    +0.000 N 
ATOM     27  C   UNL     1      44.426   4.322  12.845  0.00  0.00    +0.000 A 
ATOM     28  O   UNL     1      44.705   4.956  13.856  0.00  0.00    +0.000 OA
ATOM     29  C   UNL     1      44.922   4.637  11.519  0.00  0.00    +0.000 A 
ATOM     30  H   UNL     1      43.248   2.974  13.811  0.00  0.00    +0.000 HD
ENDBRANCH  17  20
ENDBRANCH   1  16
TORSDOF 5
ENDMDL
MODEL 7
REMARK VINA RESULT:    -6.865      2.024      3.051
REMARK INTER + INTRA:          -9.730
REMARK INTER:                  -8.628
REMARK INTRA:                  -1.103
REMARK UNBOUND:                -0.859
REMARK  Name = 
REMARK  6 active torsions:
REMARK  status: ('A' for Active; 'I' for Inactive)
REMARK    1  A    between atoms: C_1  and  C_2
REMARK    2  A    between atoms: C_6  and  C_7
REMARK    3  A    between atoms: C_7  and  C_8
REMARK    4  A    between atoms: C_11  and  C_12
REMARK    5  A    between atoms: C_12  and  N_13
REMARK    6  A    between atoms: C_14  and  C_16
REMARK                            x       y       z     vdW  Elec       q    Type
REMARK                         _______ _______ _______ _____ _____    ______ ____
ROOT
ATOM      1  C   UNL     1      49.294   8.459  14.042  0.00  0.00    +0.000 C 
ENDROOT
BRANCH   1   5
ATOM      2  C   UNL     1      45.700   7.349  11.905  0.00  0.00    +0.000 A 
ATOM      3  C   UNL     1      46.893   6.640  11.707  0.00  0.00    +0.000 A 
ATOM      4  C   UNL     1      48.059   7.008  12.382  0.00  0.00    +0.000 A 
ATOM      5  C   UNL     1      48.055   8.094  13.267  0.00  0.00    +0.000 A 
ATOM      6  C   UNL     1      46.881   8.846  13.409  0.00  0.00    +0.000 A 
ATOM      7  C   UNL     1      45.710   8.469  12.745  0.00  0.00    +0.000 A 
BRANCH   2   8
ATOM      8  C   UNL     1      44.409   6.884  11.265  0.00  0.00    +0.000 C 
BRANCH   8  14
ATOM      9  C   UNL     1      44.352   2.324   9.471  0.00  0.00    +0.000 C 
ATOM     10  C   UNL     1      44.113   3.257  10.614  0.00  0.00    +0.000 A 
ATOM     11  C   UNL     1      43.675   2.788  11.848  0.00  0.00    +0.000 A 
ATOM     12  N   UNL     1      43.445   3.600  12.902  0.00  0.00    +0.000 NA
ATOM     13  C   UNL     1      43.669   4.916  12.675  0.00  0.00    +0.000 A 
ATOM     14  C   UNL     1      44.112   5.414  11.452  0.00  0.00    +0.000 A 
ATOM     15  N   UNL     1      44.344   4.579  10.403  0.00  0.00    +0.000 NA
ENDBRANCH   8  14
ENDBRANCH   2   8
ENDBRANCH   1   5
BRANCH   1  16
ATOM     16  N   UNL     1      49.424   7.658  15.229  0.00  0.00    +0.000 N 
ATOM     17  C   UNL     1      48.911   8.081  16.426  0.00  0.00    +0.000 C 
ATOM     18  O   UNL     1      48.269   9.123  16.531  0.00  0.00    +0.000 OA
ATOM     19  H   UNL     1      50.135   6.932  15.217  0.00  0.00    +0.000 HD
BRANCH  17  20
ATOM     20  C   UNL     1      49.103   7.183  17.572  0.00  0.00    +0.000 A 
ATOM     21  C   UNL     1      49.619   7.682  18.762  0.00  0.00    +0.000 A 
ATOM     22  S   UNL     1      49.700   6.521  20.008  0.00  0.00    +0.000 S 
ATOM     23  C   UNL     1      49.102   5.300  18.986  0.00  0.00    +0.000 A 
ATOM     24  N   UNL     1      48.936   4.028  19.438  0.00  0.00    +0.000 NA
ATOM     25  C   UNL     1      48.510   3.196  18.545  0.00  0.00    +0.000 A 
ATOM     26  N   UNL     1      48.236   3.521  17.243  0.00  0.00    +0.000 N 
ATOM     27  C   UNL     1      48.359   4.799  16.749  0.00  0.00    +0.000 A 
ATOM     28  O   UNL     1      48.068   5.063  15.589  0.00  0.00    +0.000 OA
ATOM     29  C   UNL     1      48.838   5.771  17.713  0.00  0.00    +0.000 A 
ATOM     30  H   UNL     1      47.905   2.823  16.593  0.00  0.00    +0.000 HD
ENDBRANCH  17  20
ENDBRANCH   1  16
TORSDOF 5
ENDMDL
MODEL 8
REMARK VINA RESULT:    -6.637      2.006      2.774
REMARK INTER + INTRA:          -9.436
REMARK INTER:                  -9.181
REMARK INTRA:                  -0.255
REMARK UNBOUND:                -0.859
REMARK  Name = 
REMARK  6 active torsions:
REMARK  status: ('A' for Active; 'I' for Inactive)
REMARK    1  A    between atoms: C_1  and  C_2
REMARK    2  A    between atoms: C_6  and  C_7
REMARK    3  A    between atoms: C_7  and  C_8
REMARK    4  A    between atoms: C_11  and  C_12
REMARK    5  A    between atoms: C_12  and  N_13
REMARK    6  A    between atoms: C_14  and  C_16
REMARK                            x       y       z     vdW  Elec       q    Type
REMARK                         _______ _______ _______ _____ _____    ______ ____
ROOT
ATOM      1  C   UNL     1      44.980   5.439  13.309  0.00  0.00    +0.000 C 
ENDROOT
BRANCH   1   5
ATOM      2  C   UNL     1      45.067   4.236   9.155  0.00  0.00    +0.000 A 
ATOM      3  C   UNL     1      44.452   3.424  10.118  0.00  0.00    +0.000 A 
ATOM      4  C   UNL     1      44.439   3.802  11.463  0.00  0.00    +0.000 A 
ATOM      5  C   UNL     1      45.043   4.998  11.871  0.00  0.00    +0.000 A 
ATOM      6  C   UNL     1      45.719   5.773  10.919  0.00  0.00    +0.000 A 
ATOM      7  C   UNL     1      45.719   5.403   9.571  0.00  0.00    +0.000 A 
BRANCH   2   8
ATOM      8  C   UNL     1      44.984   3.889   7.684  0.00  0.00    +0.000 C 
BRANCH   8  14
ATOM      9  C   UNL     1      47.709   1.566   4.337  0.00  0.00    +0.000 C 
ATOM     10  C   UNL     1      47.114   1.603   5.709  0.00  0.00    +0.000 A 
ATOM     11  C   UNL     1      47.346   0.580   6.622  0.00  0.00    +0.000 A 
ATOM     12  N   UNL     1      46.824   0.576   7.867  0.00  0.00    +0.000 NA
ATOM     13  C   UNL     1      46.049   1.645   8.170  0.00  0.00    +0.000 A 
ATOM     14  C   UNL     1      45.804   2.686   7.278  0.00  0.00    +0.000 A 
ATOM     15  N   UNL     1      46.343   2.674   6.029  0.00  0.00    +0.000 NA
ENDBRANCH   8  14
ENDBRANCH   2   8
ENDBRANCH   1   5
BRANCH   1  16
ATOM     16  N   UNL     1      46.160   6.168  13.687  0.00  0.00    +0.000 N 
ATOM     17  C   UNL     1      47.278   5.517  14.138  0.00  0.00    +0.000 C 
ATOM     18  O   UNL     1      47.348   4.291  14.183  0.00  0.00    +0.000 OA
ATOM     19  H   UNL     1      46.047   7.159  13.878  0.00  0.00    +0.000 HD
BRANCH  17  20
ATOM     20  C   UNL     1      48.425   6.362  14.495  0.00  0.00    +0.000 A 
ATOM     21  C   UNL     1      49.070   7.102  13.512  0.00  0.00    +0.000 A 
ATOM     22  S   UNL     1      50.326   8.085  14.115  0.00  0.00    +0.000 S 
ATOM     23  C   UNL     1      50.088   7.514  15.700  0.00  0.00    +0.000 A 
ATOM     24  N   UNL     1      50.862   7.957  16.727  0.00  0.00    +0.000 NA
ATOM     25  C   UNL     1      50.596   7.413  17.868  0.00  0.00    +0.000 A 
ATOM     26  N   UNL     1      49.627   6.467  18.075  0.00  0.00    +0.000 N 
ATOM     27  C   UNL     1      48.799   6.012  17.074  0.00  0.00    +0.000 A 
ATOM     28  O   UNL     1      47.917   5.194  17.302  0.00  0.00    +0.000 OA
ATOM     29  C   UNL     1      49.061   6.592  15.770  0.00  0.00    +0.000 A 
ATOM     30  H   UNL     1      49.467   6.079  18.994  0.00  0.00    +0.000 HD
ENDBRANCH  17  20
ENDBRANCH   1  16
TORSDOF 5
ENDMDL
MODEL 9
REMARK VINA RESULT:    -6.575      4.824      7.470
REMARK INTER + INTRA:          -9.355
REMARK INTER:                  -8.530
REMARK INTRA:                  -0.825
REMARK UNBOUND:                -0.859
REMARK  Name = 
REMARK  6 active torsions:
REMARK  status: ('A' for Active; 'I' for Inactive)
REMARK    1  A    between atoms: C_1  and  C_2
REMARK    2  A    between atoms: C_6  and  C_7
REMARK    3  A    between atoms: C_7  and  C_8
REMARK    4  A    between atoms: C_11  and  C_12
REMARK    5  A    between atoms: C_12  and  N_13
REMARK    6  A    between atoms: C_14  and  C_16
REMARK                            x       y       z     vdW  Elec       q    Type
REMARK                         _______ _______ _______ _____ _____    ______ ____
ROOT
ATOM      1  C   UNL     1      46.684   8.383  12.740  0.00  0.00    +0.000 C 
ENDROOT
BRANCH   1   5
ATOM      2  C   UNL     1      50.771   8.766  11.373  0.00  0.00    +0.000 A 
ATOM      3  C   UNL     1      49.909   9.871  11.356  0.00  0.00    +0.000 A 
ATOM      4  C   UNL     1      48.584   9.745  11.780  0.00  0.00    +0.000 A 
ATOM      5  C   UNL     1      48.094   8.511  12.227  0.00  0.00    +0.000 A 
ATOM      6  C   UNL     1      48.936   7.392  12.176  0.00  0.00    +0.000 A 
ATOM      7  C   UNL     1      50.266   7.520  11.766  0.00  0.00    +0.000 A 
BRANCH   2   8
ATOM      8  C   UNL     1      52.236   8.922  11.025  0.00  0.00    +0.000 C 
BRANCH   8  14
ATOM      9  C   UNL     1      52.932   5.929   7.208  0.00  0.00    +0.000 C 
ATOM     10  C   UNL     1      52.855   7.319   7.752  0.00  0.00    +0.000 A 
ATOM     11  C   UNL     1      53.019   8.426   6.927  0.00  0.00    +0.000 A 
ATOM     12  N   UNL     1      52.959   9.696   7.382  0.00  0.00    +0.000 NA
ATOM     13  C   UNL     1      52.728   9.821   8.711  0.00  0.00    +0.000 A 
ATOM     14  C   UNL     1      52.555   8.731   9.560  0.00  0.00    +0.000 A 
ATOM     15  N   UNL     1      52.613   7.459   9.082  0.00  0.00    +0.000 NA
ENDBRANCH   8  14
ENDBRANCH   2   8
ENDBRANCH   1   5
BRANCH   1  16
ATOM     16  N   UNL     1      46.171   7.056  12.539  0.00  0.00    +0.000 N 
ATOM     17  C   UNL     1      45.102   6.829  11.713  0.00  0.00    +0.000 C 
ATOM     18  O   UNL     1      44.574   7.730  11.064  0.00  0.00    +0.000 OA
ATOM     19  H   UNL     1      46.430   6.354  13.226  0.00  0.00    +0.000 HD
BRANCH  17  20
ATOM     20  C   UNL     1      44.662   5.435  11.582  0.00  0.00    +0.000 A 
ATOM     21  C   UNL     1      43.989   4.821  12.632  0.00  0.00    +0.000 A 
ATOM     22  S   UNL     1      43.484   3.231  12.279  0.00  0.00    +0.000 S 
ATOM     23  C   UNL     1      44.195   3.287  10.735  0.00  0.00    +0.000 A 
ATOM     24  N   UNL     1      44.135   2.218   9.897  0.00  0.00    +0.000 NA
ATOM     25  C   UNL     1      44.748   2.386   8.773  0.00  0.00    +0.000 A 
ATOM     26  N   UNL     1      45.415   3.527   8.410  0.00  0.00    +0.000 N 
ATOM     27  C   UNL     1      45.476   4.644   9.210  0.00  0.00    +0.000 A 
ATOM     28  O   UNL     1      46.047   5.662   8.838  0.00  0.00    +0.000 OA
ATOM     29  C   UNL     1      44.803   4.504  10.488  0.00  0.00    +0.000 A 
ATOM     30  H   UNL     1      45.875   3.596   7.514  0.00  0.00    +0.000 HD
ENDBRANCH  17  20
ENDBRANCH   1  16
TORSDOF 5
ENDMDL
