MODEL 1
REMARK VINA RESULT:    -7.697      0.000      0.000
REMARK INTER + INTRA:         -12.660
REMARK INTER:                 -11.297
REMARK INTRA:                  -1.364
REMARK UNBOUND:                -1.364
REMARK  Name = 
REMARK  10 active torsions:
REMARK  status: ('A' for Active; 'I' for Inactive)
REMARK    1  A    between atoms: C_1  and  C_2
REMARK    2  A    between atoms: C_2  and  N_3
REMARK    3  A    between atoms: C_2  and  C_12
REMARK    4  A    between atoms: N_3  and  C_4
REMARK    5  A    between atoms: C_4  and  C_5
REMARK    6  A    between atoms: C_4  and  C_6
REMARK    7  A    between atoms: C_15  and  C_16
REMARK    8  A    between atoms: C_16  and  N_17
REMARK    9  A    between atoms: N_17  and  C_18
REMARK   10  A    between atoms: C_18  and  C_19
REMARK                            x       y       z     vdW  Elec       q    Type
REMARK                         _______ _______ _______ _____ _____    ______ ____
ROOT
ATOM      1  C   UNL     1      46.943   6.083  12.629  0.00  0.00    +0.000 A 
ATOM      2  C   UNL     1      46.457   6.403  11.350  0.00  0.00    +0.000 A 
ATOM      3  C   UNL     1      45.413   5.667  10.768  0.00  0.00    +0.000 A 
ATOM      4  C   UNL     1      44.844   4.576  11.439  0.00  0.00    +0.000 A 
ATOM      5  C   UNL     1      45.401   4.181  12.655  0.00  0.00    +0.000 A 
ATOM      6  C   UNL     1      46.441   4.913  13.225  0.00  0.00    +0.000 A 
ENDROOT
BRANCH   1   8
ATOM      7  C   UNL     1      48.885   7.681  12.324  0.00  0.00    +0.000 C 
ATOM      8  C   UNL     1      47.981   6.965  13.350  0.00  0.00    +0.000 C 
BRANCH   8   9
ATOM      9  N   UNL     1      48.799   6.157  14.283  0.00  0.00    +0.000 NA
ATOM     10  H   UNL     1      49.775   6.252  14.002  0.00  0.00    +0.000 HD
BRANCH   9  11
ATOM     11  C   UNL     1      48.681   6.498  15.710  0.00  0.00    +0.000 C 
ATOM     12  C   UNL     1      49.905   7.332  16.124  0.00  0.00    +0.000 C 
BRANCH  11  13
ATOM     13  C   UNL     1      48.555   5.299  16.624  0.00  0.00    +0.000 A 
ATOM     14  C   UNL     1      47.388   4.531  16.695  0.00  0.00    +0.000 A 
ATOM     15  C   UNL     1      47.365   3.372  17.464  0.00  0.00    +0.000 A 
ATOM     16  C   UNL     1      48.508   3.024  18.162  0.00  0.00    +0.000 A 
ATOM     17  N   UNL     1      49.642   3.757  18.157  0.00  0.00    +0.000 NA
ATOM     18  C   UNL     1      49.637   4.874  17.393  0.00  0.00    +0.000 A 
ENDBRANCH  11  13
ENDBRANCH   9  11
ENDBRANCH   8   9
ENDBRANCH   1   8
BRANCH   4  19
ATOM     19  C   UNL     1      43.618   3.871  10.914  0.00  0.00    +0.000 C 
BRANCH  19  20
ATOM     20  N   UNL     1      43.817   3.387   9.553  0.00  0.00    +0.000 NA
ATOM     21  H   UNL     1      44.322   4.097   9.022  0.00  0.00    +0.000 HD
BRANCH  20  22
ATOM     22  C   UNL     1      44.621   2.159   9.555  0.00  0.00    +0.000 C 
BRANCH  22  23
ATOM     23  C   UNL     1      45.661   2.175   8.455  0.00  0.00    +0.000 A 
ATOM     24  C   UNL     1      45.911   3.351   7.747  0.00  0.00    +0.000 A 
ATOM     25  C   UNL     1      46.897   3.353   6.772  0.00  0.00    +0.000 A 
ATOM     26  C   UNL     1      47.604   2.183   6.518  0.00  0.00    +0.000 A 
ATOM     27  C   UNL     1      47.289   1.056   7.259  0.00  0.00    +0.000 A 
ATOM     28  N   UNL     1      46.341   1.023   8.217  0.00  0.00    +0.000 NA
ENDBRANCH  22  23
ENDBRANCH  20  22
ENDBRANCH  19  20
ENDBRANCH   4  19
TORSDOF 8
ENDMDL
MODEL 2
REMARK VINA RESULT:    -6.966      1.313      1.775
REMARK INTER + INTRA:         -11.588
REMARK INTER:                 -10.374
REMARK INTRA:                  -1.214
REMARK UNBOUND:                -1.364
REMARK  Name = 
REMARK  10 active torsions:
REMARK  status: ('A' for Active; 'I' for Inactive)
REMARK    1  A    between atoms: C_1  and  C_2
REMARK    2  A    between atoms: C_2  and  N_3
REMARK    3  A    between atoms: C_2  and  C_12
REMARK    4  A    between atoms: N_3  and  C_4
REMARK    5  A    between atoms: C_4  and  C_5
REMARK    6  A    between atoms: C_4  and  C_6
REMARK    7  A    between atoms: C_15  and  C_16
REMARK    8  A    between atoms: C_16  and  N_17
REMARK    9  A    between atoms: N_17  and  C_18
REMARK   10  A    between atoms: C_18  and  C_19
REMARK                            x       y       z     vdW  Elec       q    Type
REMARK                         _______ _______ _______ _____ _____    ______ ____
ROOT
ATOM      1  C   UNL     1      47.123   6.571  13.225  0.00  0.00    +0.000 A 
ATOM      2  C   UNL     1      45.979   7.286  12.835  0.00  0.00    +0.000 A 
ATOM      3  C   UNL     1      44.740   6.642  12.686  0.00  0.00    +0.000 A 
ATOM      4  C   UNL     1      44.619   5.262  12.900  0.00  0.00    +0.000 A 
ATOM      5  C   UNL     1      45.773   4.528  13.172  0.00  0.00    +0.000 A 
ATOM      6  C   UNL     1      47.000   5.173  13.313  0.00  0.00    +0.000 A 
ENDROOT
BRANCH   1   8
ATOM      7  C   UNL     1      49.268   7.498  12.246  0.00  0.00    +0.000 C 
ATOM      8  C   UNL     1      48.457   7.276  13.540  0.00  0.00    +0.000 C 
BRANCH   8   9
ATOM      9  N   UNL     1      49.247   6.495  14.518  0.00  0.00    +0.000 NA
ATOM     10  H   UNL     1      50.230   6.736  14.385  0.00  0.00    +0.000 HD
BRANCH   9  11
ATOM     11  C   UNL     1      48.900   6.686  15.935  0.00  0.00    +0.000 C 
ATOM     12  C   UNL     1      49.989   7.543  16.601  0.00  0.00    +0.000 C 
BRANCH  11  13
ATOM     13  C   UNL     1      48.727   5.399  16.709  0.00  0.00    +0.000 A 
ATOM     14  C   UNL     1      47.545   4.650  16.662  0.00  0.00    +0.000 A 
ATOM     15  C   UNL     1      47.480   3.415  17.300  0.00  0.00    +0.000 A 
ATOM     16  C   UNL     1      48.596   2.972  17.988  0.00  0.00    +0.000 A 
ATOM     17  N   UNL     1      49.741   3.679  18.095  0.00  0.00    +0.000 NA
ATOM     18  C   UNL     1      49.778   4.871  17.457  0.00  0.00    +0.000 A 
ENDBRANCH  11  13
ENDBRANCH   9  11
ENDBRANCH   8   9
ENDBRANCH   1   8
BRANCH   4  19
ATOM     19  C   UNL     1      43.276   4.575  12.908  0.00  0.00    +0.000 C 
BRANCH  19  20
ATOM     20  N   UNL     1      42.860   4.190  11.565  0.00  0.00    +0.000 NA
ATOM     21  H   UNL     1      43.171   4.905  10.907  0.00  0.00    +0.000 HD
BRANCH  20  22
ATOM     22  C   UNL     1      43.476   2.915  11.180  0.00  0.00    +0.000 C 
BRANCH  22  23
ATOM     23  C   UNL     1      44.400   3.081   9.993  0.00  0.00    +0.000 A 
ATOM     24  C   UNL     1      44.888   1.957   9.325  0.00  0.00    +0.000 A 
ATOM     25  C   UNL     1      45.700   2.134   8.213  0.00  0.00    +0.000 A 
ATOM     26  C   UNL     1      46.014   3.423   7.800  0.00  0.00    +0.000 A 
ATOM     27  C   UNL     1      45.496   4.486   8.522  0.00  0.00    +0.000 A 
ATOM     28  N   UNL     1      44.700   4.347   9.602  0.00  0.00    +0.000 NA
ENDBRANCH  22  23
ENDBRANCH  20  22
ENDBRANCH  19  20
ENDBRANCH   4  19
TORSDOF 8
ENDMDL
MODEL 3
REMARK VINA RESULT:    -6.810      1.554      2.121
REMARK INTER + INTRA:         -11.359
REMARK INTER:                 -10.268
REMARK INTRA:                  -1.091
REMARK UNBOUND:                -1.364
REMARK  Name = 
REMARK  10 active torsions:
REMARK  status: ('A' for Active; 'I' for Inactive)
REMARK    1  A    between atoms: C_1  and  C_2
REMARK    2  A    between atoms: C_2  and  N_3
REMARK    3  A    between atoms: C_2  and  C_12
REMARK    4  A    between atoms: N_3  and  C_4
REMARK    5  A    between atoms: C_4  and  C_5
REMARK    6  A    between atoms: C_4  and  C_6
REMARK    7  A    between atoms: C_15  and  C_16
REMARK    8  A    between atoms: C_16  and  N_17
REMARK    9  A    between atoms: N_17  and  C_18
REMARK   10  A    between atoms: C_18  and  C_19
REMARK                            x       y       z     vdW  Elec       q    Type
REMARK                         _______ _______ _______ _____ _____    ______ ____
ROOT
ATOM      1  C   UNL     1      47.062   6.090  12.695  0.00  0.00    +0.000 A 
ATOM      2  C   UNL     1      46.600   6.542  11.448  0.00  0.00    +0.000 A 
ATOM      3  C   UNL     1      45.485   5.950  10.833  0.00  0.00    +0.000 A 
ATOM      4  C   UNL     1      44.819   4.875  11.438  0.00  0.00    +0.000 A 
ATOM      5  C   UNL     1      45.344   4.347  12.617  0.00  0.00    +0.000 A 
ATOM      6  C   UNL     1      46.454   4.936  13.219  0.00  0.00    +0.000 A 
ENDROOT
BRANCH   1   8
ATOM      7  C   UNL     1      49.340   7.183  12.500  0.00  0.00    +0.000 C 
ATOM      8  C   UNL     1      48.187   6.817  13.459  0.00  0.00    +0.000 C 
BRANCH   8   9
ATOM      9  N   UNL     1      48.689   5.983  14.575  0.00  0.00    +0.000 NA
ATOM     10  H   UNL     1      49.555   5.541  14.267  0.00  0.00    +0.000 HD
BRANCH   9  11
ATOM     11  C   UNL     1      48.938   6.681  15.846  0.00  0.00    +0.000 C 
ATOM     12  C   UNL     1      48.586   8.168  15.672  0.00  0.00    +0.000 C 
BRANCH  11  13
ATOM     13  C   UNL     1      50.357   6.555  16.353  0.00  0.00    +0.000 A 
ATOM     14  C   UNL     1      50.684   5.791  17.479  0.00  0.00    +0.000 A 
ATOM     15  C   UNL     1      52.019   5.614  17.834  0.00  0.00    +0.000 A 
ATOM     16  C   UNL     1      52.990   6.227  17.063  0.00  0.00    +0.000 A 
ATOM     17  N   UNL     1      52.719   7.008  15.995  0.00  0.00    +0.000 NA
ATOM     18  C   UNL     1      51.413   7.154  15.669  0.00  0.00    +0.000 A 
ENDBRANCH  11  13
ENDBRANCH   9  11
ENDBRANCH   8   9
ENDBRANCH   1   8
BRANCH   4  19
ATOM     19  C   UNL     1      43.526   4.329  10.884  0.00  0.00    +0.000 C 
BRANCH  19  20
ATOM     20  N   UNL     1      43.711   3.748   9.560  0.00  0.00    +0.000 NA
ATOM     21  H   UNL     1      44.253   4.398   8.988  0.00  0.00    +0.000 HD
BRANCH  20  22
ATOM     22  C   UNL     1      44.456   2.487   9.649  0.00  0.00    +0.000 C 
BRANCH  22  23
ATOM     23  C   UNL     1      45.505   2.383   8.563  0.00  0.00    +0.000 A 
ATOM     24  C   UNL     1      45.858   3.512   7.823  0.00  0.00    +0.000 A 
ATOM     25  C   UNL     1      46.851   3.404   6.860  0.00  0.00    +0.000 A 
ATOM     26  C   UNL     1      47.461   2.173   6.651  0.00  0.00    +0.000 A 
ATOM     27  C   UNL     1      47.048   1.098   7.421  0.00  0.00    +0.000 A 
ATOM     28  N   UNL     1      46.091   1.174   8.368  0.00  0.00    +0.000 NA
ENDBRANCH  22  23
ENDBRANCH  20  22
ENDBRANCH  19  20
ENDBRANCH   4  19
TORSDOF 8
ENDMDL
MODEL 4
REMARK VINA RESULT:    -6.624      1.660      2.248
REMARK INTER + INTRA:         -11.086
REMARK INTER:                 -10.076
REMARK INTRA:                  -1.010
REMARK UNBOUND:                -1.364
REMARK  Name = 
REMARK  10 active torsions:
REMARK  status: ('A' for Active; 'I' for Inactive)
REMARK    1  A    between atoms: C_1  and  C_2
REMARK    2  A    between atoms: C_2  and  N_3
REMARK    3  A    between atoms: C_2  and  C_12
REMARK    4  A    between atoms: N_3  and  C_4
REMARK    5  A    between atoms: C_4  and  C_5
REMARK    6  A    between atoms: C_4  and  C_6
REMARK    7  A    between atoms: C_15  and  C_16
REMARK    8  A    between atoms: C_16  and  N_17
REMARK    9  A    between atoms: N_17  and  C_18
REMARK   10  A    between atoms: C_18  and  C_19
REMARK                            x       y       z     vdW  Elec       q    Type
REMARK                         _______ _______ _______ _____ _____    ______ ____
ROOT
ATOM      1  C   UNL     1      46.935   5.648  13.577  0.00  0.00    +0.000 A 
ATOM      2  C   UNL     1      46.259   6.365  12.576  0.00  0.00    +0.000 A 
ATOM      3  C   UNL     1      45.280   5.748  11.780  0.00  0.00    +0.000 A 
ATOM      4  C   UNL     1      44.968   4.392  11.950  0.00  0.00    +0.000 A 
ATOM      5  C   UNL     1      45.718   3.647  12.860  0.00  0.00    +0.000 A 
ATOM      6  C   UNL     1      46.692   4.265  13.642  0.00  0.00    +0.000 A 
ENDROOT
BRANCH   1   8
ATOM      7  C   UNL     1      49.073   6.989  13.794  0.00  0.00    +0.000 C 
ATOM      8  C   UNL     1      47.903   6.336  14.559  0.00  0.00    +0.000 C 
BRANCH   8   9
ATOM      9  N   UNL     1      48.414   5.370  15.558  0.00  0.00    +0.000 NA
ATOM     10  H   UNL     1      48.877   4.616  15.051  0.00  0.00    +0.000 HD
BRANCH   9  11
ATOM     11  C   UNL     1      49.345   5.907  16.563  0.00  0.00    +0.000 C 
ATOM     12  C   UNL     1      50.003   4.733  17.307  0.00  0.00    +0.000 C 
BRANCH  11  13
ATOM     13  C   UNL     1      48.703   6.842  17.564  0.00  0.00    +0.000 A 
ATOM     14  C   UNL     1      48.714   8.232  17.404  0.00  0.00    +0.000 A 
ATOM     15  C   UNL     1      48.009   9.038  18.293  0.00  0.00    +0.000 A 
ATOM     16  C   UNL     1      47.329   8.431  19.333  0.00  0.00    +0.000 A 
ATOM     17  N   UNL     1      47.326   7.098  19.551  0.00  0.00    +0.000 NA
ATOM     18  C   UNL     1      48.012   6.339  18.666  0.00  0.00    +0.000 A 
ENDBRANCH  11  13
ENDBRANCH   9  11
ENDBRANCH   8   9
ENDBRANCH   1   8
BRANCH   4  19
ATOM     19  C   UNL     1      43.812   3.746  11.227  0.00  0.00    +0.000 C 
BRANCH  19  20
ATOM     20  N   UNL     1      44.078   3.610   9.801  0.00  0.00    +0.000 NA
ATOM     21  H   UNL     1      44.821   4.260   9.541  0.00  0.00    +0.000 HD
BRANCH  20  22
ATOM     22  C   UNL     1      44.530   2.249   9.488  0.00  0.00    +0.000 C 
BRANCH  22  23
ATOM     23  C   UNL     1      45.590   2.251   8.408  0.00  0.00    +0.000 A 
ATOM     24  C   UNL     1      45.826   3.407   7.663  0.00  0.00    +0.000 A 
ATOM     25  C   UNL     1      46.831   3.399   6.706  0.00  0.00    +0.000 A 
ATOM     26  C   UNL     1      47.569   2.239   6.507  0.00  0.00    +0.000 A 
ATOM     27  C   UNL     1      47.268   1.131   7.281  0.00  0.00    +0.000 A 
ATOM     28  N   UNL     1      46.302   1.109   8.223  0.00  0.00    +0.000 NA
ENDBRANCH  22  23
ENDBRANCH  20  22
ENDBRANCH  19  20
ENDBRANCH   4  19
TORSDOF 8
ENDMDL
MODEL 5
REMARK VINA RESULT:    -6.379      2.655      4.572
REMARK INTER + INTRA:         -10.726
REMARK INTER:                  -9.867
REMARK INTRA:                  -0.859
REMARK UNBOUND:                -1.364
REMARK  Name = 
REMARK  10 active torsions:
REMARK  status: ('A' for Active; 'I' for Inactive)
REMARK    1  A    between atoms: C_1  and  C_2
REMARK    2  A    between atoms: C_2  and  N_3
REMARK    3  A    between atoms: C_2  and  C_12
REMARK    4  A    between atoms: N_3  and  C_4
REMARK    5  A    between atoms: C_4  and  C_5
REMARK    6  A    between atoms: C_4  and  C_6
REMARK    7  A    between atoms: C_15  and  C_16
REMARK    8  A    between atoms: C_16  and  N_17
REMARK    9  A    between atoms: N_17  and  C_18
REMARK   10  A    between atoms: C_18  and  C_19
REMARK                            x       y       z     vdW  Elec       q    Type
REMARK                         _______ _______ _______ _____ _____    ______ ____
ROOT
ATOM      1  C   UNL     1      47.152   6.119  12.695  0.00  0.00    +0.000 A 
ATOM      2  C   UNL     1      46.934   4.896  13.349  0.00  0.00    +0.000 A 
ATOM      3  C   UNL     1      45.892   4.041  12.957  0.00  0.00    +0.000 A 
ATOM      4  C   UNL     1      45.025   4.399  11.915  0.00  0.00    +0.000 A 
ATOM      5  C   UNL     1      45.163   5.662  11.341  0.00  0.00    +0.000 A 
ATOM      6  C   UNL     1      46.197   6.508  11.739  0.00  0.00    +0.000 A 
ENDROOT
BRANCH   1   8
ATOM      7  C   UNL     1      48.066   7.959  14.178  0.00  0.00    +0.000 C 
ATOM      8  C   UNL     1      48.376   7.003  13.006  0.00  0.00    +0.000 C 
BRANCH   8   9
ATOM      9  N   UNL     1      48.789   7.770  11.809  0.00  0.00    +0.000 NA
ATOM     10  H   UNL     1      47.962   8.243  11.444  0.00  0.00    +0.000 HD
BRANCH   9  11
ATOM     11  C   UNL     1      49.854   8.765  12.011  0.00  0.00    +0.000 C 
ATOM     12  C   UNL     1      49.437  10.081  11.335  0.00  0.00    +0.000 C 
BRANCH  11  13
ATOM     13  C   UNL     1      51.208   8.337  11.491  0.00  0.00    +0.000 A 
ATOM     14  C   UNL     1      51.352   7.390  10.470  0.00  0.00    +0.000 A 
ATOM     15  C   UNL     1      52.614   7.118   9.949  0.00  0.00    +0.000 A 
ATOM     16  C   UNL     1      53.702   7.787  10.480  0.00  0.00    +0.000 A 
ATOM     17  N   UNL     1      53.615   8.675  11.494  0.00  0.00    +0.000 NA
ATOM     18  C   UNL     1      52.375   8.926  11.974  0.00  0.00    +0.000 A 
ENDBRANCH  11  13
ENDBRANCH   9  11
ENDBRANCH   8   9
ENDBRANCH   1   8
BRANCH   4  19
ATOM     19  C   UNL     1      44.004   3.435  11.364  0.00  0.00    +0.000 C 
BRANCH  19  20
ATOM     20  N   UNL     1      44.587   2.544  10.369  0.00  0.00    +0.000 NA
ATOM     21  H   UNL     1      44.010   1.705  10.300  0.00  0.00    +0.000 HD
BRANCH  20  22
ATOM     22  C   UNL     1      44.613   3.190   9.051  0.00  0.00    +0.000 C 
BRANCH  22  23
ATOM     23  C   UNL     1      45.644   2.556   8.142  0.00  0.00    +0.000 A 
ATOM     24  C   UNL     1      46.200   3.293   7.095  0.00  0.00    +0.000 A 
ATOM     25  C   UNL     1      47.174   2.705   6.301  0.00  0.00    +0.000 A 
ATOM     26  C   UNL     1      47.563   1.397   6.561  0.00  0.00    +0.000 A 
ATOM     27  C   UNL     1      46.958   0.731   7.613  0.00  0.00    +0.000 A 
ATOM     28  N   UNL     1      46.013   1.276   8.407  0.00  0.00    +0.000 NA
ENDBRANCH  22  23
ENDBRANCH  20  22
ENDBRANCH  19  20
ENDBRANCH   4  19
TORSDOF 8
ENDMDL
MODEL 6
REMARK VINA RESULT:    -6.323      3.421     10.230
REMARK INTER + INTRA:         -10.644
REMARK INTER:                  -9.963
REMARK INTRA:                  -0.681
REMARK UNBOUND:                -1.364
REMARK  Name = 
REMARK  10 active torsions:
REMARK  status: ('A' for Active; 'I' for Inactive)
REMARK    1  A    between atoms: C_1  and  C_2
REMARK    2  A    between atoms: C_2  and  N_3
REMARK    3  A    between atoms: C_2  and  C_12
REMARK    4  A    between atoms: N_3  and  C_4
REMARK    5  A    between atoms: C_4  and  C_5
REMARK    6  A    between atoms: C_4  and  C_6
REMARK    7  A    between atoms: C_15  and  C_16
REMARK    8  A    between atoms: C_16  and  N_17
REMARK    9  A    between atoms: N_17  and  C_18
REMARK   10  A    between atoms: C_18  and  C_19
REMARK                            x       y       z     vdW  Elec       q    Type
REMARK                         _______ _______ _______ _____ _____    ______ ____
ROOT
ATOM      1  C   UNL     1      46.664   1.937   6.940  0.00  0.00    +0.000 A 
ATOM      2  C   UNL     1      46.198   1.146   8.003  0.00  0.00    +0.000 A 
ATOM      3  C   UNL     1      45.376   1.690   9.002  0.00  0.00    +0.000 A 
ATOM      4  C   UNL     1      45.018   3.046   8.977  0.00  0.00    +0.000 A 
ATOM      5  C   UNL     1      45.574   3.861   7.992  0.00  0.00    +0.000 A 
ATOM      6  C   UNL     1      46.394   3.315   7.006  0.00  0.00    +0.000 A 
ENDROOT
BRANCH   1   8
ATOM      7  C   UNL     1      47.777   2.424   4.716  0.00  0.00    +0.000 C 
ATOM      8  C   UNL     1      47.442   1.332   5.755  0.00  0.00    +0.000 C 
BRANCH   8   9
ATOM      9  N   UNL     1      46.670   0.238   5.123  0.00  0.00    +0.000 NA
ATOM     10  H   UNL     1      45.683   0.490   5.166  0.00  0.00    +0.000 HD
BRANCH   9  11
ATOM     11  C   UNL     1      47.018  -0.082   3.730  0.00  0.00    +0.000 C 
ATOM     12  C   UNL     1      45.920   0.468   2.805  0.00  0.00    +0.000 C 
BRANCH  11  13
ATOM     13  C   UNL     1      47.210  -1.558   3.462  0.00  0.00    +0.000 A 
ATOM     14  C   UNL     1      46.553  -2.545   4.206  0.00  0.00    +0.000 A 
ATOM     15  C   UNL     1      46.674  -3.883   3.844  0.00  0.00    +0.000 A 
ATOM     16  C   UNL     1      47.469  -4.200   2.757  0.00  0.00    +0.000 A 
ATOM     17  N   UNL     1      48.155  -3.286   2.038  0.00  0.00    +0.000 NA
ATOM     18  C   UNL     1      48.011  -1.993   2.408  0.00  0.00    +0.000 A 
ENDBRANCH  11  13
ENDBRANCH   9  11
ENDBRANCH   8   9
ENDBRANCH   1   8
BRANCH   4  19
ATOM     19  C   UNL     1      44.008   3.618   9.940  0.00  0.00    +0.000 C 
BRANCH  19  20
ATOM     20  N   UNL     1      43.882   2.798  11.139  0.00  0.00    +0.000 NA
ATOM     21  H   UNL     1      44.752   2.286  11.280  0.00  0.00    +0.000 HD
BRANCH  20  22
ATOM     22  C   UNL     1      43.650   3.641  12.318  0.00  0.00    +0.000 C 
BRANCH  22  23
ATOM     23  C   UNL     1      44.940   4.245  12.830  0.00  0.00    +0.000 A 
ATOM     24  C   UNL     1      45.111   5.630  12.830  0.00  0.00    +0.000 A 
ATOM     25  C   UNL     1      46.284   6.164  13.343  0.00  0.00    +0.000 A 
ATOM     26  C   UNL     1      47.262   5.307  13.834  0.00  0.00    +0.000 A 
ATOM     27  C   UNL     1      47.020   3.944  13.790  0.00  0.00    +0.000 A 
ATOM     28  N   UNL     1      45.887   3.395  13.304  0.00  0.00    +0.000 NA
ENDBRANCH  22  23
ENDBRANCH  20  22
ENDBRANCH  19  20
ENDBRANCH   4  19
TORSDOF 8
ENDMDL
MODEL 7
REMARK VINA RESULT:    -6.298      2.066      3.524
REMARK INTER + INTRA:         -10.608
REMARK INTER:                  -9.531
REMARK INTRA:                  -1.077
REMARK UNBOUND:                -1.364
REMARK  Name = 
REMARK  10 active torsions:
REMARK  status: ('A' for Active; 'I' for Inactive)
REMARK    1  A    between atoms: C_1  and  C_2
REMARK    2  A    between atoms: C_2  and  N_3
REMARK    3  A    between atoms: C_2  and  C_12
REMARK    4  A    between atoms: N_3  and  C_4
REMARK    5  A    between atoms: C_4  and  C_5
REMARK    6  A    between atoms: C_4  and  C_6
REMARK    7  A    between atoms: C_15  and  C_16
REMARK    8  A    between atoms: C_16  and  N_17
REMARK    9  A    between atoms: N_17  and  C_18
REMARK   10  A    between atoms: C_18  and  C_19
REMARK                            x       y       z     vdW  Elec       q    Type
REMARK                         _______ _______ _______ _____ _____    ______ ____
ROOT
ATOM      1  C   UNL     1      46.074   6.609  12.653  0.00  0.00    +0.000 A 
ATOM      2  C   UNL     1      46.413   5.323  13.105  0.00  0.00    +0.000 A 
ATOM      3  C   UNL     1      45.619   4.211  12.783  0.00  0.00    +0.000 A 
ATOM      4  C   UNL     1      44.452   4.359  12.021  0.00  0.00    +0.000 A 
ATOM      5  C   UNL     1      44.048   5.647  11.670  0.00  0.00    +0.000 A 
ATOM      6  C   UNL     1      44.838   6.747  11.998  0.00  0.00    +0.000 A 
ENDROOT
BRANCH   1   8
ATOM      7  C   UNL     1      48.282   7.673  12.011  0.00  0.00    +0.000 C 
ATOM      8  C   UNL     1      47.005   7.818  12.866  0.00  0.00    +0.000 C 
BRANCH   8   9
ATOM      9  N   UNL     1      47.356   7.967  14.297  0.00  0.00    +0.000 NA
ATOM     10  H   UNL     1      46.771   7.322  14.828  0.00  0.00    +0.000 HD
BRANCH   9  11
ATOM     11  C   UNL     1      48.765   7.729  14.648  0.00  0.00    +0.000 C 
ATOM     12  C   UNL     1      48.838   6.545  15.626  0.00  0.00    +0.000 C 
BRANCH  11  13
ATOM     13  C   UNL     1      49.462   8.927  15.253  0.00  0.00    +0.000 A 
ATOM     14  C   UNL     1      50.842   9.129  15.133  0.00  0.00    +0.000 A 
ATOM     15  C   UNL     1      51.415  10.306  15.607  0.00  0.00    +0.000 A 
ATOM     16  C   UNL     1      50.592  11.240  16.210  0.00  0.00    +0.000 A 
ATOM     17  N   UNL     1      49.265  11.069  16.386  0.00  0.00    +0.000 NA
ATOM     18  C   UNL     1      48.735   9.920  15.907  0.00  0.00    +0.000 A 
ENDBRANCH  11  13
ENDBRANCH   9  11
ENDBRANCH   8   9
ENDBRANCH   1   8
BRANCH   4  19
ATOM     19  C   UNL     1      43.672   3.168  11.523  0.00  0.00    +0.000 C 
BRANCH  19  20
ATOM     20  N   UNL     1      44.450   2.369  10.585  0.00  0.00    +0.000 NA
ATOM     21  H   UNL     1      44.059   1.427  10.552  0.00  0.00    +0.000 HD
BRANCH  20  22
ATOM     22  C   UNL     1      44.378   2.942   9.235  0.00  0.00    +0.000 C 
BRANCH  22  23
ATOM     23  C   UNL     1      45.527   2.471   8.370  0.00  0.00    +0.000 A 
ATOM     24  C   UNL     1      46.212   3.380   7.564  0.00  0.00    +0.000 A 
ATOM     25  C   UNL     1      47.289   2.934   6.810  0.00  0.00    +0.000 A 
ATOM     26  C   UNL     1      47.651   1.594   6.871  0.00  0.00    +0.000 A 
ATOM     27  C   UNL     1      46.914   0.754   7.690  0.00  0.00    +0.000 A 
ATOM     28  N   UNL     1      45.867   1.158   8.438  0.00  0.00    +0.000 NA
ENDBRANCH  22  23
ENDBRANCH  20  22
ENDBRANCH  19  20
ENDBRANCH   4  19
TORSDOF 8
ENDMDL
MODEL 8
REMARK VINA RESULT:    -6.242      2.680      5.029
REMARK INTER + INTRA:         -10.525
REMARK INTER:                  -9.561
REMARK INTRA:                  -0.964
REMARK UNBOUND:                -1.364
REMARK  Name = 
REMARK  10 active torsions:
REMARK  status: ('A' for Active; 'I' for Inactive)
REMARK    1  A    between atoms: C_1  and  C_2
REMARK    2  A    between atoms: C_2  and  N_3
REMARK    3  A    between atoms: C_2  and  C_12
REMARK    4  A    between atoms: N_3  and  C_4
REMARK    5  A    between atoms: C_4  and  C_5
REMARK    6  A    between atoms: C_4  and  C_6
REMARK    7  A    between atoms: C_15  and  C_16
REMARK    8  A    between atoms: C_16  and  N_17
REMARK    9  A    between atoms: N_17  and  C_18
REMARK   10  A    between atoms: C_18  and  C_19
REMARK                            x       y       z     vdW  Elec       q    Type
REMARK                         _______ _______ _______ _____ _____    ______ ____
ROOT
ATOM      1  C   UNL     1      46.912   5.799  12.967  0.00  0.00    +0.000 A 
ATOM      2  C   UNL     1      47.036   4.416  13.182  0.00  0.00    +0.000 A 
ATOM      3  C   UNL     1      45.947   3.553  12.983  0.00  0.00    +0.000 A 
ATOM      4  C   UNL     1      44.698   4.053  12.588  0.00  0.00    +0.000 A 
ATOM      5  C   UNL     1      44.538   5.435  12.488  0.00  0.00    +0.000 A 
ATOM      6  C   UNL     1      45.622   6.286  12.692  0.00  0.00    +0.000 A 
ENDROOT
BRANCH   1   8
ATOM      7  C   UNL     1      48.156   7.492  14.382  0.00  0.00    +0.000 C 
ATOM      8  C   UNL     1      48.126   6.746  13.032  0.00  0.00    +0.000 C 
BRANCH   8   9
ATOM      9  N   UNL     1      48.102   7.710  11.909  0.00  0.00    +0.000 NA
ATOM     10  H   UNL     1      47.229   7.571  11.399  0.00  0.00    +0.000 HD
BRANCH   9  11
ATOM     11  C   UNL     1      48.217   9.132  12.272  0.00  0.00    +0.000 C 
ATOM     12  C   UNL     1      46.839   9.796  12.119  0.00  0.00    +0.000 C 
BRANCH  11  13
ATOM     13  C   UNL     1      49.238   9.897  11.459  0.00  0.00    +0.000 A 
ATOM     14  C   UNL     1      48.905  11.039  10.722  0.00  0.00    +0.000 A 
ATOM     15  C   UNL     1      49.904  11.771  10.087  0.00  0.00    +0.000 A 
ATOM     16  C   UNL     1      51.210  11.327  10.190  0.00  0.00    +0.000 A 
ATOM     17  N   UNL     1      51.572  10.208  10.854  0.00  0.00    +0.000 NA
ATOM     18  C   UNL     1      50.580   9.522  11.469  0.00  0.00    +0.000 A 
ENDBRANCH  11  13
ENDBRANCH   9  11
ENDBRANCH   8   9
ENDBRANCH   1   8
BRANCH   4  19
ATOM     19  C   UNL     1      43.560   3.138  12.210  0.00  0.00    +0.000 C 
BRANCH  19  20
ATOM     20  N   UNL     1      43.809   2.464  10.943  0.00  0.00    +0.000 NA
ATOM     21  H   UNL     1      43.008   1.872  10.722  0.00  0.00    +0.000 HD
BRANCH  20  22
ATOM     22  C   UNL     1      43.968   3.442   9.860  0.00  0.00    +0.000 C 
BRANCH  22  23
ATOM     23  C   UNL     1      45.045   3.021   8.884  0.00  0.00    +0.000 A 
ATOM     24  C   UNL     1      45.653   3.970   8.062  0.00  0.00    +0.000 A 
ATOM     25  C   UNL     1      46.668   3.569   7.205  0.00  0.00    +0.000 A 
ATOM     26  C   UNL     1      47.045   2.231   7.179  0.00  0.00    +0.000 A 
ATOM     27  C   UNL     1      46.386   1.350   8.020  0.00  0.00    +0.000 A 
ATOM     28  N   UNL     1      45.401   1.710   8.869  0.00  0.00    +0.000 NA
ENDBRANCH  22  23
ENDBRANCH  20  22
ENDBRANCH  19  20
ENDBRANCH   4  19
TORSDOF 8
ENDMDL
MODEL 9
REMARK VINA RESULT:    -5.980      2.369      8.012
REMARK INTER + INTRA:         -10.140
REMARK INTER:                  -8.401
REMARK INTRA:                  -1.739
REMARK UNBOUND:                -1.364
REMARK  Name = 
REMARK  10 active torsions:
REMARK  status: ('A' for Active; 'I' for Inactive)
REMARK    1  A    between atoms: C_1  and  C_2
REMARK    2  A    between atoms: C_2  and  N_3
REMARK    3  A    between atoms: C_2  and  C_12
REMARK    4  A    between atoms: N_3  and  C_4
REMARK    5  A    between atoms: C_4  and  C_5
REMARK    6  A    between atoms: C_4  and  C_6
REMARK    7  A    between atoms: C_15  and  C_16
REMARK    8  A    between atoms: C_16  and  N_17
REMARK    9  A    between atoms: N_17  and  C_18
REMARK   10  A    between atoms: C_18  and  C_19
REMARK                            x       y       z     vdW  Elec       q    Type
REMARK                         _______ _______ _______ _____ _____    ______ ____
ROOT
ATOM      1  C   UNL     1      46.330   6.307  13.048  0.00  0.00    +0.000 A 
ATOM      2  C   UNL     1      47.596   6.313  12.439  0.00  0.00    +0.000 A 
ATOM      3  C   UNL     1      48.168   7.507  11.971  0.00  0.00    +0.000 A 
ATOM      4  C   UNL     1      47.478   8.722  12.078  0.00  0.00    +0.000 A 
ATOM      5  C   UNL     1      46.174   8.704  12.573  0.00  0.00    +0.000 A 
ATOM      6  C   UNL     1      45.611   7.515  13.030  0.00  0.00    +0.000 A 
ENDROOT
BRANCH   1   8
ATOM      7  C   UNL     1      46.826   4.318  14.537  0.00  0.00    +0.000 C 
ATOM      8  C   UNL     1      45.747   5.039  13.702  0.00  0.00    +0.000 C 
BRANCH   8   9
ATOM      9  N   UNL     1      45.192   4.126  12.677  0.00  0.00    +0.000 NA
ATOM     10  H   UNL     1      44.525   3.508  13.140  0.00  0.00    +0.000 HD
BRANCH   9  11
ATOM     11  C   UNL     1      44.528   4.765  11.529  0.00  0.00    +0.000 C 
ATOM     12  C   UNL     1      43.011   4.547  11.650  0.00  0.00    +0.000 C 
BRANCH  11  13
ATOM     13  C   UNL     1      45.003   4.266  10.183  0.00  0.00    +0.000 A 
ATOM     14  C   UNL     1      44.733   2.971   9.726  0.00  0.00    +0.000 A 
ATOM     15  C   UNL     1      45.092   2.602   8.433  0.00  0.00    +0.000 A 
ATOM     16  C   UNL     1      45.734   3.535   7.639  0.00  0.00    +0.000 A 
ATOM     17  N   UNL     1      46.053   4.780   8.052  0.00  0.00    +0.000 NA
ATOM     18  C   UNL     1      45.683   5.113   9.310  0.00  0.00    +0.000 A 
ENDBRANCH  11  13
ENDBRANCH   9  11
ENDBRANCH   8   9
ENDBRANCH   1   8
BRANCH   4  19
ATOM     19  C   UNL     1      48.130  10.039  11.736  0.00  0.00    +0.000 C 
BRANCH  19  20
ATOM     20  N   UNL     1      49.423  10.185  12.392  0.00  0.00    +0.000 NA
ATOM     21  H   UNL     1      49.922  10.966  11.965  0.00  0.00    +0.000 HD
BRANCH  20  22
ATOM     22  C   UNL     1      49.247  10.480  13.819  0.00  0.00    +0.000 C 
BRANCH  22  23
ATOM     23  C   UNL     1      49.483   9.253  14.673  0.00  0.00    +0.000 A 
ATOM     24  C   UNL     1      48.500   8.822  15.564  0.00  0.00    +0.000 A 
ATOM     25  C   UNL     1      48.721   7.671  16.307  0.00  0.00    +0.000 A 
ATOM     26  C   UNL     1      49.919   6.983  16.152  0.00  0.00    +0.000 A 
ATOM     27  C   UNL     1      50.848   7.481  15.253  0.00  0.00    +0.000 A 
ATOM     28  N   UNL     1      50.659   8.593  14.512  0.00  0.00    +0.000 NA
ENDBRANCH  22  23
ENDBRANCH  20  22
ENDBRANCH  19  20
ENDBRANCH   4  19
TORSDOF 8
ENDMDL
