MODEL 1
REMARK VINA RESULT:    -7.127      0.000      0.000
REMARK INTER + INTRA:          -9.434
REMARK INTER:                  -8.793
REMARK INTRA:                  -0.641
REMARK UNBOUND:                -0.641
REMARK  Name = 
REMARK  4 active torsions:
REMARK  status: ('A' for Active; 'I' for Inactive)
REMARK    1  A    between atoms: C_5  and  O_6
REMARK    2  A    between atoms: O_6  and  C_7
REMARK    3  A    between atoms: C_7  and  C_8
REMARK    4  A    between atoms: C_12  and  C_13
REMARK                            x       y       z     vdW  Elec       q    Type
REMARK                         _______ _______ _______ _____ _____    ______ ____
ROOT
ATOM      1  C   UNL     1      45.108   5.232  12.253  0.00  0.00    +0.000 A 
ATOM      2  C   UNL     1      45.658   4.276  13.123  0.00  0.00    +0.000 A 
ATOM      3  C   UNL     1      46.906   4.455  13.709  0.00  0.00    +0.000 A 
ATOM      4  C   UNL     1      47.647   5.599  13.421  0.00  0.00    +0.000 A 
ATOM      5  C   UNL     1      47.146   6.590  12.562  0.00  0.00    +0.000 A 
ATOM      6  C   UNL     1      45.856   6.404  12.029  0.00  0.00    +0.000 A 
ENDROOT
BRANCH   5   7
ATOM      7  C   UNL     1      47.981   7.739  12.154  0.00  0.00    +0.000 A 
ATOM      8  C   UNL     1      47.448   9.036  12.125  0.00  0.00    +0.000 A 
ATOM      9  C   UNL     1      48.264  10.104  11.786  0.00  0.00    +0.000 A 
ATOM     10  N   UNL     1      49.569   9.980  11.473  0.00  0.00    +0.000 NA
ATOM     11  C   UNL     1      50.077   8.732  11.508  0.00  0.00    +0.000 A 
ATOM     12  C   UNL     1      49.334   7.601  11.829  0.00  0.00    +0.000 A 
ENDBRANCH   5   7
BRANCH   1  13
ATOM     13  C   UNL     1      43.810   4.944  11.516  0.00  0.00    +0.000 C 
ATOM     14  C   UNL     1      42.463   5.320  12.132  0.00  0.00    +0.000 C 
ATOM     15  C   UNL     1      43.027   6.162  11.041  0.00  0.00    +0.000 C 
BRANCH  13  16
ATOM     16  O   UNL     1      43.721   3.680  10.812  0.00  0.00    +0.000 OA
BRANCH  16  21
ATOM     17 BR   UNL     1      47.208   2.540   6.132  0.00  0.00    +0.000 Br
ATOM     18  C   UNL     1      46.187   2.925   7.659  0.00  0.00    +0.000 A 
ATOM     19  C   UNL     1      45.804   4.207   7.973  0.00  0.00    +0.000 A 
ATOM     20  N   UNL     1      45.024   4.508   9.030  0.00  0.00    +0.000 NA
ATOM     21  C   UNL     1      44.620   3.473   9.787  0.00  0.00    +0.000 A 
ATOM     22  N   UNL     1      44.970   2.189   9.593  0.00  0.00    +0.000 NA
ATOM     23  C   UNL     1      45.751   1.945   8.519  0.00  0.00    +0.000 A 
ENDBRANCH  16  21
ENDBRANCH  13  16
ENDBRANCH   1  13
TORSDOF 4
ENDMDL
MODEL 2
REMARK VINA RESULT:    -7.073      2.383      3.706
REMARK INTER + INTRA:          -9.368
REMARK INTER:                  -9.077
REMARK INTRA:                  -0.291
REMARK UNBOUND:                -0.641
REMARK  Name = 
REMARK  4 active torsions:
REMARK  status: ('A' for Active; 'I' for Inactive)
REMARK    1  A    between atoms: C_5  and  O_6
REMARK    2  A    between atoms: O_6  and  C_7
REMARK    3  A    between atoms: C_7  and  C_8
REMARK    4  A    between atoms: C_12  and  C_13
REMARK                            x       y       z     vdW  Elec       q    Type
REMARK                         _______ _______ _______ _____ _____    ______ ____
ROOT
ATOM      1  C   UNL     1      45.466   5.293  12.248  0.00  0.00    +0.000 A 
ATOM      2  C   UNL     1      46.149   6.354  11.633  0.00  0.00    +0.000 A 
ATOM      3  C   UNL     1      47.312   6.888  12.178  0.00  0.00    +0.000 A 
ATOM      4  C   UNL     1      47.813   6.377  13.372  0.00  0.00    +0.000 A 
ATOM      5  C   UNL     1      47.175   5.313  14.031  0.00  0.00    +0.000 A 
ATOM      6  C   UNL     1      46.030   4.760  13.423  0.00  0.00    +0.000 A 
ENDROOT
BRANCH   5   7
ATOM      7  C   UNL     1      47.628   4.856  15.360  0.00  0.00    +0.000 A 
ATOM      8  C   UNL     1      47.317   3.566  15.818  0.00  0.00    +0.000 A 
ATOM      9  C   UNL     1      47.794   3.143  17.048  0.00  0.00    +0.000 A 
ATOM     10  N   UNL     1      48.558   3.904  17.857  0.00  0.00    +0.000 NA
ATOM     11  C   UNL     1      48.859   5.139  17.410  0.00  0.00    +0.000 A 
ATOM     12  C   UNL     1      48.419   5.652  16.195  0.00  0.00    +0.000 A 
ENDBRANCH   5   7
BRANCH   1  13
ATOM     13  C   UNL     1      44.123   4.828  11.710  0.00  0.00    +0.000 C 
ATOM     14  C   UNL     1      42.837   5.081  12.496  0.00  0.00    +0.000 C 
ATOM     15  C   UNL     1      43.147   5.928  11.310  0.00  0.00    +0.000 C 
BRANCH  13  16
ATOM     16  O   UNL     1      44.087   3.530  11.066  0.00  0.00    +0.000 OA
BRANCH  16  21
ATOM     17 BR   UNL     1      46.903   2.657   5.901  0.00  0.00    +0.000 Br
ATOM     18  C   UNL     1      46.099   2.956   7.571  0.00  0.00    +0.000 A 
ATOM     19  C   UNL     1      45.764   4.217   8.000  0.00  0.00    +0.000 A 
ATOM     20  N   UNL     1      45.135   4.457   9.168  0.00  0.00    +0.000 NA
ATOM     21  C   UNL     1      44.838   3.382   9.919  0.00  0.00    +0.000 A 
ATOM     22  N   UNL     1      45.157   2.112   9.612  0.00  0.00    +0.000 NA
ATOM     23  C   UNL     1      45.785   1.929   8.431  0.00  0.00    +0.000 A 
ENDBRANCH  16  21
ENDBRANCH  13  16
ENDBRANCH   1  13
TORSDOF 4
ENDMDL
MODEL 3
REMARK VINA RESULT:    -6.705      3.467      6.729
REMARK INTER + INTRA:          -8.913
REMARK INTER:                  -8.307
REMARK INTRA:                  -0.606
REMARK UNBOUND:                -0.641
REMARK  Name = 
REMARK  4 active torsions:
REMARK  status: ('A' for Active; 'I' for Inactive)
REMARK    1  A    between atoms: C_5  and  O_6
REMARK    2  A    between atoms: O_6  and  C_7
REMARK    3  A    between atoms: C_7  and  C_8
REMARK    4  A    between atoms: C_12  and  C_13
REMARK                            x       y       z     vdW  Elec       q    Type
REMARK                         _______ _______ _______ _____ _____    ______ ____
ROOT
ATOM      1  C   UNL     1      45.484   6.304  11.725  0.00  0.00    +0.000 A 
ATOM      2  C   UNL     1      44.101   6.475  11.899  0.00  0.00    +0.000 A 
ATOM      3  C   UNL     1      43.177   5.704  11.201  0.00  0.00    +0.000 A 
ATOM      4  C   UNL     1      43.621   4.747  10.292  0.00  0.00    +0.000 A 
ATOM      5  C   UNL     1      44.992   4.530  10.080  0.00  0.00    +0.000 A 
ATOM      6  C   UNL     1      45.901   5.289  10.843  0.00  0.00    +0.000 A 
ENDROOT
BRANCH   5   7
ATOM      7  C   UNL     1      45.465   3.609   9.026  0.00  0.00    +0.000 A 
ATOM      8  C   UNL     1      46.061   4.107   7.857  0.00  0.00    +0.000 A 
ATOM      9  C   UNL     1      46.540   3.222   6.904  0.00  0.00    +0.000 A 
ATOM     10  N   UNL     1      46.471   1.881   7.024  0.00  0.00    +0.000 NA
ATOM     11  C   UNL     1      45.902   1.410   8.152  0.00  0.00    +0.000 A 
ATOM     12  C   UNL     1      45.387   2.219   9.158  0.00  0.00    +0.000 A 
ENDBRANCH   5   7
BRANCH   1  13
ATOM     13  C   UNL     1      46.465   7.256  12.390  0.00  0.00    +0.000 C 
ATOM     14  C   UNL     1      46.566   8.712  11.939  0.00  0.00    +0.000 C 
ATOM     15  C   UNL     1      45.850   8.388  13.204  0.00  0.00    +0.000 C 
BRANCH  13  16
ATOM     16  O   UNL     1      47.773   6.726  12.720  0.00  0.00    +0.000 OA
BRANCH  16  21
ATOM     17 BR   UNL     1      47.988   4.215  18.106  0.00  0.00    +0.000 Br
ATOM     18  C   UNL     1      47.988   4.944  16.377  0.00  0.00    +0.000 A 
ATOM     19  C   UNL     1      47.274   4.377  15.349  0.00  0.00    +0.000 A 
ATOM     20  N   UNL     1      47.208   4.909  14.113  0.00  0.00    +0.000 NA
ATOM     21  C   UNL     1      47.888   6.053  13.918  0.00  0.00    +0.000 A 
ATOM     22  N   UNL     1      48.649   6.667  14.841  0.00  0.00    +0.000 NA
ATOM     23  C   UNL     1      48.677   6.091  16.062  0.00  0.00    +0.000 A 
ENDBRANCH  16  21
ENDBRANCH  13  16
ENDBRANCH   1  13
TORSDOF 4
ENDMDL
MODEL 4
REMARK VINA RESULT:    -6.475      3.385      6.626
REMARK INTER + INTRA:          -8.630
REMARK INTER:                  -7.985
REMARK INTRA:                  -0.645
REMARK UNBOUND:                -0.641
REMARK  Name = 
REMARK  4 active torsions:
REMARK  status: ('A' for Active; 'I' for Inactive)
REMARK    1  A    between atoms: C_5  and  O_6
REMARK    2  A    between atoms: O_6  and  C_7
REMARK    3  A    between atoms: C_7  and  C_8
REMARK    4  A    between atoms: C_12  and  C_13
REMARK                            x       y       z     vdW  Elec       q    Type
REMARK                         _______ _______ _______ _____ _____    ______ ____
ROOT
ATOM      1  C   UNL     1      45.135   6.231  11.856  0.00  0.00    +0.000 A 
ATOM      2  C   UNL     1      43.786   6.047  12.199  0.00  0.00    +0.000 A 
ATOM      3  C   UNL     1      43.008   5.062  11.600  0.00  0.00    +0.000 A 
ATOM      4  C   UNL     1      43.565   4.242  10.622  0.00  0.00    +0.000 A 
ATOM      5  C   UNL     1      44.910   4.377  10.241  0.00  0.00    +0.000 A 
ATOM      6  C   UNL     1      45.684   5.348  10.907  0.00  0.00    +0.000 A 
ENDROOT
BRANCH   5   7
ATOM      7  C   UNL     1      45.466   3.598   9.116  0.00  0.00    +0.000 A 
ATOM      8  C   UNL     1      46.037   4.247   8.011  0.00  0.00    +0.000 A 
ATOM      9  C   UNL     1      46.596   3.495   6.989  0.00  0.00    +0.000 A 
ATOM     10  N   UNL     1      46.631   2.147   6.984  0.00  0.00    +0.000 NA
ATOM     11  C   UNL     1      46.086   1.530   8.051  0.00  0.00    +0.000 A 
ATOM     12  C   UNL     1      45.496   2.200   9.117  0.00  0.00    +0.000 A 
ENDBRANCH   5   7
BRANCH   1  13
ATOM     13  C   UNL     1      45.918   7.406  12.420  0.00  0.00    +0.000 C 
ATOM     14  C   UNL     1      47.116   7.175  13.340  0.00  0.00    +0.000 C 
ATOM     15  C   UNL     1      47.349   7.557  11.919  0.00  0.00    +0.000 C 
BRANCH  13  16
ATOM     16  O   UNL     1      45.153   8.560  12.848  0.00  0.00    +0.000 OA
BRANCH  16  21
ATOM     17 BR   UNL     1      44.632  12.640   8.553  0.00  0.00    +0.000 Br
ATOM     18  C   UNL     1      44.727  11.398   9.958  0.00  0.00    +0.000 A 
ATOM     19  C   UNL     1      43.852  10.343  10.053  0.00  0.00    +0.000 A 
ATOM     20  N   UNL     1      43.930   9.403  11.017  0.00  0.00    +0.000 NA
ATOM     21  C   UNL     1      44.929   9.543  11.907  0.00  0.00    +0.000 A 
ATOM     22  N   UNL     1      45.810  10.558  11.928  0.00  0.00    +0.000 NA
ATOM     23  C   UNL     1      45.687  11.469  10.939  0.00  0.00    +0.000 A 
ENDBRANCH  16  21
ENDBRANCH  13  16
ENDBRANCH   1  13
TORSDOF 4
ENDMDL
MODEL 5
REMARK VINA RESULT:    -6.393      1.526      2.200
REMARK INTER + INTRA:          -8.529
REMARK INTER:                  -8.389
REMARK INTRA:                  -0.140
REMARK UNBOUND:                -0.641
REMARK  Name = 
REMARK  4 active torsions:
REMARK  status: ('A' for Active; 'I' for Inactive)
REMARK    1  A    between atoms: C_5  and  O_6
REMARK    2  A    between atoms: O_6  and  C_7
REMARK    3  A    between atoms: C_7  and  C_8
REMARK    4  A    between atoms: C_12  and  C_13
REMARK                            x       y       z     vdW  Elec       q    Type
REMARK                         _______ _______ _______ _____ _____    ______ ____
ROOT
ATOM      1  C   UNL     1      45.295   5.906  12.445  0.00  0.00    +0.000 A 
ATOM      2  C   UNL     1      46.509   5.350  12.882  0.00  0.00    +0.000 A 
ATOM      3  C   UNL     1      47.626   6.142  13.129  0.00  0.00    +0.000 A 
ATOM      4  C   UNL     1      47.557   7.517  12.927  0.00  0.00    +0.000 A 
ATOM      5  C   UNL     1      46.369   8.129  12.495  0.00  0.00    +0.000 A 
ATOM      6  C   UNL     1      45.241   7.306  12.306  0.00  0.00    +0.000 A 
ENDROOT
BRANCH   5   7
ATOM      7  C   UNL     1      46.330   9.566  12.155  0.00  0.00    +0.000 A 
ATOM      8  C   UNL     1      45.134  10.169  11.736  0.00  0.00    +0.000 A 
ATOM      9  C   UNL     1      45.111  11.529  11.470  0.00  0.00    +0.000 A 
ATOM     10  N   UNL     1      46.185  12.334  11.588  0.00  0.00    +0.000 NA
ATOM     11  C   UNL     1      47.329  11.750  11.997  0.00  0.00    +0.000 A 
ATOM     12  C   UNL     1      47.450  10.394  12.279  0.00  0.00    +0.000 A 
ENDBRANCH   5   7
BRANCH   1  13
ATOM     13  C   UNL     1      44.139   5.005  12.044  0.00  0.00    +0.000 C 
ATOM     14  C   UNL     1      42.823   5.032  12.821  0.00  0.00    +0.000 C 
ATOM     15  C   UNL     1      42.903   5.708  11.496  0.00  0.00    +0.000 C 
BRANCH  13  16
ATOM     16  O   UNL     1      44.469   3.654  11.637  0.00  0.00    +0.000 OA
BRANCH  16  21
ATOM     17 BR   UNL     1      46.660   3.041   6.142  0.00  0.00    +0.000 Br
ATOM     18  C   UNL     1      45.880   3.226   7.839  0.00  0.00    +0.000 A 
ATOM     19  C   UNL     1      45.472   2.139   8.573  0.00  0.00    +0.000 A 
ATOM     20  N   UNL     1      44.961   2.236   9.817  0.00  0.00    +0.000 NA
ATOM     21  C   UNL     1      44.864   3.477  10.327  0.00  0.00    +0.000 A 
ATOM     22  N   UNL     1      45.195   4.608   9.679  0.00  0.00    +0.000 NA
ATOM     23  C   UNL     1      45.703   4.451   8.438  0.00  0.00    +0.000 A 
ENDBRANCH  16  21
ENDBRANCH  13  16
ENDBRANCH   1  13
TORSDOF 4
ENDMDL
MODEL 6
REMARK VINA RESULT:    -6.260      4.118      7.519
REMARK INTER + INTRA:          -8.364
REMARK INTER:                  -7.527
REMARK INTRA:                  -0.837
REMARK UNBOUND:                -0.641
REMARK  Name = 
REMARK  4 active torsions:
REMARK  status: ('A' for Active; 'I' for Inactive)
REMARK    1  A    between atoms: C_5  and  O_6
REMARK    2  A    between atoms: O_6  and  C_7
REMARK    3  A    between atoms: C_7  and  C_8
REMARK    4  A    between atoms: C_12  and  C_13
REMARK                            x       y       z     vdW  Elec       q    Type
REMARK                         _______ _______ _______ _____ _____    ______ ____
ROOT
ATOM      1  C   UNL     1      47.616   7.629  12.642  0.00  0.00    +0.000 A 
ATOM      2  C   UNL     1      46.817   8.782  12.726  0.00  0.00    +0.000 A 
ATOM      3  C   UNL     1      45.446   8.738  12.495  0.00  0.00    +0.000 A 
ATOM      4  C   UNL     1      44.841   7.531  12.155  0.00  0.00    +0.000 A 
ATOM      5  C   UNL     1      45.588   6.346  12.060  0.00  0.00    +0.000 A 
ATOM      6  C   UNL     1      46.964   6.415  12.354  0.00  0.00    +0.000 A 
ENDROOT
BRANCH   5   7
ATOM      7  C   UNL     1      44.974   5.093  11.575  0.00  0.00    +0.000 A 
ATOM      8  C   UNL     1      44.248   4.268  12.447  0.00  0.00    +0.000 A 
ATOM      9  C   UNL     1      43.640   3.122  11.958  0.00  0.00    +0.000 A 
ATOM     10  N   UNL     1      43.699   2.736  10.668  0.00  0.00    +0.000 NA
ATOM     11  C   UNL     1      44.393   3.536   9.834  0.00  0.00    +0.000 A 
ATOM     12  C   UNL     1      45.041   4.698  10.235  0.00  0.00    +0.000 A 
ENDBRANCH   5   7
BRANCH   1  13
ATOM     13  C   UNL     1      49.128   7.732  12.756  0.00  0.00    +0.000 C 
ATOM     14  C   UNL     1      49.999   7.840  11.505  0.00  0.00    +0.000 C 
ATOM     15  C   UNL     1      49.741   9.058  12.323  0.00  0.00    +0.000 C 
BRANCH  13  16
ATOM     16  O   UNL     1      49.769   6.908  13.762  0.00  0.00    +0.000 OA
BRANCH  16  21
ATOM     17 BR   UNL     1      48.005   6.939  19.441  0.00  0.00    +0.000 Br
ATOM     18  C   UNL     1      48.473   6.961  17.623  0.00  0.00    +0.000 A 
ATOM     19  C   UNL     1      48.868   8.114  16.989  0.00  0.00    +0.000 A 
ATOM     20  N   UNL     1      49.265   8.151  15.701  0.00  0.00    +0.000 NA
ATOM     21  C   UNL     1      49.261   6.979  15.042  0.00  0.00    +0.000 A 
ATOM     22  N   UNL     1      48.855   5.804  15.555  0.00  0.00    +0.000 NA
ATOM     23  C   UNL     1      48.470   5.825  16.849  0.00  0.00    +0.000 A 
ENDBRANCH  16  21
ENDBRANCH  13  16
ENDBRANCH   1  13
TORSDOF 4
ENDMDL
MODEL 7
REMARK VINA RESULT:    -6.258      3.847      6.783
REMARK INTER + INTRA:          -8.362
REMARK INTER:                  -7.788
REMARK INTRA:                  -0.575
REMARK UNBOUND:                -0.641
REMARK  Name = 
REMARK  4 active torsions:
REMARK  status: ('A' for Active; 'I' for Inactive)
REMARK    1  A    between atoms: C_5  and  O_6
REMARK    2  A    between atoms: O_6  and  C_7
REMARK    3  A    between atoms: C_7  and  C_8
REMARK    4  A    between atoms: C_12  and  C_13
REMARK                            x       y       z     vdW  Elec       q    Type
REMARK                         _______ _______ _______ _____ _____    ______ ____
ROOT
ATOM      1  C   UNL     1      45.187   4.255  11.346  0.00  0.00    +0.000 A 
ATOM      2  C   UNL     1      44.002   3.574  11.669  0.00  0.00    +0.000 A 
ATOM      3  C   UNL     1      43.522   2.531  10.882  0.00  0.00    +0.000 A 
ATOM      4  C   UNL     1      44.216   2.155   9.735  0.00  0.00    +0.000 A 
ATOM      5  C   UNL     1      45.409   2.798   9.366  0.00  0.00    +0.000 A 
ATOM      6  C   UNL     1      45.896   3.812  10.213  0.00  0.00    +0.000 A 
ENDROOT
BRANCH   5   7
ATOM      7  C   UNL     1      46.077   2.489   8.084  0.00  0.00    +0.000 A 
ATOM      8  C   UNL     1      46.677   1.239   7.874  0.00  0.00    +0.000 A 
ATOM      9  C   UNL     1      47.255   0.955   6.646  0.00  0.00    +0.000 A 
ATOM     10  N   UNL     1      47.281   1.820   5.613  0.00  0.00    +0.000 NA
ATOM     11  C   UNL     1      46.697   3.018   5.819  0.00  0.00    +0.000 A 
ATOM     12  C   UNL     1      46.101   3.393   7.018  0.00  0.00    +0.000 A 
ENDBRANCH   5   7
BRANCH   1  13
ATOM     13  C   UNL     1      45.609   5.481  12.140  0.00  0.00    +0.000 C 
ATOM     14  C   UNL     1      45.089   6.869  11.766  0.00  0.00    +0.000 C 
ATOM     15  C   UNL     1      44.511   6.165  12.945  0.00  0.00    +0.000 C 
BRANCH  13  16
ATOM     16  O   UNL     1      46.994   5.546  12.563  0.00  0.00    +0.000 OA
BRANCH  16  21
ATOM     17 BR   UNL     1      48.505   3.673  18.001  0.00  0.00    +0.000 Br
ATOM     18  C   UNL     1      47.953   4.311  16.324  0.00  0.00    +0.000 A 
ATOM     19  C   UNL     1      48.272   5.574  15.886  0.00  0.00    +0.000 A 
ATOM     20  N   UNL     1      47.939   6.039  14.666  0.00  0.00    +0.000 NA
ATOM     21  C   UNL     1      47.263   5.193  13.868  0.00  0.00    +0.000 A 
ATOM     22  N   UNL     1      46.867   3.955  14.213  0.00  0.00    +0.000 NA
ATOM     23  C   UNL     1      47.229   3.540  15.446  0.00  0.00    +0.000 A 
ENDBRANCH  16  21
ENDBRANCH  13  16
ENDBRANCH   1  13
TORSDOF 4
ENDMDL
MODEL 8
REMARK VINA RESULT:    -6.192      3.315      6.638
REMARK INTER + INTRA:          -8.281
REMARK INTER:                  -7.763
REMARK INTRA:                  -0.518
REMARK UNBOUND:                -0.641
REMARK  Name = 
REMARK  4 active torsions:
REMARK  status: ('A' for Active; 'I' for Inactive)
REMARK    1  A    between atoms: C_5  and  O_6
REMARK    2  A    between atoms: O_6  and  C_7
REMARK    3  A    between atoms: C_7  and  C_8
REMARK    4  A    between atoms: C_12  and  C_13
REMARK                            x       y       z     vdW  Elec       q    Type
REMARK                         _______ _______ _______ _____ _____    ______ ____
ROOT
ATOM      1  C   UNL     1      44.706   4.386  10.647  0.00  0.00    +0.000 A 
ATOM      2  C   UNL     1      43.844   3.382  11.118  0.00  0.00    +0.000 A 
ATOM      3  C   UNL     1      43.794   2.125  10.525  0.00  0.00    +0.000 A 
ATOM      4  C   UNL     1      44.602   1.848   9.425  0.00  0.00    +0.000 A 
ATOM      5  C   UNL     1      45.485   2.812   8.912  0.00  0.00    +0.000 A 
ATOM      6  C   UNL     1      45.551   4.055   9.571  0.00  0.00    +0.000 A 
ENDROOT
BRANCH   5   7
ATOM      7  C   UNL     1      46.246   2.566   7.669  0.00  0.00    +0.000 A 
ATOM      8  C   UNL     1      46.910   1.347   7.468  0.00  0.00    +0.000 A 
ATOM      9  C   UNL     1      47.577   1.121   6.273  0.00  0.00    +0.000 A 
ATOM     10  N   UNL     1      47.633   2.014   5.266  0.00  0.00    +0.000 NA
ATOM     11  C   UNL     1      46.987   3.181   5.464  0.00  0.00    +0.000 A 
ATOM     12  C   UNL     1      46.300   3.499   6.630  0.00  0.00    +0.000 A 
ENDBRANCH   5   7
BRANCH   1  13
ATOM     13  C   UNL     1      44.634   5.791  11.221  0.00  0.00    +0.000 C 
ATOM     14  C   UNL     1      43.309   6.551  11.263  0.00  0.00    +0.000 C 
ATOM     15  C   UNL     1      43.843   5.945  12.515  0.00  0.00    +0.000 C 
BRANCH  13  16
ATOM     16  O   UNL     1      45.731   6.686  10.908  0.00  0.00    +0.000 OA
BRANCH  16  21
ATOM     17 BR   UNL     1      48.914   8.226  15.690  0.00  0.00    +0.000 Br
ATOM     18  C   UNL     1      47.989   7.751  14.127  0.00  0.00    +0.000 A 
ATOM     19  C   UNL     1      48.042   6.479  13.610  0.00  0.00    +0.000 A 
ATOM     20  N   UNL     1      47.345   6.093  12.523  0.00  0.00    +0.000 NA
ATOM     21  C   UNL     1      46.570   7.030  11.948  0.00  0.00    +0.000 A 
ATOM     22  N   UNL     1      46.478   8.310  12.348  0.00  0.00    +0.000 NA
ATOM     23  C   UNL     1      47.197   8.641  13.442  0.00  0.00    +0.000 A 
ENDBRANCH  16  21
ENDBRANCH  13  16
ENDBRANCH   1  13
TORSDOF 4
ENDMDL
MODEL 9
REMARK VINA RESULT:    -5.679      3.875      5.921
REMARK INTER + INTRA:          -7.648
REMARK INTER:                  -7.004
REMARK INTRA:                  -0.644
REMARK UNBOUND:                -0.641
REMARK  Name = 
REMARK  4 active torsions:
REMARK  status: ('A' for Active; 'I' for Inactive)
REMARK    1  A    between atoms: C_5  and  O_6
REMARK    2  A    between atoms: O_6  and  C_7
REMARK    3  A    between atoms: C_7  and  C_8
REMARK    4  A    between atoms: C_12  and  C_13
REMARK                            x       y       z     vdW  Elec       q    Type
REMARK                         _______ _______ _______ _____ _____    ______ ____
ROOT
ATOM      1  C   UNL     1      48.314   8.067  13.989  0.00  0.00    +0.000 A 
ATOM      2  C   UNL     1      48.217   9.203  14.810  0.00  0.00    +0.000 A 
ATOM      3  C   UNL     1      48.384   9.122  16.189  0.00  0.00    +0.000 A 
ATOM      4  C   UNL     1      48.635   7.889  16.784  0.00  0.00    +0.000 A 
ATOM      5  C   UNL     1      48.746   6.720  16.012  0.00  0.00    +0.000 A 
ATOM      6  C   UNL     1      48.627   6.845  14.614  0.00  0.00    +0.000 A 
ENDROOT
BRANCH   5   7
ATOM      7  C   UNL     1      48.883   5.395  16.651  0.00  0.00    +0.000 A 
ATOM      8  C   UNL     1      50.038   5.068  17.377  0.00  0.00    +0.000 A 
ATOM      9  C   UNL     1      50.123   3.836  18.007  0.00  0.00    +0.000 A 
ATOM     10  N   UNL     1      49.148   2.906  17.970  0.00  0.00    +0.000 NA
ATOM     11  C   UNL     1      48.039   3.229  17.276  0.00  0.00    +0.000 A 
ATOM     12  C   UNL     1      47.867   4.435  16.606  0.00  0.00    +0.000 A 
ENDBRANCH   5   7
BRANCH   1  13
ATOM     13  C   UNL     1      47.985   8.160  12.508  0.00  0.00    +0.000 C 
ATOM     14  C   UNL     1      48.778   9.090  11.590  0.00  0.00    +0.000 C 
ATOM     15  C   UNL     1      49.046   7.625  11.553  0.00  0.00    +0.000 C 
BRANCH  13  16
ATOM     16  O   UNL     1      46.582   8.149  12.144  0.00  0.00    +0.000 OA
BRANCH  16  21
ATOM     17 BR   UNL     1      43.493   3.082  11.767  0.00  0.00    +0.000 Br
ATOM     18  C   UNL     1      44.549   4.628  11.897  0.00  0.00    +0.000 A 
ATOM     19  C   UNL     1      45.244   5.126  10.821  0.00  0.00    +0.000 A 
ATOM     20  N   UNL     1      45.964   6.264  10.869  0.00  0.00    +0.000 NA
ATOM     21  C   UNL     1      45.974   6.915  12.045  0.00  0.00    +0.000 A 
ATOM     22  N   UNL     1      45.363   6.495  13.167  0.00  0.00    +0.000 NA
ATOM     23  C   UNL     1      44.656   5.350  13.062  0.00  0.00    +0.000 A 
ENDBRANCH  16  21
ENDBRANCH  13  16
ENDBRANCH   1  13
TORSDOF 4
ENDMDL
