MODEL 1
REMARK VINA RESULT:    -8.279      0.000      0.000
REMARK INTER + INTRA:         -12.523
REMARK INTER:                 -11.667
REMARK INTRA:                  -0.856
REMARK UNBOUND:                -0.856
REMARK  Name = 
REMARK  8 active torsions:
REMARK  status: ('A' for Active; 'I' for Inactive)
REMARK    1  A    between atoms: C_1  and  C_2
REMARK    2  A    between atoms: C_2  and  N_3
REMARK    3  A    between atoms: N_3  and  C_4
REMARK    4  A    between atoms: C_4  and  C_5
REMARK    5  A    between atoms: C_8  and  C_9
REMARK    6  A    between atoms: C_9  and  N_10
REMARK    7  A    between atoms: C_11  and  C_13
REMARK    8  A    between atoms: C_25  and  C_27
REMARK                            x       y       z     vdW  Elec       q    Type
REMARK                         _______ _______ _______ _____ _____    ______ ____
ROOT
ATOM      1  C   UNL     1      46.334   4.053  12.876  0.00  0.00    +0.000 A 
ATOM      2  C   UNL     1      46.777   5.328  12.512  0.00  0.00    +0.000 A 
ATOM      3  C   UNL     1      47.470   6.094  13.443  0.00  0.00    +0.000 A 
ATOM      4  C   UNL     1      47.703   5.581  14.718  0.00  0.00    +0.000 A 
ATOM      5  C   UNL     1      47.313   4.269  14.959  0.00  0.00    +0.000 A 
ATOM      6  N   UNL     1      46.635   3.501  14.075  0.00  0.00    +0.000 NA
ENDROOT
BRANCH   1   7
ATOM      7  C   UNL     1      45.275   3.369  12.037  0.00  0.00    +0.000 C 
BRANCH   7   8
ATOM      8  N   UNL     1      44.262   4.120  11.293  0.00  0.00    +0.000 N 
ATOM      9  C   UNL     1      44.221   4.169   9.884  0.00  0.00    +0.000 C 
ATOM     10  O   UNL     1      43.399   4.876   9.295  0.00  0.00    +0.000 OA
BRANCH   9  11
ATOM     11  C   UNL     1      45.173   3.396   9.013  0.00  0.00    +0.000 A 
ATOM     12  C   UNL     1      45.276   2.000   8.979  0.00  0.00    +0.000 A 
ATOM     13  C   UNL     1      46.207   1.364   8.149  0.00  0.00    +0.000 A 
ATOM     14  C   UNL     1      46.992   2.111   7.278  0.00  0.00    +0.000 A 
ATOM     15  C   UNL     1      46.844   3.495   7.235  0.00  0.00    +0.000 A 
ATOM     16  C   UNL     1      45.948   4.132   8.101  0.00  0.00    +0.000 A 
ENDBRANCH   9  11
BRANCH   8  18
ATOM     17  C   UNL     1      43.115   4.511  13.478  0.00  0.00    +0.000 C 
ATOM     18  C   UNL     1      43.248   4.897  12.012  0.00  0.00    +0.000 C 
ENDBRANCH   8  18
ENDBRANCH   7   8
ENDBRANCH   1   7
BRANCH   4  19
ATOM     19  C   UNL     1      48.356   6.405  15.785  0.00  0.00    +0.000 C 
BRANCH  19  20
ATOM     20  N   UNL     1      49.522   5.747  16.302  0.00  0.00    +0.000 N 
ATOM     21  C   UNL     1      49.501   5.113  17.516  0.00  0.00    +0.000 C 
ATOM     22  O   UNL     1      48.478   5.030  18.190  0.00  0.00    +0.000 OA
ATOM     23  H   UNL     1      50.415   6.003  15.892  0.00  0.00    +0.000 HD
BRANCH  21  24
ATOM     24  C   UNL     1      50.754   4.479  17.936  0.00  0.00    +0.000 A 
ATOM     25  C   UNL     1      51.706   5.223  18.617  0.00  0.00    +0.000 A 
ATOM     26  S   UNL     1      53.072   4.316  19.090  0.00  0.00    +0.000 S 
ATOM     27  C   UNL     1      52.459   2.908  18.353  0.00  0.00    +0.000 A 
ATOM     28  N   UNL     1      53.163   1.743  18.380  0.00  0.00    +0.000 NA
ATOM     29  C   UNL     1      52.595   0.764  17.765  0.00  0.00    +0.000 A 
ATOM     30  N   UNL     1      51.383   0.837  17.126  0.00  0.00    +0.000 N 
ATOM     31  C   UNL     1      50.629   1.987  17.088  0.00  0.00    +0.000 A 
ATOM     32  O   UNL     1      49.535   2.013  16.526  0.00  0.00    +0.000 OA
ATOM     33  C   UNL     1      51.225   3.123  17.767  0.00  0.00    +0.000 A 
ATOM     34  H   UNL     1      50.995   0.030  16.663  0.00  0.00    +0.000 HD
ENDBRANCH  21  24
ENDBRANCH  19  20
ENDBRANCH   4  19
TORSDOF 7
ENDMDL
MODEL 2
REMARK VINA RESULT:    -7.692      3.591      8.818
REMARK INTER + INTRA:         -11.696
REMARK INTER:                  -9.815
REMARK INTRA:                  -1.881
REMARK UNBOUND:                -0.856
REMARK  Name = 
REMARK  8 active torsions:
REMARK  status: ('A' for Active; 'I' for Inactive)
REMARK    1  A    between atoms: C_1  and  C_2
REMARK    2  A    between atoms: C_2  and  N_3
REMARK    3  A    between atoms: N_3  and  C_4
REMARK    4  A    between atoms: C_4  and  C_5
REMARK    5  A    between atoms: C_8  and  C_9
REMARK    6  A    between atoms: C_9  and  N_10
REMARK    7  A    between atoms: C_11  and  C_13
REMARK    8  A    between atoms: C_25  and  C_27
REMARK                            x       y       z     vdW  Elec       q    Type
REMARK                         _______ _______ _______ _____ _____    ______ ____
ROOT
ATOM      1  C   UNL     1      49.054   7.835  16.042  0.00  0.00    +0.000 A 
ATOM      2  C   UNL     1      49.507   6.875  15.132  0.00  0.00    +0.000 A 
ATOM      3  C   UNL     1      49.020   6.894  13.829  0.00  0.00    +0.000 A 
ATOM      4  C   UNL     1      48.088   7.863  13.458  0.00  0.00    +0.000 A 
ATOM      5  C   UNL     1      47.769   8.835  14.399  0.00  0.00    +0.000 A 
ATOM      6  N   UNL     1      48.224   8.840  15.674  0.00  0.00    +0.000 NA
ENDROOT
BRANCH   1   7
ATOM      7  C   UNL     1      49.266   7.609  17.524  0.00  0.00    +0.000 C 
BRANCH   7   8
ATOM      8  N   UNL     1      48.157   7.351  18.442  0.00  0.00    +0.000 N 
ATOM      9  C   UNL     1      47.610   6.066  18.647  0.00  0.00    +0.000 C 
ATOM     10  O   UNL     1      46.625   5.901  19.370  0.00  0.00    +0.000 OA
BRANCH   9  11
ATOM     11  C   UNL     1      48.165   4.830  17.992  0.00  0.00    +0.000 A 
ATOM     12  C   UNL     1      49.296   4.129  18.429  0.00  0.00    +0.000 A 
ATOM     13  C   UNL     1      49.752   2.997  17.744  0.00  0.00    +0.000 A 
ATOM     14  C   UNL     1      49.037   2.499  16.661  0.00  0.00    +0.000 A 
ATOM     15  C   UNL     1      47.863   3.132  16.263  0.00  0.00    +0.000 A 
ATOM     16  C   UNL     1      47.435   4.292  16.918  0.00  0.00    +0.000 A 
ENDBRANCH   9  11
BRANCH   8  18
ATOM     17  C   UNL     1      48.245   8.793  20.480  0.00  0.00    +0.000 C 
ATOM     18  C   UNL     1      47.536   8.458  19.176  0.00  0.00    +0.000 C 
ENDBRANCH   8  18
ENDBRANCH   7   8
ENDBRANCH   1   7
BRANCH   4  19
ATOM     19  C   UNL     1      47.460   7.863  12.098  0.00  0.00    +0.000 C 
BRANCH  19  20
ATOM     20  N   UNL     1      46.813   6.611  11.830  0.00  0.00    +0.000 N 
ATOM     21  C   UNL     1      45.457   6.468  11.964  0.00  0.00    +0.000 C 
ATOM     22  O   UNL     1      44.729   7.411  12.264  0.00  0.00    +0.000 OA
ATOM     23  H   UNL     1      47.400   5.782  11.819  0.00  0.00    +0.000 HD
BRANCH  21  24
ATOM     24  C   UNL     1      44.913   5.140  11.662  0.00  0.00    +0.000 A 
ATOM     25  C   UNL     1      44.234   4.437  12.646  0.00  0.00    +0.000 A 
ATOM     26  S   UNL     1      43.610   2.942  12.109  0.00  0.00    +0.000 S 
ATOM     27  C   UNL     1      44.275   3.162  10.555  0.00  0.00    +0.000 A 
ATOM     28  N   UNL     1      44.116   2.216   9.588  0.00  0.00    +0.000 NA
ATOM     29  C   UNL     1      44.689   2.499   8.469  0.00  0.00    +0.000 A 
ATOM     30  N   UNL     1      45.405   3.644   8.223  0.00  0.00    +0.000 N 
ATOM     31  C   UNL     1      45.576   4.633   9.163  0.00  0.00    +0.000 A 
ATOM     32  O   UNL     1      46.205   5.658   8.902  0.00  0.00    +0.000 OA
ATOM     33  C   UNL     1      44.950   4.363  10.444  0.00  0.00    +0.000 A 
ATOM     34  H   UNL     1      45.827   3.802   7.322  0.00  0.00    +0.000 HD
ENDBRANCH  21  24
ENDBRANCH  19  20
ENDBRANCH   4  19
TORSDOF 7
ENDMDL
MODEL 3
REMARK VINA RESULT:    -7.586      3.702      8.753
REMARK INTER + INTRA:         -11.547
REMARK INTER:                 -10.051
REMARK INTRA:                  -1.496
REMARK UNBOUND:                -0.856
REMARK  Name = 
REMARK  8 active torsions:
REMARK  status: ('A' for Active; 'I' for Inactive)
REMARK    1  A    between atoms: C_1  and  C_2
REMARK    2  A    between atoms: C_2  and  N_3
REMARK    3  A    between atoms: N_3  and  C_4
REMARK    4  A    between atoms: C_4  and  C_5
REMARK    5  A    between atoms: C_8  and  C_9
REMARK    6  A    between atoms: C_9  and  N_10
REMARK    7  A    between atoms: C_11  and  C_13
REMARK    8  A    between atoms: C_25  and  C_27
REMARK                            x       y       z     vdW  Elec       q    Type
REMARK                         _______ _______ _______ _____ _____    ______ ____
ROOT
ATOM      1  C   UNL     1      49.043   7.531  16.133  0.00  0.00    +0.000 A 
ATOM      2  C   UNL     1      48.411   8.717  15.750  0.00  0.00    +0.000 A 
ATOM      3  C   UNL     1      48.106   8.919  14.408  0.00  0.00    +0.000 A 
ATOM      4  C   UNL     1      48.442   7.941  13.473  0.00  0.00    +0.000 A 
ATOM      5  C   UNL     1      48.978   6.753  13.956  0.00  0.00    +0.000 A 
ATOM      6  N   UNL     1      49.288   6.530  15.254  0.00  0.00    +0.000 NA
ENDROOT
BRANCH   1   7
ATOM      7  C   UNL     1      49.714   7.452  17.488  0.00  0.00    +0.000 C 
BRANCH   7   8
ATOM      8  N   UNL     1      48.962   7.216  18.720  0.00  0.00    +0.000 N 
ATOM      9  C   UNL     1      48.430   5.957  19.069  0.00  0.00    +0.000 C 
ATOM     10  O   UNL     1      47.735   5.816  20.078  0.00  0.00    +0.000 OA
BRANCH   9  11
ATOM     11  C   UNL     1      48.650   4.721  18.238  0.00  0.00    +0.000 A 
ATOM     12  C   UNL     1      49.810   3.938  18.256  0.00  0.00    +0.000 A 
ATOM     13  C   UNL     1      49.934   2.813  17.433  0.00  0.00    +0.000 A 
ATOM     14  C   UNL     1      48.868   2.405  16.639  0.00  0.00    +0.000 A 
ATOM     15  C   UNL     1      47.675   3.122  16.671  0.00  0.00    +0.000 A 
ATOM     16  C   UNL     1      47.570   4.274  17.458  0.00  0.00    +0.000 A 
ENDBRANCH   9  11
BRANCH   8  18
ATOM     17  C   UNL     1      47.459   9.131  19.284  0.00  0.00    +0.000 C 
ATOM     18  C   UNL     1      48.698   8.323  19.644  0.00  0.00    +0.000 C 
ENDBRANCH   8  18
ENDBRANCH   7   8
ENDBRANCH   1   7
BRANCH   4  19
ATOM     19  C   UNL     1      48.225   8.155  12.006  0.00  0.00    +0.000 C 
BRANCH  19  20
ATOM     20  N   UNL     1      47.540   7.038  11.419  0.00  0.00    +0.000 N 
ATOM     21  C   UNL     1      46.172   6.959  11.428  0.00  0.00    +0.000 C 
ATOM     22  O   UNL     1      45.471   7.856  11.886  0.00  0.00    +0.000 OA
ATOM     23  H   UNL     1      48.085   6.197  11.259  0.00  0.00    +0.000 HD
BRANCH  21  24
ATOM     24  C   UNL     1      45.590   5.769  10.799  0.00  0.00    +0.000 A 
ATOM     25  C   UNL     1      45.779   5.548   9.443  0.00  0.00    +0.000 A 
ATOM     26  S   UNL     1      45.094   4.086   8.888  0.00  0.00    +0.000 S 
ATOM     27  C   UNL     1      44.475   3.727  10.434  0.00  0.00    +0.000 A 
ATOM     28  N   UNL     1      43.753   2.593  10.651  0.00  0.00    +0.000 NA
ATOM     29  C   UNL     1      43.326   2.457  11.859  0.00  0.00    +0.000 A 
ATOM     30  N   UNL     1      43.555   3.349  12.876  0.00  0.00    +0.000 N 
ATOM     31  C   UNL     1      44.291   4.499  12.708  0.00  0.00    +0.000 A 
ATOM     32  O   UNL     1      44.498   5.266  13.647  0.00  0.00    +0.000 OA
ATOM     33  C   UNL     1      44.797   4.700  11.362  0.00  0.00    +0.000 A 
ATOM     34  H   UNL     1      43.190   3.181  13.800  0.00  0.00    +0.000 HD
ENDBRANCH  21  24
ENDBRANCH  19  20
ENDBRANCH   4  19
TORSDOF 7
ENDMDL
MODEL 4
REMARK VINA RESULT:    -7.393      3.566      9.130
REMARK INTER + INTRA:         -11.275
REMARK INTER:                  -9.164
REMARK INTRA:                  -2.111
REMARK UNBOUND:                -0.856
REMARK  Name = 
REMARK  8 active torsions:
REMARK  status: ('A' for Active; 'I' for Inactive)
REMARK    1  A    between atoms: C_1  and  C_2
REMARK    2  A    between atoms: C_2  and  N_3
REMARK    3  A    between atoms: N_3  and  C_4
REMARK    4  A    between atoms: C_4  and  C_5
REMARK    5  A    between atoms: C_8  and  C_9
REMARK    6  A    between atoms: C_9  and  N_10
REMARK    7  A    between atoms: C_11  and  C_13
REMARK    8  A    between atoms: C_25  and  C_27
REMARK                            x       y       z     vdW  Elec       q    Type
REMARK                         _______ _______ _______ _____ _____    ______ ____
ROOT
ATOM      1  C   UNL     1      50.953   4.261  18.375  0.00  0.00    +0.000 A 
ATOM      2  C   UNL     1      49.858   4.857  19.008  0.00  0.00    +0.000 A 
ATOM      3  C   UNL     1      48.574   4.553  18.568  0.00  0.00    +0.000 A 
ATOM      4  C   UNL     1      48.405   3.668  17.503  0.00  0.00    +0.000 A 
ATOM      5  C   UNL     1      49.543   3.050  16.999  0.00  0.00    +0.000 A 
ATOM      6  N   UNL     1      50.804   3.328  17.406  0.00  0.00    +0.000 NA
ENDROOT
BRANCH   1   7
ATOM      7  C   UNL     1      52.334   4.850  18.573  0.00  0.00    +0.000 C 
BRANCH   7   8
ATOM      8  N   UNL     1      53.141   5.343  17.457  0.00  0.00    +0.000 N 
ATOM      9  C   UNL     1      52.725   6.392  16.610  0.00  0.00    +0.000 C 
ATOM     10  O   UNL     1      53.398   6.727  15.632  0.00  0.00    +0.000 OA
BRANCH   9  11
ATOM     11  C   UNL     1      51.443   7.151  16.821  0.00  0.00    +0.000 A 
ATOM     12  C   UNL     1      51.264   8.181  17.753  0.00  0.00    +0.000 A 
ATOM     13  C   UNL     1      50.026   8.820  17.894  0.00  0.00    +0.000 A 
ATOM     14  C   UNL     1      48.971   8.495  17.048  0.00  0.00    +0.000 A 
ATOM     15  C   UNL     1      49.154   7.533  16.059  0.00  0.00    +0.000 A 
ATOM     16  C   UNL     1      50.377   6.861  15.952  0.00  0.00    +0.000 A 
ENDBRANCH   9  11
BRANCH   8  18
ATOM     17  C   UNL     1      54.521   3.265  17.589  0.00  0.00    +0.000 C 
ATOM     18  C   UNL     1      54.432   4.719  17.151  0.00  0.00    +0.000 C 
ENDBRANCH   8  18
ENDBRANCH   7   8
ENDBRANCH   1   7
BRANCH   4  19
ATOM     19  C   UNL     1      47.050   3.387  16.928  0.00  0.00    +0.000 C 
BRANCH  19  20
ATOM     20  N   UNL     1      46.702   4.361  15.932  0.00  0.00    +0.000 N 
ATOM     21  C   UNL     1      46.883   4.108  14.597  0.00  0.00    +0.000 C 
ATOM     22  O   UNL     1      47.296   3.026  14.189  0.00  0.00    +0.000 OA
ATOM     23  H   UNL     1      46.593   5.320  16.245  0.00  0.00    +0.000 HD
BRANCH  21  24
ATOM     24  C   UNL     1      46.490   5.180  13.678  0.00  0.00    +0.000 A 
ATOM     25  C   UNL     1      47.381   6.208  13.402  0.00  0.00    +0.000 A 
ATOM     26  S   UNL     1      46.791   7.333  12.262  0.00  0.00    +0.000 S 
ATOM     27  C   UNL     1      45.304   6.512  12.140  0.00  0.00    +0.000 A 
ATOM     28  N   UNL     1      44.318   6.973  11.322  0.00  0.00    +0.000 NA
ATOM     29  C   UNL     1      43.238   6.270  11.343  0.00  0.00    +0.000 A 
ATOM     30  N   UNL     1      43.050   5.145  12.105  0.00  0.00    +0.000 N 
ATOM     31  C   UNL     1      44.023   4.634  12.933  0.00  0.00    +0.000 A 
ATOM     32  O   UNL     1      43.830   3.609  13.585  0.00  0.00    +0.000 OA
ATOM     33  C   UNL     1      45.262   5.389  12.946  0.00  0.00    +0.000 A 
ATOM     34  H   UNL     1      42.177   4.641  12.074  0.00  0.00    +0.000 HD
ENDBRANCH  21  24
ENDBRANCH  19  20
ENDBRANCH   4  19
TORSDOF 7
ENDMDL
MODEL 5
REMARK VINA RESULT:    -7.290      3.935      9.523
REMARK INTER + INTRA:         -11.130
REMARK INTER:                  -9.412
REMARK INTRA:                  -1.717
REMARK UNBOUND:                -0.856
REMARK  Name = 
REMARK  8 active torsions:
REMARK  status: ('A' for Active; 'I' for Inactive)
REMARK    1  A    between atoms: C_1  and  C_2
REMARK    2  A    between atoms: C_2  and  N_3
REMARK    3  A    between atoms: N_3  and  C_4
REMARK    4  A    between atoms: C_4  and  C_5
REMARK    5  A    between atoms: C_8  and  C_9
REMARK    6  A    between atoms: C_9  and  N_10
REMARK    7  A    between atoms: C_11  and  C_13
REMARK    8  A    between atoms: C_25  and  C_27
REMARK                            x       y       z     vdW  Elec       q    Type
REMARK                         _______ _______ _______ _____ _____    ______ ____
ROOT
ATOM      1  C   UNL     1      48.472   5.297  20.127  0.00  0.00    +0.000 A 
ATOM      2  C   UNL     1      47.381   5.795  19.408  0.00  0.00    +0.000 A 
ATOM      3  C   UNL     1      47.040   5.201  18.197  0.00  0.00    +0.000 A 
ATOM      4  C   UNL     1      47.795   4.129  17.722  0.00  0.00    +0.000 A 
ATOM      5  C   UNL     1      48.799   3.639  18.548  0.00  0.00    +0.000 A 
ATOM      6  N   UNL     1      49.154   4.197  19.729  0.00  0.00    +0.000 NA
ENDROOT
BRANCH   1   7
ATOM      7  C   UNL     1      49.084   6.142  21.225  0.00  0.00    +0.000 C 
BRANCH   7   8
ATOM      8  N   UNL     1      49.330   7.575  21.062  0.00  0.00    +0.000 N 
ATOM      9  C   UNL     1      50.187   8.102  20.074  0.00  0.00    +0.000 C 
ATOM     10  O   UNL     1      50.429   9.311  20.019  0.00  0.00    +0.000 OA
BRANCH   9  11
ATOM     11  C   UNL     1      50.874   7.243  19.048  0.00  0.00    +0.000 A 
ATOM     12  C   UNL     1      51.983   6.425  19.299  0.00  0.00    +0.000 A 
ATOM     13  C   UNL     1      52.571   5.672  18.276  0.00  0.00    +0.000 A 
ATOM     14  C   UNL     1      52.010   5.661  17.004  0.00  0.00    +0.000 A 
ATOM     15  C   UNL     1      50.857   6.401  16.755  0.00  0.00    +0.000 A 
ATOM     16  C   UNL     1      50.299   7.191  17.767  0.00  0.00    +0.000 A 
ENDBRANCH   9  11
BRANCH   8  18
ATOM     17  C   UNL     1      47.298   8.948  21.543  0.00  0.00    +0.000 C 
ATOM     18  C   UNL     1      48.700   8.537  21.972  0.00  0.00    +0.000 C 
ENDBRANCH   8  18
ENDBRANCH   7   8
ENDBRANCH   1   7
BRANCH   4  19
ATOM     19  C   UNL     1      47.530   3.522  16.378  0.00  0.00    +0.000 C 
BRANCH  19  20
ATOM     20  N   UNL     1      46.901   4.468  15.501  0.00  0.00    +0.000 N 
ATOM     21  C   UNL     1      46.745   4.205  14.165  0.00  0.00    +0.000 C 
ATOM     22  O   UNL     1      47.083   3.134  13.669  0.00  0.00    +0.000 OA
ATOM     23  H   UNL     1      46.838   5.427  15.828  0.00  0.00    +0.000 HD
BRANCH  21  24
ATOM     24  C   UNL     1      46.089   5.250  13.373  0.00  0.00    +0.000 A 
ATOM     25  C   UNL     1      46.748   6.446  13.135  0.00  0.00    +0.000 A 
ATOM     26  S   UNL     1      45.872   7.522  12.141  0.00  0.00    +0.000 S 
ATOM     27  C   UNL     1      44.558   6.443  12.040  0.00  0.00    +0.000 A 
ATOM     28  N   UNL     1      43.441   6.768  11.331  0.00  0.00    +0.000 NA
ATOM     29  C   UNL     1      42.516   5.872  11.358  0.00  0.00    +0.000 A 
ATOM     30  N   UNL     1      42.601   4.676  12.026  0.00  0.00    +0.000 N 
ATOM     31  C   UNL     1      43.714   4.299  12.740  0.00  0.00    +0.000 A 
ATOM     32  O   UNL     1      43.767   3.210  13.309  0.00  0.00    +0.000 OA
ATOM     33  C   UNL     1      44.789   5.275  12.742  0.00  0.00    +0.000 A 
ATOM     34  H   UNL     1      41.837   4.019  12.004  0.00  0.00    +0.000 HD
ENDBRANCH  21  24
ENDBRANCH  19  20
ENDBRANCH   4  19
TORSDOF 7
ENDMDL
MODEL 6
REMARK VINA RESULT:    -7.043      4.096      9.035
REMARK INTER + INTRA:         -10.782
REMARK INTER:                  -8.829
REMARK INTRA:                  -1.952
REMARK UNBOUND:                -0.856
REMARK  Name = 
REMARK  8 active torsions:
REMARK  status: ('A' for Active; 'I' for Inactive)
REMARK    1  A    between atoms: C_1  and  C_2
REMARK    2  A    between atoms: C_2  and  N_3
REMARK    3  A    between atoms: N_3  and  C_4
REMARK    4  A    between atoms: C_4  and  C_5
REMARK    5  A    between atoms: C_8  and  C_9
REMARK    6  A    between atoms: C_9  and  N_10
REMARK    7  A    between atoms: C_11  and  C_13
REMARK    8  A    between atoms: C_25  and  C_27
REMARK                            x       y       z     vdW  Elec       q    Type
REMARK                         _______ _______ _______ _____ _____    ______ ____
ROOT
ATOM      1  C   UNL     1      49.752   7.835  18.135  0.00  0.00    +0.000 A 
ATOM      2  C   UNL     1      50.482   7.352  17.045  0.00  0.00    +0.000 A 
ATOM      3  C   UNL     1      50.054   7.654  15.756  0.00  0.00    +0.000 A 
ATOM      4  C   UNL     1      48.905   8.425  15.577  0.00  0.00    +0.000 A 
ATOM      5  C   UNL     1      48.301   8.944  16.716  0.00  0.00    +0.000 A 
ATOM      6  N   UNL     1      48.692   8.664  17.981  0.00  0.00    +0.000 NA
ENDROOT
BRANCH   1   7
ATOM      7  C   UNL     1      49.966   7.219  19.501  0.00  0.00    +0.000 C 
BRANCH   7   8
ATOM      8  N   UNL     1      48.857   6.924  20.408  0.00  0.00    +0.000 N 
ATOM      9  C   UNL     1      47.909   5.909  20.160  0.00  0.00    +0.000 C 
ATOM     10  O   UNL     1      46.943   5.742  20.910  0.00  0.00    +0.000 OA
BRANCH   9  11
ATOM     11  C   UNL     1      47.992   4.988  18.974  0.00  0.00    +0.000 A 
ATOM     12  C   UNL     1      47.261   5.138  17.789  0.00  0.00    +0.000 A 
ATOM     13  C   UNL     1      47.388   4.219  16.741  0.00  0.00    +0.000 A 
ATOM     14  C   UNL     1      48.309   3.181  16.828  0.00  0.00    +0.000 A 
ATOM     15  C   UNL     1      49.106   3.064  17.963  0.00  0.00    +0.000 A 
ATOM     16  C   UNL     1      48.943   3.955  19.030  0.00  0.00    +0.000 A 
ENDBRANCH   9  11
BRANCH   8  18
ATOM     17  C   UNL     1      47.690   8.873  21.449  0.00  0.00    +0.000 C 
ATOM     18  C   UNL     1      48.669   7.721  21.625  0.00  0.00    +0.000 C 
ENDBRANCH   8  18
ENDBRANCH   7   8
ENDBRANCH   1   7
BRANCH   4  19
ATOM     19  C   UNL     1      48.349   8.693  14.212  0.00  0.00    +0.000 C 
BRANCH  19  20
ATOM     20  N   UNL     1      47.336   7.734  13.873  0.00  0.00    +0.000 N 
ATOM     21  C   UNL     1      47.639   6.601  13.165  0.00  0.00    +0.000 C 
ATOM     22  O   UNL     1      48.790   6.326  12.837  0.00  0.00    +0.000 OA
ATOM     23  H   UNL     1      46.372   8.048  13.917  0.00  0.00    +0.000 HD
BRANCH  21  24
ATOM     24  C   UNL     1      46.519   5.699  12.878  0.00  0.00    +0.000 A 
ATOM     25  C   UNL     1      46.628   4.351  13.184  0.00  0.00    +0.000 A 
ATOM     26  S   UNL     1      45.212   3.459  12.849  0.00  0.00    +0.000 S 
ATOM     27  C   UNL     1      44.424   4.839  12.233  0.00  0.00    +0.000 A 
ATOM     28  N   UNL     1      43.153   4.760  11.752  0.00  0.00    +0.000 NA
ATOM     29  C   UNL     1      42.687   5.871  11.297  0.00  0.00    +0.000 A 
ATOM     30  N   UNL     1      43.373   7.059  11.279  0.00  0.00    +0.000 N 
ATOM     31  C   UNL     1      44.651   7.190  11.768  0.00  0.00    +0.000 A 
ATOM     32  O   UNL     1      45.229   8.276  11.759  0.00  0.00    +0.000 OA
ATOM     33  C   UNL     1      45.224   5.965  12.295  0.00  0.00    +0.000 A 
ATOM     34  H   UNL     1      42.947   7.894  10.907  0.00  0.00    +0.000 HD
ENDBRANCH  21  24
ENDBRANCH  19  20
ENDBRANCH   4  19
TORSDOF 7
ENDMDL
MODEL 7
REMARK VINA RESULT:    -6.682      3.380      9.519
REMARK INTER + INTRA:         -10.272
REMARK INTER:                  -8.732
REMARK INTRA:                  -1.541
REMARK UNBOUND:                -0.856
REMARK  Name = 
REMARK  8 active torsions:
REMARK  status: ('A' for Active; 'I' for Inactive)
REMARK    1  A    between atoms: C_1  and  C_2
REMARK    2  A    between atoms: C_2  and  N_3
REMARK    3  A    between atoms: N_3  and  C_4
REMARK    4  A    between atoms: C_4  and  C_5
REMARK    5  A    between atoms: C_8  and  C_9
REMARK    6  A    between atoms: C_9  and  N_10
REMARK    7  A    between atoms: C_11  and  C_13
REMARK    8  A    between atoms: C_25  and  C_27
REMARK                            x       y       z     vdW  Elec       q    Type
REMARK                         _______ _______ _______ _____ _____    ______ ____
ROOT
ATOM      1  C   UNL     1      50.216   7.444  15.739  0.00  0.00    +0.000 A 
ATOM      2  C   UNL     1      49.134   6.571  15.591  0.00  0.00    +0.000 A 
ATOM      3  C   UNL     1      48.357   6.647  14.440  0.00  0.00    +0.000 A 
ATOM      4  C   UNL     1      48.667   7.593  13.463  0.00  0.00    +0.000 A 
ATOM      5  C   UNL     1      49.817   8.351  13.650  0.00  0.00    +0.000 A 
ATOM      6  N   UNL     1      50.590   8.301  14.760  0.00  0.00    +0.000 NA
ENDROOT
BRANCH   1   7
ATOM      7  C   UNL     1      50.828   7.639  17.111  0.00  0.00    +0.000 C 
BRANCH   7   8
ATOM      8  N   UNL     1      52.051   6.952  17.526  0.00  0.00    +0.000 N 
ATOM      9  C   UNL     1      52.052   5.677  18.129  0.00  0.00    +0.000 C 
ATOM     10  O   UNL     1      53.099   5.165  18.536  0.00  0.00    +0.000 OA
BRANCH   9  11
ATOM     11  C   UNL     1      50.798   4.873  18.337  0.00  0.00    +0.000 A 
ATOM     12  C   UNL     1      49.772   5.203  19.232  0.00  0.00    +0.000 A 
ATOM     13  C   UNL     1      48.647   4.383  19.374  0.00  0.00    +0.000 A 
ATOM     14  C   UNL     1      48.490   3.263  18.565  0.00  0.00    +0.000 A 
ATOM     15  C   UNL     1      49.458   2.964  17.611  0.00  0.00    +0.000 A 
ATOM     16  C   UNL     1      50.606   3.758  17.504  0.00  0.00    +0.000 A 
ENDBRANCH   9  11
BRANCH   8  18
ATOM     17  C   UNL     1      53.964   7.382  15.977  0.00  0.00    +0.000 C 
ATOM     18  C   UNL     1      53.354   7.603  17.354  0.00  0.00    +0.000 C 
ENDBRANCH   8  18
ENDBRANCH   7   8
ENDBRANCH   1   7
BRANCH   4  19
ATOM     19  C   UNL     1      47.802   7.781  12.254  0.00  0.00    +0.000 C 
BRANCH  19  20
ATOM     20  N   UNL     1      47.069   6.583  11.955  0.00  0.00    +0.000 N 
ATOM     21  C   UNL     1      45.720   6.500  12.182  0.00  0.00    +0.000 C 
ATOM     22  O   UNL     1      45.069   7.455  12.597  0.00  0.00    +0.000 OA
ATOM     23  H   UNL     1      47.607   5.729  11.846  0.00  0.00    +0.000 HD
BRANCH  21  24
ATOM     24  C   UNL     1      45.084   5.225  11.837  0.00  0.00    +0.000 A 
ATOM     25  C   UNL     1      44.404   4.511  12.813  0.00  0.00    +0.000 A 
ATOM     26  S   UNL     1      43.668   3.087  12.228  0.00  0.00    +0.000 S 
ATOM     27  C   UNL     1      44.280   3.351  10.660  0.00  0.00    +0.000 A 
ATOM     28  N   UNL     1      44.023   2.469   9.654  0.00  0.00    +0.000 NA
ATOM     29  C   UNL     1      44.566   2.778   8.527  0.00  0.00    +0.000 A 
ATOM     30  N   UNL     1      45.340   3.889   8.307  0.00  0.00    +0.000 N 
ATOM     31  C   UNL     1      45.611   4.814   9.288  0.00  0.00    +0.000 A 
ATOM     32  O   UNL     1      46.290   5.813   9.053  0.00  0.00    +0.000 OA
ATOM     33  C   UNL     1      45.023   4.514  10.581  0.00  0.00    +0.000 A 
ATOM     34  H   UNL     1      45.734   4.071   7.398  0.00  0.00    +0.000 HD
ENDBRANCH  21  24
ENDBRANCH  19  20
ENDBRANCH   4  19
TORSDOF 7
ENDMDL
MODEL 8
REMARK VINA RESULT:    -6.557      3.833      9.906
REMARK INTER + INTRA:         -10.096
REMARK INTER:                  -8.592
REMARK INTRA:                  -1.504
REMARK UNBOUND:                -0.856
REMARK  Name = 
REMARK  8 active torsions:
REMARK  status: ('A' for Active; 'I' for Inactive)
REMARK    1  A    between atoms: C_1  and  C_2
REMARK    2  A    between atoms: C_2  and  N_3
REMARK    3  A    between atoms: N_3  and  C_4
REMARK    4  A    between atoms: C_4  and  C_5
REMARK    5  A    between atoms: C_8  and  C_9
REMARK    6  A    between atoms: C_9  and  N_10
REMARK    7  A    between atoms: C_11  and  C_13
REMARK    8  A    between atoms: C_25  and  C_27
REMARK                            x       y       z     vdW  Elec       q    Type
REMARK                         _______ _______ _______ _____ _____    ______ ____
ROOT
ATOM      1  C   UNL     1      49.449   6.209  19.725  0.00  0.00    +0.000 A 
ATOM      2  C   UNL     1      49.036   6.913  18.590  0.00  0.00    +0.000 A 
ATOM      3  C   UNL     1      48.456   6.217  17.535  0.00  0.00    +0.000 A 
ATOM      4  C   UNL     1      48.304   4.834  17.626  0.00  0.00    +0.000 A 
ATOM      5  C   UNL     1      48.652   4.231  18.829  0.00  0.00    +0.000 A 
ATOM      6  N   UNL     1      49.221   4.882  19.871  0.00  0.00    +0.000 NA
ENDROOT
BRANCH   1   7
ATOM      7  C   UNL     1      50.406   6.866  20.698  0.00  0.00    +0.000 C 
BRANCH   7   8
ATOM      8  N   UNL     1      51.531   7.688  20.252  0.00  0.00    +0.000 N 
ATOM      9  C   UNL     1      52.672   7.153  19.619  0.00  0.00    +0.000 C 
ATOM     10  O   UNL     1      53.635   7.868  19.329  0.00  0.00    +0.000 OA
BRANCH   9  11
ATOM     11  C   UNL     1      52.807   5.693  19.279  0.00  0.00    +0.000 A 
ATOM     12  C   UNL     1      53.264   4.703  20.157  0.00  0.00    +0.000 A 
ATOM     13  C   UNL     1      53.376   3.369  19.747  0.00  0.00    +0.000 A 
ATOM     14  C   UNL     1      52.953   2.990  18.478  0.00  0.00    +0.000 A 
ATOM     15  C   UNL     1      52.417   3.945  17.619  0.00  0.00    +0.000 A 
ATOM     16  C   UNL     1      52.352   5.286  18.013  0.00  0.00    +0.000 A 
ENDBRANCH   9  11
BRANCH   8  18
ATOM     17  C   UNL     1      50.127   9.711  20.673  0.00  0.00    +0.000 C 
ATOM     18  C   UNL     1      51.524   9.135  20.488  0.00  0.00    +0.000 C 
ENDBRANCH   8  18
ENDBRANCH   7   8
ENDBRANCH   1   7
BRANCH   4  19
ATOM     19  C   UNL     1      47.777   4.028  16.479  0.00  0.00    +0.000 C 
BRANCH  19  20
ATOM     20  N   UNL     1      47.094   4.865  15.534  0.00  0.00    +0.000 N 
ATOM     21  C   UNL     1      46.866   4.447  14.248  0.00  0.00    +0.000 C 
ATOM     22  O   UNL     1      47.185   3.326  13.862  0.00  0.00    +0.000 OA
ATOM     23  H   UNL     1      47.041   5.855  15.749  0.00  0.00    +0.000 HD
BRANCH  21  24
ATOM     24  C   UNL     1      46.160   5.391  13.377  0.00  0.00    +0.000 A 
ATOM     25  C   UNL     1      46.778   6.576  13.005  0.00  0.00    +0.000 A 
ATOM     26  S   UNL     1      45.846   7.526  11.937  0.00  0.00    +0.000 S 
ATOM     27  C   UNL     1      44.561   6.407  11.979  0.00  0.00    +0.000 A 
ATOM     28  N   UNL     1      43.418   6.631  11.273  0.00  0.00    +0.000 NA
ATOM     29  C   UNL     1      42.519   5.718  11.413  0.00  0.00    +0.000 A 
ATOM     30  N   UNL     1      42.657   4.597  12.192  0.00  0.00    +0.000 N 
ATOM     31  C   UNL     1      43.798   4.321  12.907  0.00  0.00    +0.000 A 
ATOM     32  O   UNL     1      43.898   3.294  13.577  0.00  0.00    +0.000 OA
ATOM     33  C   UNL     1      44.844   5.320  12.784  0.00  0.00    +0.000 A 
ATOM     34  H   UNL     1      41.912   3.921  12.256  0.00  0.00    +0.000 HD
ENDBRANCH  21  24
ENDBRANCH  19  20
ENDBRANCH   4  19
TORSDOF 7
ENDMDL
MODEL 9
REMARK VINA RESULT:    -6.354      4.034      9.649
REMARK INTER + INTRA:          -9.811
REMARK INTER:                  -7.821
REMARK INTRA:                  -1.990
REMARK UNBOUND:                -0.856
REMARK  Name = 
REMARK  8 active torsions:
REMARK  status: ('A' for Active; 'I' for Inactive)
REMARK    1  A    between atoms: C_1  and  C_2
REMARK    2  A    between atoms: C_2  and  N_3
REMARK    3  A    between atoms: N_3  and  C_4
REMARK    4  A    between atoms: C_4  and  C_5
REMARK    5  A    between atoms: C_8  and  C_9
REMARK    6  A    between atoms: C_9  and  N_10
REMARK    7  A    between atoms: C_11  and  C_13
REMARK    8  A    between atoms: C_25  and  C_27
REMARK                            x       y       z     vdW  Elec       q    Type
REMARK                         _______ _______ _______ _____ _____    ______ ____
ROOT
ATOM      1  C   UNL     1      49.096   5.978  19.999  0.00  0.00    +0.000 A 
ATOM      2  C   UNL     1      48.514   6.649  18.920  0.00  0.00    +0.000 A 
ATOM      3  C   UNL     1      47.998   5.909  17.861  0.00  0.00    +0.000 A 
ATOM      4  C   UNL     1      48.076   4.517  17.894  0.00  0.00    +0.000 A 
ATOM      5  C   UNL     1      48.581   3.933  19.050  0.00  0.00    +0.000 A 
ATOM      6  N   UNL     1      49.093   4.627  20.093  0.00  0.00    +0.000 NA
ENDROOT
BRANCH   1   7
ATOM      7  C   UNL     1      49.984   6.744  20.957  0.00  0.00    +0.000 C 
BRANCH   7   8
ATOM      8  N   UNL     1      51.007   7.681  20.492  0.00  0.00    +0.000 N 
ATOM      9  C   UNL     1      52.124   7.285  19.726  0.00  0.00    +0.000 C 
ATOM     10  O   UNL     1      53.006   8.093  19.421  0.00  0.00    +0.000 OA
BRANCH   9  11
ATOM     11  C   UNL     1      52.330   5.872  19.255  0.00  0.00    +0.000 A 
ATOM     12  C   UNL     1      52.843   4.831  20.039  0.00  0.00    +0.000 A 
ATOM     13  C   UNL     1      53.019   3.547  19.510  0.00  0.00    +0.000 A 
ATOM     14  C   UNL     1      52.606   3.263  18.213  0.00  0.00    +0.000 A 
ATOM     15  C   UNL     1      52.015   4.262  17.445  0.00  0.00    +0.000 A 
ATOM     16  C   UNL     1      51.885   5.557  17.959  0.00  0.00    +0.000 A 
ENDBRANCH   9  11
BRANCH   8  18
ATOM     17  C   UNL     1      50.003   9.900  19.934  0.00  0.00    +0.000 C 
ATOM     18  C   UNL     1      50.920   9.101  20.849  0.00  0.00    +0.000 C 
ENDBRANCH   8  18
ENDBRANCH   7   8
ENDBRANCH   1   7
BRANCH   4  19
ATOM     19  C   UNL     1      47.625   3.681  16.736  0.00  0.00    +0.000 C 
BRANCH  19  20
ATOM     20  N   UNL     1      46.908   4.474  15.778  0.00  0.00    +0.000 N 
ATOM     21  C   UNL     1      46.849   4.113  14.457  0.00  0.00    +0.000 C 
ATOM     22  O   UNL     1      47.357   3.075  14.043  0.00  0.00    +0.000 OA
ATOM     23  H   UNL     1      46.695   5.431  16.040  0.00  0.00    +0.000 HD
BRANCH  21  24
ATOM     24  C   UNL     1      46.088   5.004  13.577  0.00  0.00    +0.000 A 
ATOM     25  C   UNL     1      44.953   4.530  12.936  0.00  0.00    +0.000 A 
ATOM     26  S   UNL     1      44.149   5.714  12.006  0.00  0.00    +0.000 S 
ATOM     27  C   UNL     1      45.324   6.887  12.387  0.00  0.00    +0.000 A 
ATOM     28  N   UNL     1      45.237   8.151  11.885  0.00  0.00    +0.000 NA
ATOM     29  C   UNL     1      46.203   8.929  12.234  0.00  0.00    +0.000 A 
ATOM     30  N   UNL     1      47.251   8.564  13.042  0.00  0.00    +0.000 N 
ATOM     31  C   UNL     1      47.371   7.306  13.584  0.00  0.00    +0.000 A 
ATOM     32  O   UNL     1      48.311   7.017  14.323  0.00  0.00    +0.000 OA
ATOM     33  C   UNL     1      46.307   6.388  13.221  0.00  0.00    +0.000 A 
ATOM     34  H   UNL     1      47.975   9.225  13.276  0.00  0.00    +0.000 HD
ENDBRANCH  21  24
ENDBRANCH  19  20
ENDBRANCH   4  19
TORSDOF 7
ENDMDL
