MODEL 1
REMARK VINA RESULT:    -8.273      0.000      0.000
REMARK INTER + INTRA:         -13.185
REMARK INTER:                 -11.900
REMARK INTRA:                  -1.285
REMARK UNBOUND:                -1.285
REMARK  Name = 
REMARK  9 active torsions:
REMARK  status: ('A' for Active; 'I' for Inactive)
REMARK    1  A    between atoms: C_1  and  C_2
REMARK    2  A    between atoms: C_6  and  C_7
REMARK    3  A    between atoms: C_7  and  N_8
REMARK    4  A    between atoms: N_8  and  C_9
REMARK    5  A    between atoms: C_9  and  C_10
REMARK    6  A    between atoms: C_13  and  C_14
REMARK    7  A    between atoms: C_14  and  N_15
REMARK    8  A    between atoms: C_16  and  C_18
REMARK    9  A    between atoms: C_25  and  O_26
REMARK                            x       y       z     vdW  Elec       q    Type
REMARK                         _______ _______ _______ _____ _____    ______ ____
ROOT
ATOM      1  C   UNL     1      44.731   5.607  12.034  0.00  0.00    +0.000 A 
ATOM      2  C   UNL     1      45.001   4.881  13.203  0.00  0.00    +0.000 A 
ATOM      3  C   UNL     1      46.191   5.085  13.911  0.00  0.00    +0.000 A 
ATOM      4  C   UNL     1      47.133   6.020  13.466  0.00  0.00    +0.000 A 
ATOM      5  C   UNL     1      46.870   6.731  12.288  0.00  0.00    +0.000 A 
ATOM      6  C   UNL     1      45.682   6.531  11.581  0.00  0.00    +0.000 A 
ENDROOT
BRANCH   1   7
ATOM      7  C   UNL     1      43.435   5.410  11.279  0.00  0.00    +0.000 C 
BRANCH   7   8
ATOM      8  N   UNL     1      43.614   4.846   9.942  0.00  0.00    +0.000 NA
ATOM      9  H   UNL     1      42.738   4.926   9.426  0.00  0.00    +0.000 HD
BRANCH   8  10
ATOM     10  C   UNL     1      43.995   3.431   9.969  0.00  0.00    +0.000 C 
BRANCH  10  16
ATOM     11  C   UNL     1      46.942   0.137   7.568  0.00  0.00    +0.000 C 
ATOM     12  C   UNL     1      46.516   1.557   7.794  0.00  0.00    +0.000 A 
ATOM     13  C   UNL     1      47.108   2.611   7.091  0.00  0.00    +0.000 A 
ATOM     14  C   UNL     1      46.702   3.927   7.320  0.00  0.00    +0.000 A 
ATOM     15  C   UNL     1      45.699   4.202   8.253  0.00  0.00    +0.000 A 
ATOM     16  C   UNL     1      45.094   3.161   8.966  0.00  0.00    +0.000 A 
ATOM     17  C   UNL     1      45.505   1.840   8.719  0.00  0.00    +0.000 A 
ENDBRANCH  10  16
ENDBRANCH   8  10
ENDBRANCH   7   8
ENDBRANCH   1   7
BRANCH   4  18
ATOM     18  C   UNL     1      48.421   6.248  14.217  0.00  0.00    +0.000 C 
BRANCH  18  19
ATOM     19  N   UNL     1      48.174   6.621  15.586  0.00  0.00    +0.000 N 
ATOM     20  C   UNL     1      48.787   5.972  16.629  0.00  0.00    +0.000 C 
ATOM     21  O   UNL     1      49.589   5.058  16.461  0.00  0.00    +0.000 OA
ATOM     22  H   UNL     1      47.405   7.252  15.779  0.00  0.00    +0.000 HD
BRANCH  20  23
ATOM     23  C   UNL     1      48.465   6.482  17.961  0.00  0.00    +0.000 A 
ATOM     24  C   UNL     1      48.115   7.806  18.209  0.00  0.00    +0.000 A 
ATOM     25  N   UNL     1      47.829   7.945  19.541  0.00  0.00    +0.000 N 
ATOM     26  C   UNL     1      48.028   6.753  20.176  0.00  0.00    +0.000 A 
ATOM     27  N   UNL     1      47.859   6.547  21.493  0.00  0.00    +0.000 NA
ATOM     28  C   UNL     1      48.142   5.282  21.840  0.00  0.00    +0.000 A 
ATOM     29  N   UNL     1      48.550   4.271  21.042  0.00  0.00    +0.000 NA
ATOM     30  C   UNL     1      48.688   4.555  19.744  0.00  0.00    +0.000 A 
ATOM     31  C   UNL     1      48.428   5.820  19.231  0.00  0.00    +0.000 A 
ATOM     32  H   UNL     1      47.525   8.789  20.005  0.00  0.00    +0.000 HD
BRANCH  30  33
ATOM     33  O   UNL     1      49.098   3.507  18.972  0.00  0.00    +0.000 OA
ATOM     34  H   UNL     1      49.901   3.237  19.456  0.00  0.00    +0.000 HD
ENDBRANCH  30  33
ENDBRANCH  20  23
ENDBRANCH  18  19
ENDBRANCH   4  18
TORSDOF 8
ENDMDL
MODEL 2
REMARK VINA RESULT:    -8.027      1.251      2.026
REMARK INTER + INTRA:         -12.831
REMARK INTER:                 -11.611
REMARK INTRA:                  -1.219
REMARK UNBOUND:                -1.285
REMARK  Name = 
REMARK  9 active torsions:
REMARK  status: ('A' for Active; 'I' for Inactive)
REMARK    1  A    between atoms: C_1  and  C_2
REMARK    2  A    between atoms: C_6  and  C_7
REMARK    3  A    between atoms: C_7  and  N_8
REMARK    4  A    between atoms: N_8  and  C_9
REMARK    5  A    between atoms: C_9  and  C_10
REMARK    6  A    between atoms: C_13  and  C_14
REMARK    7  A    between atoms: C_14  and  N_15
REMARK    8  A    between atoms: C_16  and  C_18
REMARK    9  A    between atoms: C_25  and  O_26
REMARK                            x       y       z     vdW  Elec       q    Type
REMARK                         _______ _______ _______ _____ _____    ______ ____
ROOT
ATOM      1  C   UNL     1      44.567   5.653  11.668  0.00  0.00    +0.000 A 
ATOM      2  C   UNL     1      45.589   6.480  11.180  0.00  0.00    +0.000 A 
ATOM      3  C   UNL     1      46.759   6.683  11.922  0.00  0.00    +0.000 A 
ATOM      4  C   UNL     1      46.931   6.059  13.164  0.00  0.00    +0.000 A 
ATOM      5  C   UNL     1      45.902   5.247  13.658  0.00  0.00    +0.000 A 
ATOM      6  C   UNL     1      44.735   5.042  12.918  0.00  0.00    +0.000 A 
ENDROOT
BRANCH   1   7
ATOM      7  C   UNL     1      43.312   5.409  10.860  0.00  0.00    +0.000 C 
BRANCH   7   8
ATOM      8  N   UNL     1      43.536   4.626   9.646  0.00  0.00    +0.000 NA
ATOM      9  H   UNL     1      42.641   4.452   9.191  0.00  0.00    +0.000 HD
BRANCH   8  10
ATOM     10  C   UNL     1      44.167   3.331   9.914  0.00  0.00    +0.000 C 
BRANCH  10  16
ATOM     11  C   UNL     1      47.005  -0.018   7.461  0.00  0.00    +0.000 C 
ATOM     12  C   UNL     1      46.602   1.409   7.686  0.00  0.00    +0.000 A 
ATOM     13  C   UNL     1      47.187   2.450   6.957  0.00  0.00    +0.000 A 
ATOM     14  C   UNL     1      46.803   3.772   7.186  0.00  0.00    +0.000 A 
ATOM     15  C   UNL     1      45.830   4.067   8.144  0.00  0.00    +0.000 A 
ATOM     16  C   UNL     1      45.234   3.039   8.884  0.00  0.00    +0.000 A 
ATOM     17  C   UNL     1      45.622   1.712   8.637  0.00  0.00    +0.000 A 
ENDBRANCH  10  16
ENDBRANCH   8  10
ENDBRANCH   7   8
ENDBRANCH   1   7
BRANCH   4  18
ATOM     18  C   UNL     1      48.185   6.270  13.975  0.00  0.00    +0.000 C 
BRANCH  18  19
ATOM     19  N   UNL     1      48.010   5.843  15.339  0.00  0.00    +0.000 N 
ATOM     20  C   UNL     1      48.637   6.484  16.379  0.00  0.00    +0.000 C 
ATOM     21  O   UNL     1      49.362   7.461  16.214  0.00  0.00    +0.000 OA
ATOM     22  H   UNL     1      47.558   4.952  15.507  0.00  0.00    +0.000 HD
BRANCH  20  23
ATOM     23  C   UNL     1      48.338   5.960  17.710  0.00  0.00    +0.000 A 
ATOM     24  C   UNL     1      48.318   4.602  18.011  0.00  0.00    +0.000 A 
ATOM     25  N   UNL     1      48.053   4.448  19.346  0.00  0.00    +0.000 N 
ATOM     26  C   UNL     1      47.857   5.674  19.915  0.00  0.00    +0.000 A 
ATOM     27  N   UNL     1      47.556   5.881  21.208  0.00  0.00    +0.000 NA
ATOM     28  C   UNL     1      47.404   7.186  21.481  0.00  0.00    +0.000 A 
ATOM     29  N   UNL     1      47.519   8.233  20.634  0.00  0.00    +0.000 NA
ATOM     30  C   UNL     1      47.826   7.943  19.367  0.00  0.00    +0.000 A 
ATOM     31  C   UNL     1      48.019   6.639  18.931  0.00  0.00    +0.000 A 
ATOM     32  H   UNL     1      48.000   3.575  19.852  0.00  0.00    +0.000 HD
BRANCH  30  33
ATOM     33  O   UNL     1      47.936   9.028  18.546  0.00  0.00    +0.000 OA
ATOM     34  H   UNL     1      47.495   8.686  17.746  0.00  0.00    +0.000 HD
ENDBRANCH  30  33
ENDBRANCH  20  23
ENDBRANCH  18  19
ENDBRANCH   4  18
TORSDOF 8
ENDMDL
MODEL 3
REMARK VINA RESULT:    -7.910      1.821      2.252
REMARK INTER + INTRA:         -12.662
REMARK INTER:                 -11.498
REMARK INTRA:                  -1.164
REMARK UNBOUND:                -1.285
REMARK  Name = 
REMARK  9 active torsions:
REMARK  status: ('A' for Active; 'I' for Inactive)
REMARK    1  A    between atoms: C_1  and  C_2
REMARK    2  A    between atoms: C_6  and  C_7
REMARK    3  A    between atoms: C_7  and  N_8
REMARK    4  A    between atoms: N_8  and  C_9
REMARK    5  A    between atoms: C_9  and  C_10
REMARK    6  A    between atoms: C_13  and  C_14
REMARK    7  A    between atoms: C_14  and  N_15
REMARK    8  A    between atoms: C_16  and  C_18
REMARK    9  A    between atoms: C_25  and  O_26
REMARK                            x       y       z     vdW  Elec       q    Type
REMARK                         _______ _______ _______ _____ _____    ______ ____
ROOT
ATOM      1  C   UNL     1      44.864   6.222  11.677  0.00  0.00    +0.000 A 
ATOM      2  C   UNL     1      45.150   7.594  11.631  0.00  0.00    +0.000 A 
ATOM      3  C   UNL     1      46.394   8.078  12.052  0.00  0.00    +0.000 A 
ATOM      4  C   UNL     1      47.377   7.200  12.524  0.00  0.00    +0.000 A 
ATOM      5  C   UNL     1      47.083   5.832  12.587  0.00  0.00    +0.000 A 
ATOM      6  C   UNL     1      45.843   5.347  12.165  0.00  0.00    +0.000 A 
ENDROOT
BRANCH   1   7
ATOM      7  C   UNL     1      43.531   5.690  11.200  0.00  0.00    +0.000 C 
BRANCH   7   8
ATOM      8  N   UNL     1      43.597   5.013   9.906  0.00  0.00    +0.000 NA
ATOM      9  H   UNL     1      42.682   5.055   9.460  0.00  0.00    +0.000 HD
BRANCH   8  10
ATOM     10  C   UNL     1      43.981   3.604  10.020  0.00  0.00    +0.000 C 
BRANCH  10  16
ATOM     11  C   UNL     1      46.787   0.139   7.693  0.00  0.00    +0.000 C 
ATOM     12  C   UNL     1      46.411   1.579   7.878  0.00  0.00    +0.000 A 
ATOM     13  C   UNL     1      47.028   2.590   7.134  0.00  0.00    +0.000 A 
ATOM     14  C   UNL     1      46.668   3.925   7.326  0.00  0.00    +0.000 A 
ATOM     15  C   UNL     1      45.687   4.263   8.260  0.00  0.00    +0.000 A 
ATOM     16  C   UNL     1      45.058   3.265   9.014  0.00  0.00    +0.000 A 
ATOM     17  C   UNL     1      45.422   1.925   8.805  0.00  0.00    +0.000 A 
ENDBRANCH  10  16
ENDBRANCH   8  10
ENDBRANCH   7   8
ENDBRANCH   1   7
BRANCH   4  18
ATOM     18  C   UNL     1      48.721   7.708  12.984  0.00  0.00    +0.000 C 
BRANCH  18  19
ATOM     19  N   UNL     1      49.128   7.084  14.217  0.00  0.00    +0.000 N 
ATOM     20  C   UNL     1      48.832   7.643  15.436  0.00  0.00    +0.000 C 
ATOM     21  O   UNL     1      48.193   8.685  15.549  0.00  0.00    +0.000 OA
ATOM     22  H   UNL     1      49.791   6.320  14.170  0.00  0.00    +0.000 HD
BRANCH  20  23
ATOM     23  C   UNL     1      49.280   6.880  16.599  0.00  0.00    +0.000 A 
ATOM     24  C   UNL     1      50.314   7.293  17.433  0.00  0.00    +0.000 A 
ATOM     25  N   UNL     1      50.451   6.386  18.450  0.00  0.00    +0.000 N 
ATOM     26  C   UNL     1      49.559   5.366  18.274  0.00  0.00    +0.000 A 
ATOM     27  N   UNL     1      49.444   4.299  19.082  0.00  0.00    +0.000 NA
ATOM     28  C   UNL     1      48.495   3.451  18.655  0.00  0.00    +0.000 A 
ATOM     29  N   UNL     1      47.704   3.568  17.566  0.00  0.00    +0.000 NA
ATOM     30  C   UNL     1      47.876   4.660  16.818  0.00  0.00    +0.000 A 
ATOM     31  C   UNL     1      48.817   5.633  17.133  0.00  0.00    +0.000 A 
ATOM     32  H   UNL     1      51.107   6.437  19.217  0.00  0.00    +0.000 HD
BRANCH  30  33
ATOM     33  O   UNL     1      47.055   4.742  15.731  0.00  0.00    +0.000 OA
ATOM     34  H   UNL     1      47.596   4.273  15.068  0.00  0.00    +0.000 HD
ENDBRANCH  30  33
ENDBRANCH  20  23
ENDBRANCH  18  19
ENDBRANCH   4  18
TORSDOF 8
ENDMDL
MODEL 4
REMARK VINA RESULT:    -7.632      3.034      8.348
REMARK INTER + INTRA:         -12.263
REMARK INTER:                 -10.180
REMARK INTRA:                  -2.082
REMARK UNBOUND:                -1.285
REMARK  Name = 
REMARK  9 active torsions:
REMARK  status: ('A' for Active; 'I' for Inactive)
REMARK    1  A    between atoms: C_1  and  C_2
REMARK    2  A    between atoms: C_6  and  C_7
REMARK    3  A    between atoms: C_7  and  N_8
REMARK    4  A    between atoms: N_8  and  C_9
REMARK    5  A    between atoms: C_9  and  C_10
REMARK    6  A    between atoms: C_13  and  C_14
REMARK    7  A    between atoms: C_14  and  N_15
REMARK    8  A    between atoms: C_16  and  C_18
REMARK    9  A    between atoms: C_25  and  O_26
REMARK                            x       y       z     vdW  Elec       q    Type
REMARK                         _______ _______ _______ _____ _____    ______ ____
ROOT
ATOM      1  C   UNL     1      49.336   7.835  17.719  0.00  0.00    +0.000 A 
ATOM      2  C   UNL     1      48.444   8.645  17.002  0.00  0.00    +0.000 A 
ATOM      3  C   UNL     1      48.464   8.664  15.602  0.00  0.00    +0.000 A 
ATOM      4  C   UNL     1      49.372   7.869  14.892  0.00  0.00    +0.000 A 
ATOM      5  C   UNL     1      50.274   7.073  15.611  0.00  0.00    +0.000 A 
ATOM      6  C   UNL     1      50.255   7.052  17.008  0.00  0.00    +0.000 A 
ENDROOT
BRANCH   1   7
ATOM      7  C   UNL     1      49.303   7.791  19.231  0.00  0.00    +0.000 C 
BRANCH   7   8
ATOM      8  N   UNL     1      48.187   7.018  19.773  0.00  0.00    +0.000 NA
ATOM      9  H   UNL     1      47.863   7.458  20.633  0.00  0.00    +0.000 HD
BRANCH   8  10
ATOM     10  C   UNL     1      48.553   5.633  20.083  0.00  0.00    +0.000 C 
BRANCH  10  16
ATOM     11  C   UNL     1      50.386   2.027  17.095  0.00  0.00    +0.000 C 
ATOM     12  C   UNL     1      49.291   3.001  17.415  0.00  0.00    +0.000 A 
ATOM     13  C   UNL     1      48.151   3.097  16.611  0.00  0.00    +0.000 A 
ATOM     14  C   UNL     1      47.145   4.015  16.922  0.00  0.00    +0.000 A 
ATOM     15  C   UNL     1      47.269   4.842  18.041  0.00  0.00    +0.000 A 
ATOM     16  C   UNL     1      48.403   4.760  18.857  0.00  0.00    +0.000 A 
ATOM     17  C   UNL     1      49.403   3.826  18.539  0.00  0.00    +0.000 A 
ENDBRANCH  10  16
ENDBRANCH   8  10
ENDBRANCH   7   8
ENDBRANCH   1   7
BRANCH   4  18
ATOM     18  C   UNL     1      49.406   7.880  13.384  0.00  0.00    +0.000 C 
BRANCH  18  19
ATOM     19  N   UNL     1      48.112   7.585  12.826  0.00  0.00    +0.000 N 
ATOM     20  C   UNL     1      47.609   6.307  12.814  0.00  0.00    +0.000 C 
ATOM     21  O   UNL     1      48.215   5.353  13.292  0.00  0.00    +0.000 OA
ATOM     22  H   UNL     1      47.652   8.303  12.279  0.00  0.00    +0.000 HD
BRANCH  20  23
ATOM     23  C   UNL     1      46.270   6.166  12.245  0.00  0.00    +0.000 A 
ATOM     24  C   UNL     1      45.605   7.197  11.589  0.00  0.00    +0.000 A 
ATOM     25  N   UNL     1      44.401   6.729  11.135  0.00  0.00    +0.000 N 
ATOM     26  C   UNL     1      44.245   5.427  11.520  0.00  0.00    +0.000 A 
ATOM     27  N   UNL     1      43.164   4.674  11.257  0.00  0.00    +0.000 NA
ATOM     28  C   UNL     1      43.281   3.439  11.771  0.00  0.00    +0.000 A 
ATOM     29  N   UNL     1      44.313   2.925  12.475  0.00  0.00    +0.000 NA
ATOM     30  C   UNL     1      45.352   3.736  12.688  0.00  0.00    +0.000 A 
ATOM     31  C   UNL     1      45.381   5.042  12.215  0.00  0.00    +0.000 A 
ATOM     32  H   UNL     1      43.715   7.247  10.605  0.00  0.00    +0.000 HD
BRANCH  30  33
ATOM     33  O   UNL     1      46.374   3.178  13.400  0.00  0.00    +0.000 OA
ATOM     34  H   UNL     1      46.581   2.410  12.835  0.00  0.00    +0.000 HD
ENDBRANCH  30  33
ENDBRANCH  20  23
ENDBRANCH  18  19
ENDBRANCH   4  18
TORSDOF 8
ENDMDL
MODEL 5
REMARK VINA RESULT:    -7.549      2.872      9.024
REMARK INTER + INTRA:         -12.143
REMARK INTER:                 -10.318
REMARK INTRA:                  -1.825
REMARK UNBOUND:                -1.285
REMARK  Name = 
REMARK  9 active torsions:
REMARK  status: ('A' for Active; 'I' for Inactive)
REMARK    1  A    between atoms: C_1  and  C_2
REMARK    2  A    between atoms: C_6  and  C_7
REMARK    3  A    between atoms: C_7  and  N_8
REMARK    4  A    between atoms: N_8  and  C_9
REMARK    5  A    between atoms: C_9  and  C_10
REMARK    6  A    between atoms: C_13  and  C_14
REMARK    7  A    between atoms: C_14  and  N_15
REMARK    8  A    between atoms: C_16  and  C_18
REMARK    9  A    between atoms: C_25  and  O_26
REMARK                            x       y       z     vdW  Elec       q    Type
REMARK                         _______ _______ _______ _____ _____    ______ ____
ROOT
ATOM      1  C   UNL     1      49.084   7.949  16.085  0.00  0.00    +0.000 A 
ATOM      2  C   UNL     1      48.274   8.994  15.621  0.00  0.00    +0.000 A 
ATOM      3  C   UNL     1      47.725   8.955  14.333  0.00  0.00    +0.000 A 
ATOM      4  C   UNL     1      47.973   7.866  13.487  0.00  0.00    +0.000 A 
ATOM      5  C   UNL     1      48.797   6.831  13.946  0.00  0.00    +0.000 A 
ATOM      6  C   UNL     1      49.344   6.868  15.232  0.00  0.00    +0.000 A 
ENDROOT
BRANCH   1   7
ATOM      7  C   UNL     1      49.659   7.973  17.484  0.00  0.00    +0.000 C 
BRANCH   7   8
ATOM      8  N   UNL     1      48.734   7.495  18.509  0.00  0.00    +0.000 NA
ATOM      9  H   UNL     1      48.624   8.215  19.222  0.00  0.00    +0.000 HD
BRANCH   8  10
ATOM     10  C   UNL     1      49.199   6.272  19.169  0.00  0.00    +0.000 C 
BRANCH  10  16
ATOM     11  C   UNL     1      50.525   1.903  17.061  0.00  0.00    +0.000 C 
ATOM     12  C   UNL     1      49.468   2.928  17.342  0.00  0.00    +0.000 A 
ATOM     13  C   UNL     1      48.160   2.766  16.874  0.00  0.00    +0.000 A 
ATOM     14  C   UNL     1      47.191   3.736  17.140  0.00  0.00    +0.000 A 
ATOM     15  C   UNL     1      47.520   4.875  17.878  0.00  0.00    +0.000 A 
ATOM     16  C   UNL     1      48.823   5.055  18.354  0.00  0.00    +0.000 A 
ATOM     17  C   UNL     1      49.786   4.068  18.088  0.00  0.00    +0.000 A 
ENDBRANCH  10  16
ENDBRANCH   8  10
ENDBRANCH   7   8
ENDBRANCH   1   7
BRANCH   4  18
ATOM     18  C   UNL     1      47.390   7.811  12.097  0.00  0.00    +0.000 C 
BRANCH  18  19
ATOM     19  N   UNL     1      46.785   6.532  11.829  0.00  0.00    +0.000 N 
ATOM     20  C   UNL     1      45.489   6.260  12.192  0.00  0.00    +0.000 C 
ATOM     21  O   UNL     1      44.768   7.087  12.742  0.00  0.00    +0.000 OA
ATOM     22  H   UNL     1      47.385   5.772  11.529  0.00  0.00    +0.000 HD
BRANCH  20  23
ATOM     23  C   UNL     1      45.001   4.932  11.824  0.00  0.00    +0.000 A 
ATOM     24  C   UNL     1      44.479   4.028  12.744  0.00  0.00    +0.000 A 
ATOM     25  N   UNL     1      44.071   2.904  12.076  0.00  0.00    +0.000 N 
ATOM     26  C   UNL     1      44.355   3.036  10.746  0.00  0.00    +0.000 A 
ATOM     27  N   UNL     1      44.104   2.105   9.811  0.00  0.00    +0.000 NA
ATOM     28  C   UNL     1      44.504   2.502   8.593  0.00  0.00    +0.000 A 
ATOM     29  N   UNL     1      45.092   3.669   8.249  0.00  0.00    +0.000 NA
ATOM     30  C   UNL     1      45.301   4.544   9.235  0.00  0.00    +0.000 A 
ATOM     31  C   UNL     1      44.938   4.280  10.550  0.00  0.00    +0.000 A 
ATOM     32  H   UNL     1      43.632   2.089  12.481  0.00  0.00    +0.000 HD
BRANCH  30  33
ATOM     33  O   UNL     1      45.893   5.711   8.846  0.00  0.00    +0.000 OA
ATOM     34  H   UNL     1      45.454   5.851   7.987  0.00  0.00    +0.000 HD
ENDBRANCH  30  33
ENDBRANCH  20  23
ENDBRANCH  18  19
ENDBRANCH   4  18
TORSDOF 8
ENDMDL
MODEL 6
REMARK VINA RESULT:    -7.243      2.455      2.950
REMARK INTER + INTRA:         -11.704
REMARK INTER:                 -10.277
REMARK INTRA:                  -1.427
REMARK UNBOUND:                -1.285
REMARK  Name = 
REMARK  9 active torsions:
REMARK  status: ('A' for Active; 'I' for Inactive)
REMARK    1  A    between atoms: C_1  and  C_2
REMARK    2  A    between atoms: C_6  and  C_7
REMARK    3  A    between atoms: C_7  and  N_8
REMARK    4  A    between atoms: N_8  and  C_9
REMARK    5  A    between atoms: C_9  and  C_10
REMARK    6  A    between atoms: C_13  and  C_14
REMARK    7  A    between atoms: C_14  and  N_15
REMARK    8  A    between atoms: C_16  and  C_18
REMARK    9  A    between atoms: C_25  and  O_26
REMARK                            x       y       z     vdW  Elec       q    Type
REMARK                         _______ _______ _______ _____ _____    ______ ____
ROOT
ATOM      1  C   UNL     1      45.205   5.130  12.946  0.00  0.00    +0.000 A 
ATOM      2  C   UNL     1      46.458   4.636  13.335  0.00  0.00    +0.000 A 
ATOM      3  C   UNL     1      47.594   5.454  13.290  0.00  0.00    +0.000 A 
ATOM      4  C   UNL     1      47.496   6.784  12.860  0.00  0.00    +0.000 A 
ATOM      5  C   UNL     1      46.247   7.270  12.456  0.00  0.00    +0.000 A 
ATOM      6  C   UNL     1      45.113   6.455  12.502  0.00  0.00    +0.000 A 
ENDROOT
BRANCH   1   7
ATOM      7  C   UNL     1      43.971   4.259  13.016  0.00  0.00    +0.000 C 
BRANCH   7   8
ATOM      8  N   UNL     1      44.145   2.941  12.408  0.00  0.00    +0.000 NA
ATOM      9  H   UNL     1      45.137   2.781  12.235  0.00  0.00    +0.000 HD
BRANCH   8  10
ATOM     10  C   UNL     1      43.436   2.805  11.134  0.00  0.00    +0.000 C 
BRANCH  10  16
ATOM     11  C   UNL     1      46.599   0.901   7.718  0.00  0.00    +0.000 C 
ATOM     12  C   UNL     1      45.909   2.094   8.311  0.00  0.00    +0.000 A 
ATOM     13  C   UNL     1      46.122   3.380   7.803  0.00  0.00    +0.000 A 
ATOM     14  C   UNL     1      45.475   4.478   8.372  0.00  0.00    +0.000 A 
ATOM     15  C   UNL     1      44.608   4.302   9.453  0.00  0.00    +0.000 A 
ATOM     16  C   UNL     1      44.382   3.023   9.975  0.00  0.00    +0.000 A 
ATOM     17  C   UNL     1      45.032   1.925   9.387  0.00  0.00    +0.000 A 
ENDBRANCH  10  16
ENDBRANCH   8  10
ENDBRANCH   7   8
ENDBRANCH   1   7
BRANCH   4  18
ATOM     18  C   UNL     1      48.711   7.676  12.805  0.00  0.00    +0.000 C 
BRANCH  18  19
ATOM     19  N   UNL     1      49.725   7.246  13.734  0.00  0.00    +0.000 N 
ATOM     20  C   UNL     1      49.804   7.766  15.002  0.00  0.00    +0.000 C 
ATOM     21  O   UNL     1      49.013   8.605  15.424  0.00  0.00    +0.000 OA
ATOM     22  H   UNL     1      50.490   6.683  13.381  0.00  0.00    +0.000 HD
BRANCH  20  23
ATOM     23  C   UNL     1      50.862   7.210  15.843  0.00  0.00    +0.000 A 
ATOM     24  C   UNL     1      52.138   7.758  15.931  0.00  0.00    +0.000 A 
ATOM     25  N   UNL     1      52.870   7.034  16.834  0.00  0.00    +0.000 N 
ATOM     26  C   UNL     1      52.114   5.998  17.305  0.00  0.00    +0.000 A 
ATOM     27  N   UNL     1      52.537   5.080  18.191  0.00  0.00    +0.000 NA
ATOM     28  C   UNL     1      51.587   4.171  18.458  0.00  0.00    +0.000 A 
ATOM     29  N   UNL     1      50.335   4.103  17.954  0.00  0.00    +0.000 NA
ATOM     30  C   UNL     1      49.990   5.055  17.084  0.00  0.00    +0.000 A 
ATOM     31  C   UNL     1      50.863   6.069  16.710  0.00  0.00    +0.000 A 
ATOM     32  H   UNL     1      53.822   7.214  17.118  0.00  0.00    +0.000 HD
BRANCH  30  33
ATOM     33  O   UNL     1      48.717   4.952  16.602  0.00  0.00    +0.000 OA
ATOM     34  H   UNL     1      48.288   5.684  17.083  0.00  0.00    +0.000 HD
ENDBRANCH  30  33
ENDBRANCH  20  23
ENDBRANCH  18  19
ENDBRANCH   4  18
TORSDOF 8
ENDMDL
MODEL 7
REMARK VINA RESULT:    -7.149      3.433      5.155
REMARK INTER + INTRA:         -11.568
REMARK INTER:                  -9.994
REMARK INTRA:                  -1.574
REMARK UNBOUND:                -1.285
REMARK  Name = 
REMARK  9 active torsions:
REMARK  status: ('A' for Active; 'I' for Inactive)
REMARK    1  A    between atoms: C_1  and  C_2
REMARK    2  A    between atoms: C_6  and  C_7
REMARK    3  A    between atoms: C_7  and  N_8
REMARK    4  A    between atoms: N_8  and  C_9
REMARK    5  A    between atoms: C_9  and  C_10
REMARK    6  A    between atoms: C_13  and  C_14
REMARK    7  A    between atoms: C_14  and  N_15
REMARK    8  A    between atoms: C_16  and  C_18
REMARK    9  A    between atoms: C_25  and  O_26
REMARK                            x       y       z     vdW  Elec       q    Type
REMARK                         _______ _______ _______ _____ _____    ______ ____
ROOT
ATOM      1  C   UNL     1      47.506   5.801  13.821  0.00  0.00    +0.000 A 
ATOM      2  C   UNL     1      48.101   6.291  14.992  0.00  0.00    +0.000 A 
ATOM      3  C   UNL     1      48.183   5.492  16.139  0.00  0.00    +0.000 A 
ATOM      4  C   UNL     1      47.676   4.187  16.136  0.00  0.00    +0.000 A 
ATOM      5  C   UNL     1      47.067   3.705  14.970  0.00  0.00    +0.000 A 
ATOM      6  C   UNL     1      46.986   4.500  13.824  0.00  0.00    +0.000 A 
ENDROOT
BRANCH   1   7
ATOM      7  C   UNL     1      47.437   6.649  12.570  0.00  0.00    +0.000 C 
BRANCH   7   8
ATOM      8  N   UNL     1      46.330   7.603  12.568  0.00  0.00    +0.000 NA
ATOM      9  H   UNL     1      45.829   7.538  13.453  0.00  0.00    +0.000 HD
BRANCH   8  10
ATOM     10  C   UNL     1      45.372   7.359  11.486  0.00  0.00    +0.000 C 
BRANCH  10  16
ATOM     11  C   UNL     1      44.600   2.652   9.890  0.00  0.00    +0.000 C 
ATOM     12  C   UNL     1      44.334   3.730  10.898  0.00  0.00    +0.000 A 
ATOM     13  C   UNL     1      43.492   3.505  11.992  0.00  0.00    +0.000 A 
ATOM     14  C   UNL     1      43.251   4.523  12.917  0.00  0.00    +0.000 A 
ATOM     15  C   UNL     1      43.851   5.774  12.759  0.00  0.00    +0.000 A 
ATOM     16  C   UNL     1      44.697   6.018  11.671  0.00  0.00    +0.000 A 
ATOM     17  C   UNL     1      44.939   4.982  10.753  0.00  0.00    +0.000 A 
ENDBRANCH  10  16
ENDBRANCH   8  10
ENDBRANCH   7   8
ENDBRANCH   1   7
BRANCH   4  18
ATOM     18  C   UNL     1      47.756   3.316  17.365  0.00  0.00    +0.000 C 
BRANCH  18  19
ATOM     19  N   UNL     1      49.122   3.070  17.749  0.00  0.00    +0.000 N 
ATOM     20  C   UNL     1      49.918   2.196  17.051  0.00  0.00    +0.000 C 
ATOM     21  O   UNL     1      49.526   1.593  16.056  0.00  0.00    +0.000 OA
ATOM     22  H   UNL     1      49.435   3.415  18.650  0.00  0.00    +0.000 HD
BRANCH  20  23
ATOM     23  C   UNL     1      51.291   2.074  17.538  0.00  0.00    +0.000 A 
ATOM     24  C   UNL     1      51.896   0.854  17.823  0.00  0.00    +0.000 A 
ATOM     25  N   UNL     1      53.190   1.081  18.209  0.00  0.00    +0.000 N 
ATOM     26  C   UNL     1      53.430   2.426  18.225  0.00  0.00    +0.000 A 
ATOM     27  N   UNL     1      54.596   2.993  18.580  0.00  0.00    +0.000 NA
ATOM     28  C   UNL     1      54.537   4.333  18.516  0.00  0.00    +0.000 A 
ATOM     29  N   UNL     1      53.488   5.104  18.152  0.00  0.00    +0.000 NA
ATOM     30  C   UNL     1      52.369   4.463  17.809  0.00  0.00    +0.000 A 
ATOM     31  C   UNL     1      52.274   3.077  17.820  0.00  0.00    +0.000 A 
ATOM     32  H   UNL     1      53.876   0.382  18.456  0.00  0.00    +0.000 HD
BRANCH  30  33
ATOM     33  O   UNL     1      51.335   5.277  17.445  0.00  0.00    +0.000 OA
ATOM     34  H   UNL     1      51.529   6.061  17.993  0.00  0.00    +0.000 HD
ENDBRANCH  30  33
ENDBRANCH  20  23
ENDBRANCH  18  19
ENDBRANCH   4  18
TORSDOF 8
ENDMDL
MODEL 8
REMARK VINA RESULT:    -6.980      3.990      6.214
REMARK INTER + INTRA:         -11.324
REMARK INTER:                 -10.161
REMARK INTRA:                  -1.163
REMARK UNBOUND:                -1.285
REMARK  Name = 
REMARK  9 active torsions:
REMARK  status: ('A' for Active; 'I' for Inactive)
REMARK    1  A    between atoms: C_1  and  C_2
REMARK    2  A    between atoms: C_6  and  C_7
REMARK    3  A    between atoms: C_7  and  N_8
REMARK    4  A    between atoms: N_8  and  C_9
REMARK    5  A    between atoms: C_9  and  C_10
REMARK    6  A    between atoms: C_13  and  C_14
REMARK    7  A    between atoms: C_14  and  N_15
REMARK    8  A    between atoms: C_16  and  C_18
REMARK    9  A    between atoms: C_25  and  O_26
REMARK                            x       y       z     vdW  Elec       q    Type
REMARK                         _______ _______ _______ _____ _____    ______ ____
ROOT
ATOM      1  C   UNL     1      44.608   4.164  12.526  0.00  0.00    +0.000 A 
ATOM      2  C   UNL     1      44.552   5.560  12.628  0.00  0.00    +0.000 A 
ATOM      3  C   UNL     1      45.651   6.286  13.104  0.00  0.00    +0.000 A 
ATOM      4  C   UNL     1      46.828   5.629  13.482  0.00  0.00    +0.000 A 
ATOM      5  C   UNL     1      46.876   4.232  13.396  0.00  0.00    +0.000 A 
ATOM      6  C   UNL     1      45.781   3.506  12.920  0.00  0.00    +0.000 A 
ENDROOT
BRANCH   1   7
ATOM      7  C   UNL     1      43.434   3.376  11.989  0.00  0.00    +0.000 C 
BRANCH   7   8
ATOM      8  N   UNL     1      43.661   2.815  10.658  0.00  0.00    +0.000 NA
ATOM      9  H   UNL     1      44.449   2.170  10.697  0.00  0.00    +0.000 HD
BRANCH   8  10
ATOM     10  C   UNL     1      43.963   3.838   9.654  0.00  0.00    +0.000 C 
BRANCH  10  16
ATOM     11  C   UNL     1      46.735   0.105   7.737  0.00  0.00    +0.000 C 
ATOM     12  C   UNL     1      46.438   1.572   7.829  0.00  0.00    +0.000 A 
ATOM     13  C   UNL     1      47.185   2.508   7.105  0.00  0.00    +0.000 A 
ATOM     14  C   UNL     1      46.897   3.871   7.209  0.00  0.00    +0.000 A 
ATOM     15  C   UNL     1      45.859   4.310   8.035  0.00  0.00    +0.000 A 
ATOM     16  C   UNL     1      45.101   3.388   8.766  0.00  0.00    +0.000 A 
ATOM     17  C   UNL     1      45.395   2.020   8.645  0.00  0.00    +0.000 A 
ENDBRANCH  10  16
ENDBRANCH   8  10
ENDBRANCH   7   8
ENDBRANCH   1   7
BRANCH   4  18
ATOM     18  C   UNL     1      48.019   6.398  13.999  0.00  0.00    +0.000 C 
BRANCH  18  19
ATOM     19  N   UNL     1      48.406   7.444  13.088  0.00  0.00    +0.000 N 
ATOM     20  C   UNL     1      49.637   8.049  13.171  0.00  0.00    +0.000 C 
ATOM     21  O   UNL     1      50.479   7.724  14.002  0.00  0.00    +0.000 OA
ATOM     22  H   UNL     1      47.691   7.854  12.498  0.00  0.00    +0.000 HD
BRANCH  20  23
ATOM     23  C   UNL     1      49.901   9.070  12.159  0.00  0.00    +0.000 A 
ATOM     24  C   UNL     1      48.958  10.011  11.757  0.00  0.00    +0.000 A 
ATOM     25  N   UNL     1      49.533  10.849  10.838  0.00  0.00    +0.000 N 
ATOM     26  C   UNL     1      50.816  10.448  10.598  0.00  0.00    +0.000 A 
ATOM     27  N   UNL     1      51.655  11.039   9.731  0.00  0.00    +0.000 NA
ATOM     28  C   UNL     1      52.846  10.421   9.690  0.00  0.00    +0.000 A 
ATOM     29  N   UNL     1      53.246   9.339  10.392  0.00  0.00    +0.000 NA
ATOM     30  C   UNL     1      52.356   8.813  11.237  0.00  0.00    +0.000 A 
ATOM     31  C   UNL     1      51.082   9.344  11.394  0.00  0.00    +0.000 A 
ATOM     32  H   UNL     1      49.094  11.640  10.389  0.00  0.00    +0.000 HD
BRANCH  30  33
ATOM     33  O   UNL     1      52.801   7.725  11.929  0.00  0.00    +0.000 OA
ATOM     34  H   UNL     1      52.819   8.088  12.834  0.00  0.00    +0.000 HD
ENDBRANCH  30  33
ENDBRANCH  20  23
ENDBRANCH  18  19
ENDBRANCH   4  18
TORSDOF 8
ENDMDL
MODEL 9
REMARK VINA RESULT:    -6.886      3.293      9.675
REMARK INTER + INTRA:         -11.189
REMARK INTER:                  -9.697
REMARK INTRA:                  -1.492
REMARK UNBOUND:                -1.285
REMARK  Name = 
REMARK  9 active torsions:
REMARK  status: ('A' for Active; 'I' for Inactive)
REMARK    1  A    between atoms: C_1  and  C_2
REMARK    2  A    between atoms: C_6  and  C_7
REMARK    3  A    between atoms: C_7  and  N_8
REMARK    4  A    between atoms: N_8  and  C_9
REMARK    5  A    between atoms: C_9  and  C_10
REMARK    6  A    between atoms: C_13  and  C_14
REMARK    7  A    between atoms: C_14  and  N_15
REMARK    8  A    between atoms: C_16  and  C_18
REMARK    9  A    between atoms: C_25  and  O_26
REMARK                            x       y       z     vdW  Elec       q    Type
REMARK                         _______ _______ _______ _____ _____    ______ ____
ROOT
ATOM      1  C   UNL     1      48.415   8.115  14.271  0.00  0.00    +0.000 A 
ATOM      2  C   UNL     1      47.451   9.084  13.959  0.00  0.00    +0.000 A 
ATOM      3  C   UNL     1      46.276   8.731  13.284  0.00  0.00    +0.000 A 
ATOM      4  C   UNL     1      46.040   7.401  12.913  0.00  0.00    +0.000 A 
ATOM      5  C   UNL     1      47.012   6.437  13.210  0.00  0.00    +0.000 A 
ATOM      6  C   UNL     1      48.185   6.788  13.885  0.00  0.00    +0.000 A 
ENDROOT
BRANCH   1   7
ATOM      7  C   UNL     1      49.675   8.485  15.022  0.00  0.00    +0.000 C 
BRANCH   7   8
ATOM      8  N   UNL     1      50.484   7.334  15.417  0.00  0.00    +0.000 NA
ATOM      9  H   UNL     1      50.044   6.481  15.073  0.00  0.00    +0.000 HD
BRANCH   8  10
ATOM     10  C   UNL     1      50.627   7.213  16.871  0.00  0.00    +0.000 C 
BRANCH  10  16
ATOM     11  C   UNL     1      47.410   3.358  17.168  0.00  0.00    +0.000 C 
ATOM     12  C   UNL     1      47.830   4.723  17.626  0.00  0.00    +0.000 A 
ATOM     13  C   UNL     1      47.101   5.417  18.598  0.00  0.00    +0.000 A 
ATOM     14  C   UNL     1      47.504   6.690  19.006  0.00  0.00    +0.000 A 
ATOM     15  C   UNL     1      48.641   7.280  18.450  0.00  0.00    +0.000 A 
ATOM     16  C   UNL     1      49.384   6.602  17.476  0.00  0.00    +0.000 A 
ATOM     17  C   UNL     1      48.973   5.318  17.081  0.00  0.00    +0.000 A 
ENDBRANCH  10  16
ENDBRANCH   8  10
ENDBRANCH   7   8
ENDBRANCH   1   7
BRANCH   4  18
ATOM     18  C   UNL     1      44.780   7.007  12.184  0.00  0.00    +0.000 C 
BRANCH  18  19
ATOM     19  N   UNL     1      44.982   5.831  11.378  0.00  0.00    +0.000 N 
ATOM     20  C   UNL     1      44.037   4.837  11.308  0.00  0.00    +0.000 C 
ATOM     21  O   UNL     1      42.966   4.898  11.904  0.00  0.00    +0.000 OA
ATOM     22  H   UNL     1      45.909   5.661  11.003  0.00  0.00    +0.000 HD
BRANCH  20  23
ATOM     23  C   UNL     1      44.368   3.721  10.424  0.00  0.00    +0.000 A 
ATOM     24  C   UNL     1      43.916   2.421  10.631  0.00  0.00    +0.000 A 
ATOM     25  N   UNL     1      44.359   1.630   9.604  0.00  0.00    +0.000 N 
ATOM     26  C   UNL     1      45.128   2.374   8.755  0.00  0.00    +0.000 A 
ATOM     27  N   UNL     1      45.736   1.900   7.655  0.00  0.00    +0.000 NA
ATOM     28  C   UNL     1      46.437   2.855   7.023  0.00  0.00    +0.000 A 
ATOM     29  N   UNL     1      46.573   4.154   7.368  0.00  0.00    +0.000 NA
ATOM     30  C   UNL     1      45.932   4.548   8.471  0.00  0.00    +0.000 A 
ATOM     31  C   UNL     1      45.162   3.677   9.232  0.00  0.00    +0.000 A 
ATOM     32  H   UNL     1      44.167   0.646   9.477  0.00  0.00    +0.000 HD
BRANCH  30  33
ATOM     33  O   UNL     1      46.092   5.867   8.783  0.00  0.00    +0.000 OA
ATOM     34  H   UNL     1      45.331   6.252   8.309  0.00  0.00    +0.000 HD
ENDBRANCH  30  33
ENDBRANCH  20  23
ENDBRANCH  18  19
ENDBRANCH   4  18
TORSDOF 8
ENDMDL
