MODEL 1
REMARK VINA RESULT:    -6.940      0.000      0.000
REMARK INTER + INTRA:          -8.773
REMARK INTER:                  -8.360
REMARK INTRA:                  -0.413
REMARK UNBOUND:                -0.413
REMARK  Name = 
REMARK  6 active torsions:
REMARK  status: ('A' for Active; 'I' for Inactive)
REMARK    1  A    between atoms: C_1  and  C_2
REMARK    2  A    between atoms: C_5  and  C_6
REMARK    3  A    between atoms: C_7  and  C_8
REMARK    4  A    between atoms: C_8  and  N_9
REMARK    5  A    between atoms: CA_14  and  C_15
REMARK    6  A    between atoms: C_15  and  O_16
REMARK                            x       y       z     vdW  Elec       q    Type
REMARK                         _______ _______ _______ _____ _____    ______ ____
ROOT
ATOM      1  N   UNL     1      45.414   6.483  10.724  0.00  0.00    +0.000 N 
ATOM      2  C   UNL     1      46.296   6.444  11.815  0.00  0.00    +0.000 A 
ATOM      3  C   UNL     1      47.303   7.409  11.850  0.00  0.00    +0.000 A 
ATOM      4  C   UNL     1      48.218   7.424  12.897  0.00  0.00    +0.000 A 
ATOM      5  C   UNL     1      48.119   6.461  13.890  0.00  0.00    +0.000 A 
ATOM      6  CA  UNL     1      47.095   5.525  13.801  0.00  0.00    +0.000 A 
ATOM      7  N   UNL     1      46.176   5.516  12.787  0.00  0.00    +0.000 NA
ATOM      8  H   UNL     1      45.955   6.405   9.866  0.00  0.00    +0.000 HD
ENDROOT
BRANCH   1   9
ATOM      9  C   UNL     1      44.300   5.542  10.744  0.00  0.00    +0.000 C 
BRANCH   9  16
ATOM     10  C   UNL     1      46.582   3.508   6.725  0.00  0.00    +0.000 C 
ATOM     11  C   UNL     1      45.769   3.360   7.972  0.00  0.00    +0.000 A 
ATOM     12  C   UNL     1      45.313   2.124   8.397  0.00  0.00    +0.000 A 
ATOM     13  N   UNL     1      44.575   1.933   9.509  0.00  0.00    +0.000 NA
ATOM     14  C   UNL     1      44.255   3.020  10.258  0.00  0.00    +0.000 A 
ATOM     15  C   UNL     1      43.424   2.719  11.471  0.00  0.00    +0.000 C 
ATOM     16  C   UNL     1      44.664   4.317   9.927  0.00  0.00    +0.000 A 
ATOM     17  C   UNL     1      45.435   4.466   8.758  0.00  0.00    +0.000 A 
ENDBRANCH   9  16
ENDBRANCH   1   9
BRANCH   6  18
ATOM     18  C   UNL     1      47.006   4.428  14.842  0.00  0.00    +0.000 C 
BRANCH  18  19
ATOM     19  O   UNL     1      47.409   3.169  14.309  0.00  0.00    +0.000 OA
ATOM     20  H   UNL     1      48.222   3.367  13.800  0.00  0.00    +0.000 HD
ENDBRANCH  18  19
ENDBRANCH   6  18
TORSDOF 4
ENDMDL
MODEL 2
REMARK VINA RESULT:    -6.354      2.478      3.746
REMARK INTER + INTRA:          -8.067
REMARK INTER:                  -7.641
REMARK INTRA:                  -0.425
REMARK UNBOUND:                -0.413
REMARK  Name = 
REMARK  6 active torsions:
REMARK  status: ('A' for Active; 'I' for Inactive)
REMARK    1  A    between atoms: C_1  and  C_2
REMARK    2  A    between atoms: C_5  and  C_6
REMARK    3  A    between atoms: C_7  and  C_8
REMARK    4  A    between atoms: C_8  and  N_9
REMARK    5  A    between atoms: CA_14  and  C_15
REMARK    6  A    between atoms: C_15  and  O_16
REMARK                            x       y       z     vdW  Elec       q    Type
REMARK                         _______ _______ _______ _____ _____    ______ ____
ROOT
ATOM      1  N   UNL     1      44.887   2.778  10.962  0.00  0.00    +0.000 N 
ATOM      2  C   UNL     1      45.149   3.952  11.686  0.00  0.00    +0.000 A 
ATOM      3  C   UNL     1      45.695   3.800  12.961  0.00  0.00    +0.000 A 
ATOM      4  C   UNL     1      45.972   4.920  13.737  0.00  0.00    +0.000 A 
ATOM      5  C   UNL     1      45.685   6.177  13.231  0.00  0.00    +0.000 A 
ATOM      6  CA  UNL     1      45.141   6.266  11.954  0.00  0.00    +0.000 A 
ATOM      7  N   UNL     1      44.886   5.172  11.173  0.00  0.00    +0.000 NA
ATOM      8  H   UNL     1      44.257   2.194  11.507  0.00  0.00    +0.000 HD
ENDROOT
BRANCH   1   9
ATOM      9  C   UNL     1      44.415   2.942   9.592  0.00  0.00    +0.000 C 
BRANCH   9  16
ATOM     10  C   UNL     1      46.894  -0.876   7.408  0.00  0.00    +0.000 C 
ATOM     11  C   UNL     1      46.671   0.591   7.596  0.00  0.00    +0.000 A 
ATOM     12  C   UNL     1      47.437   1.532   6.929  0.00  0.00    +0.000 A 
ATOM     13  N   UNL     1      47.283   2.865   7.063  0.00  0.00    +0.000 NA
ATOM     14  C   UNL     1      46.319   3.314   7.908  0.00  0.00    +0.000 A 
ATOM     15  C   UNL     1      46.222   4.809   8.005  0.00  0.00    +0.000 C 
ATOM     16  C   UNL     1      45.484   2.455   8.632  0.00  0.00    +0.000 A 
ATOM     17  C   UNL     1      45.681   1.071   8.457  0.00  0.00    +0.000 A 
ENDBRANCH   9  16
ENDBRANCH   1   9
BRANCH   6  18
ATOM     18  C   UNL     1      44.762   7.626  11.406  0.00  0.00    +0.000 C 
BRANCH  18  19
ATOM     19  O   UNL     1      43.381   7.682  11.057  0.00  0.00    +0.000 OA
ATOM     20  H   UNL     1      43.002   8.349  11.666  0.00  0.00    +0.000 HD
ENDBRANCH  18  19
ENDBRANCH   6  18
TORSDOF 4
ENDMDL
MODEL 3
REMARK VINA RESULT:    -6.312      1.586      5.454
REMARK INTER + INTRA:          -8.016
REMARK INTER:                  -7.526
REMARK INTRA:                  -0.490
REMARK UNBOUND:                -0.413
REMARK  Name = 
REMARK  6 active torsions:
REMARK  status: ('A' for Active; 'I' for Inactive)
REMARK    1  A    between atoms: C_1  and  C_2
REMARK    2  A    between atoms: C_5  and  C_6
REMARK    3  A    between atoms: C_7  and  C_8
REMARK    4  A    between atoms: C_8  and  N_9
REMARK    5  A    between atoms: CA_14  and  C_15
REMARK    6  A    between atoms: C_15  and  O_16
REMARK                            x       y       z     vdW  Elec       q    Type
REMARK                         _______ _______ _______ _____ _____    ______ ____
ROOT
ATOM      1  N   UNL     1      45.693   6.198  10.072  0.00  0.00    +0.000 N 
ATOM      2  C   UNL     1      45.247   4.887   9.836  0.00  0.00    +0.000 A 
ATOM      3  C   UNL     1      45.531   4.338   8.586  0.00  0.00    +0.000 A 
ATOM      4  C   UNL     1      45.111   3.048   8.281  0.00  0.00    +0.000 A 
ATOM      5  C   UNL     1      44.399   2.330   9.229  0.00  0.00    +0.000 A 
ATOM      6  CA  UNL     1      44.146   2.931  10.457  0.00  0.00    +0.000 A 
ATOM      7  N   UNL     1      44.574   4.191  10.776  0.00  0.00    +0.000 NA
ATOM      8  H   UNL     1      45.296   6.808   9.362  0.00  0.00    +0.000 HD
ENDROOT
BRANCH   1   9
ATOM      9  C   UNL     1      45.488   6.731  11.413  0.00  0.00    +0.000 C 
BRANCH   9  16
ATOM     10  C   UNL     1      50.027   8.898  11.847  0.00  0.00    +0.000 C 
ATOM     11  C   UNL     1      49.016   7.895  12.304  0.00  0.00    +0.000 A 
ATOM     12  C   UNL     1      49.276   7.031  13.354  0.00  0.00    +0.000 A 
ATOM     13  N   UNL     1      48.405   6.107  13.806  0.00  0.00    +0.000 NA
ATOM     14  C   UNL     1      47.198   6.013  13.190  0.00  0.00    +0.000 A 
ATOM     15  C   UNL     1      46.294   4.953  13.749  0.00  0.00    +0.000 C 
ATOM     16  C   UNL     1      46.825   6.836  12.122  0.00  0.00    +0.000 A 
ATOM     17  C   UNL     1      47.768   7.788  11.687  0.00  0.00    +0.000 A 
ENDBRANCH   9  16
ENDBRANCH   1   9
BRANCH   6  18
ATOM     18  C   UNL     1      43.318   2.189  11.485  0.00  0.00    +0.000 C 
BRANCH  18  19
ATOM     19  O   UNL     1      43.812   2.400  12.806  0.00  0.00    +0.000 OA
ATOM     20  H   UNL     1      43.480   3.287  13.053  0.00  0.00    +0.000 HD
ENDBRANCH  18  19
ENDBRANCH   6  18
TORSDOF 4
ENDMDL
MODEL 4
REMARK VINA RESULT:    -6.168      2.776      3.446
REMARK INTER + INTRA:          -7.843
REMARK INTER:                  -7.494
REMARK INTRA:                  -0.348
REMARK UNBOUND:                -0.413
REMARK  Name = 
REMARK  6 active torsions:
REMARK  status: ('A' for Active; 'I' for Inactive)
REMARK    1  A    between atoms: C_1  and  C_2
REMARK    2  A    between atoms: C_5  and  C_6
REMARK    3  A    between atoms: C_7  and  C_8
REMARK    4  A    between atoms: C_8  and  N_9
REMARK    5  A    between atoms: CA_14  and  C_15
REMARK    6  A    between atoms: C_15  and  O_16
REMARK                            x       y       z     vdW  Elec       q    Type
REMARK                         _______ _______ _______ _____ _____    ______ ____
ROOT
ATOM      1  N   UNL     1      45.431   6.021  11.690  0.00  0.00    +0.000 N 
ATOM      2  C   UNL     1      45.575   7.413  11.802  0.00  0.00    +0.000 A 
ATOM      3  C   UNL     1      46.762   7.883  12.364  0.00  0.00    +0.000 A 
ATOM      4  C   UNL     1      46.968   9.250  12.514  0.00  0.00    +0.000 A 
ATOM      5  C   UNL     1      45.975  10.129  12.111  0.00  0.00    +0.000 A 
ATOM      6  CA  UNL     1      44.813   9.601  11.558  0.00  0.00    +0.000 A 
ATOM      7  N   UNL     1      44.610   8.258  11.385  0.00  0.00    +0.000 NA
ATOM      8  H   UNL     1      45.527   5.609  12.615  0.00  0.00    +0.000 HD
ENDROOT
BRANCH   1   9
ATOM      9  C   UNL     1      44.238   5.536  11.007  0.00  0.00    +0.000 C 
BRANCH   9  16
ATOM     10  C   UNL     1      46.542   3.654   6.928  0.00  0.00    +0.000 C 
ATOM     11  C   UNL     1      45.719   3.461   8.161  0.00  0.00    +0.000 A 
ATOM     12  C   UNL     1      45.254   2.211   8.533  0.00  0.00    +0.000 A 
ATOM     13  N   UNL     1      44.507   1.978   9.631  0.00  0.00    +0.000 NA
ATOM     14  C   UNL     1      44.186   3.036  10.420  0.00  0.00    +0.000 A 
ATOM     15  C   UNL     1      43.344   2.690  11.614  0.00  0.00    +0.000 C 
ATOM     16  C   UNL     1      44.603   4.343  10.144  0.00  0.00    +0.000 A 
ATOM     17  C   UNL     1      45.384   4.536   8.988  0.00  0.00    +0.000 A 
ENDBRANCH   9  16
ENDBRANCH   1   9
BRANCH   6  18
ATOM     18  C   UNL     1      43.690  10.538  11.167  0.00  0.00    +0.000 C 
BRANCH  18  19
ATOM     19  O   UNL     1      42.787  10.752  12.250  0.00  0.00    +0.000 OA
ATOM     20  H   UNL     1      42.436   9.862  12.456  0.00  0.00    +0.000 HD
ENDBRANCH  18  19
ENDBRANCH   6  18
TORSDOF 4
ENDMDL
MODEL 5
REMARK VINA RESULT:    -5.949      3.128      5.284
REMARK INTER + INTRA:          -7.579
REMARK INTER:                  -7.291
REMARK INTRA:                  -0.288
REMARK UNBOUND:                -0.413
REMARK  Name = 
REMARK  6 active torsions:
REMARK  status: ('A' for Active; 'I' for Inactive)
REMARK    1  A    between atoms: C_1  and  C_2
REMARK    2  A    between atoms: C_5  and  C_6
REMARK    3  A    between atoms: C_7  and  C_8
REMARK    4  A    between atoms: C_8  and  N_9
REMARK    5  A    between atoms: CA_14  and  C_15
REMARK    6  A    between atoms: C_15  and  O_16
REMARK                            x       y       z     vdW  Elec       q    Type
REMARK                         _______ _______ _______ _____ _____    ______ ____
ROOT
ATOM      1  N   UNL     1      46.934   5.089  15.618  0.00  0.00    +0.000 N 
ATOM      2  C   UNL     1      47.754   4.599  16.647  0.00  0.00    +0.000 A 
ATOM      3  C   UNL     1      47.652   5.224  17.890  0.00  0.00    +0.000 A 
ATOM      4  C   UNL     1      48.441   4.796  18.952  0.00  0.00    +0.000 A 
ATOM      5  C   UNL     1      49.333   3.755  18.750  0.00  0.00    +0.000 A 
ATOM      6  CA  UNL     1      49.391   3.171  17.489  0.00  0.00    +0.000 A 
ATOM      7  N   UNL     1      48.603   3.569  16.444  0.00  0.00    +0.000 NA
ATOM      8  H   UNL     1      47.131   6.078  15.490  0.00  0.00    +0.000 HD
ENDROOT
BRANCH   1   9
ATOM      9  C   UNL     1      46.966   4.368  14.351  0.00  0.00    +0.000 C 
BRANCH   9  16
ATOM     10  C   UNL     1      42.634   5.228  11.906  0.00  0.00    +0.000 C 
ATOM     11  C   UNL     1      44.079   5.536  12.138  0.00  0.00    +0.000 A 
ATOM     12  C   UNL     1      44.740   6.507  11.406  0.00  0.00    +0.000 A 
ATOM     13  N   UNL     1      46.040   6.824  11.570  0.00  0.00    +0.000 NA
ATOM     14  C   UNL     1      46.748   6.145  12.510  0.00  0.00    +0.000 A 
ATOM     15  C   UNL     1      48.189   6.553  12.620  0.00  0.00    +0.000 C 
ATOM     16  C   UNL     1      46.184   5.146  13.310  0.00  0.00    +0.000 A 
ATOM     17  C   UNL     1      44.822   4.852  13.104  0.00  0.00    +0.000 A 
ENDBRANCH   9  16
ENDBRANCH   1   9
BRANCH   6  18
ATOM     18  C   UNL     1      50.401   2.073  17.230  0.00  0.00    +0.000 C 
BRANCH  18  19
ATOM     19  O   UNL     1      50.263   1.535  15.917  0.00  0.00    +0.000 OA
ATOM     20  H   UNL     1      49.497   0.929  15.980  0.00  0.00    +0.000 HD
ENDBRANCH  18  19
ENDBRANCH   6  18
TORSDOF 4
ENDMDL
MODEL 6
REMARK VINA RESULT:    -5.865      3.019      5.011
REMARK INTER + INTRA:          -7.478
REMARK INTER:                  -7.173
REMARK INTRA:                  -0.305
REMARK UNBOUND:                -0.413
REMARK  Name = 
REMARK  6 active torsions:
REMARK  status: ('A' for Active; 'I' for Inactive)
REMARK    1  A    between atoms: C_1  and  C_2
REMARK    2  A    between atoms: C_5  and  C_6
REMARK    3  A    between atoms: C_7  and  C_8
REMARK    4  A    between atoms: C_8  and  N_9
REMARK    5  A    between atoms: CA_14  and  C_15
REMARK    6  A    between atoms: C_15  and  O_16
REMARK                            x       y       z     vdW  Elec       q    Type
REMARK                         _______ _______ _______ _____ _____    ______ ____
ROOT
ATOM      1  N   UNL     1      46.612   4.274  15.196  0.00  0.00    +0.000 N 
ATOM      2  C   UNL     1      47.583   4.230  16.210  0.00  0.00    +0.000 A 
ATOM      3  C   UNL     1      47.381   3.312  17.240  0.00  0.00    +0.000 A 
ATOM      4  C   UNL     1      48.298   3.221  18.281  0.00  0.00    +0.000 A 
ATOM      5  C   UNL     1      49.399   4.062  18.284  0.00  0.00    +0.000 A 
ATOM      6  CA  UNL     1      49.547   4.957  17.230  0.00  0.00    +0.000 A 
ATOM      7  N   UNL     1      48.663   5.039  16.188  0.00  0.00    +0.000 NA
ATOM      8  H   UNL     1      45.709   4.470  15.620  0.00  0.00    +0.000 HD
ENDROOT
BRANCH   1   9
ATOM      9  C   UNL     1      46.879   5.159  14.068  0.00  0.00    +0.000 C 
BRANCH   9  16
ATOM     10  C   UNL     1      43.274   2.649  11.578  0.00  0.00    +0.000 C 
ATOM     11  C   UNL     1      43.948   3.933  11.946  0.00  0.00    +0.000 A 
ATOM     12  C   UNL     1      43.514   5.148  11.443  0.00  0.00    +0.000 A 
ATOM     13  N   UNL     1      44.084   6.334  11.737  0.00  0.00    +0.000 NA
ATOM     14  C   UNL     1      45.153   6.338  12.575  0.00  0.00    +0.000 A 
ATOM     15  C   UNL     1      45.733   7.698  12.840  0.00  0.00    +0.000 C 
ATOM     16  C   UNL     1      45.675   5.171  13.145  0.00  0.00    +0.000 A 
ATOM     17  C   UNL     1      45.045   3.957  12.810  0.00  0.00    +0.000 A 
ENDBRANCH   9  16
ENDBRANCH   1   9
BRANCH   6  18
ATOM     18  C   UNL     1      50.710   5.927  17.243  0.00  0.00    +0.000 C 
BRANCH  18  19
ATOM     19  O   UNL     1      51.155   6.228  15.923  0.00  0.00    +0.000 OA
ATOM     20  H   UNL     1      50.581   6.965  15.632  0.00  0.00    +0.000 HD
ENDBRANCH  18  19
ENDBRANCH   6  18
TORSDOF 4
ENDMDL
MODEL 7
REMARK VINA RESULT:    -5.820      3.587      7.642
REMARK INTER + INTRA:          -7.423
REMARK INTER:                  -7.129
REMARK INTRA:                  -0.294
REMARK UNBOUND:                -0.413
REMARK  Name = 
REMARK  6 active torsions:
REMARK  status: ('A' for Active; 'I' for Inactive)
REMARK    1  A    between atoms: C_1  and  C_2
REMARK    2  A    between atoms: C_5  and  C_6
REMARK    3  A    between atoms: C_7  and  C_8
REMARK    4  A    between atoms: C_8  and  N_9
REMARK    5  A    between atoms: CA_14  and  C_15
REMARK    6  A    between atoms: C_15  and  O_16
REMARK                            x       y       z     vdW  Elec       q    Type
REMARK                         _______ _______ _______ _____ _____    ______ ____
ROOT
ATOM      1  N   UNL     1      47.258   5.030  15.068  0.00  0.00    +0.000 N 
ATOM      2  C   UNL     1      46.514   5.007  13.877  0.00  0.00    +0.000 A 
ATOM      3  C   UNL     1      46.753   6.034  12.963  0.00  0.00    +0.000 A 
ATOM      4  C   UNL     1      46.046   6.078  11.766  0.00  0.00    +0.000 A 
ATOM      5  C   UNL     1      45.098   5.101  11.507  0.00  0.00    +0.000 A 
ATOM      6  CA  UNL     1      44.905   4.103  12.457  0.00  0.00    +0.000 A 
ATOM      7  N   UNL     1      45.611   4.036  13.627  0.00  0.00    +0.000 NA
ATOM      8  H   UNL     1      47.089   5.915  15.538  0.00  0.00    +0.000 HD
ENDROOT
BRANCH   1   9
ATOM      9  C   UNL     1      47.084   3.900  15.974  0.00  0.00    +0.000 C 
BRANCH   9  16
ATOM     10  C   UNL     1      47.496   6.662  20.180  0.00  0.00    +0.000 C 
ATOM     11  C   UNL     1      47.974   5.548  19.304  0.00  0.00    +0.000 A 
ATOM     12  C   UNL     1      49.073   4.778  19.645  0.00  0.00    +0.000 A 
ATOM     13  N   UNL     1      49.549   3.765  18.894  0.00  0.00    +0.000 NA
ATOM     14  C   UNL     1      48.914   3.483  17.727  0.00  0.00    +0.000 A 
ATOM     15  C   UNL     1      49.515   2.349  16.948  0.00  0.00    +0.000 C 
ATOM     16  C   UNL     1      47.792   4.192  17.283  0.00  0.00    +0.000 A 
ATOM     17  C   UNL     1      47.330   5.240  18.103  0.00  0.00    +0.000 A 
ENDBRANCH   9  16
ENDBRANCH   1   9
BRANCH   6  18
ATOM     18  C   UNL     1      43.832   3.060  12.222  0.00  0.00    +0.000 C 
BRANCH  18  19
ATOM     19  O   UNL     1      42.772   3.571  11.418  0.00  0.00    +0.000 OA
ATOM     20  H   UNL     1      42.968   3.244  10.517  0.00  0.00    +0.000 HD
ENDBRANCH  18  19
ENDBRANCH   6  18
TORSDOF 4
ENDMDL
MODEL 8
REMARK VINA RESULT:    -5.629      2.919      4.979
REMARK INTER + INTRA:          -7.193
REMARK INTER:                  -6.873
REMARK INTRA:                  -0.320
REMARK UNBOUND:                -0.413
REMARK  Name = 
REMARK  6 active torsions:
REMARK  status: ('A' for Active; 'I' for Inactive)
REMARK    1  A    between atoms: C_1  and  C_2
REMARK    2  A    between atoms: C_5  and  C_6
REMARK    3  A    between atoms: C_7  and  C_8
REMARK    4  A    between atoms: C_8  and  N_9
REMARK    5  A    between atoms: CA_14  and  C_15
REMARK    6  A    between atoms: C_15  and  O_16
REMARK                            x       y       z     vdW  Elec       q    Type
REMARK                         _______ _______ _______ _____ _____    ______ ____
ROOT
ATOM      1  N   UNL     1      47.581   5.937  15.164  0.00  0.00    +0.000 N 
ATOM      2  C   UNL     1      48.303   5.389  16.238  0.00  0.00    +0.000 A 
ATOM      3  C   UNL     1      48.633   6.252  17.283  0.00  0.00    +0.000 A 
ATOM      4  C   UNL     1      49.355   5.779  18.374  0.00  0.00    +0.000 A 
ATOM      5  C   UNL     1      49.749   4.451  18.396  0.00  0.00    +0.000 A 
ATOM      6  CA  UNL     1      49.391   3.640  17.324  0.00  0.00    +0.000 A 
ATOM      7  N   UNL     1      48.661   4.089  16.257  0.00  0.00    +0.000 NA
ATOM      8  H   UNL     1      48.114   6.712  14.778  0.00  0.00    +0.000 HD
ENDROOT
BRANCH   1   9
ATOM      9  C   UNL     1      47.147   5.012  14.124  0.00  0.00    +0.000 C 
BRANCH   9  16
ATOM     10  C   UNL     1      45.436   9.335  12.157  0.00  0.00    +0.000 C 
ATOM     11  C   UNL     1      45.413   7.842  12.231  0.00  0.00    +0.000 A 
ATOM     12  C   UNL     1      44.550   7.091  11.452  0.00  0.00    +0.000 A 
ATOM     13  N   UNL     1      44.484   5.745  11.479  0.00  0.00    +0.000 NA
ATOM     14  C   UNL     1      45.313   5.083  12.328  0.00  0.00    +0.000 A 
ATOM     15  C   UNL     1      45.167   3.588  12.302  0.00  0.00    +0.000 C 
ATOM     16  C   UNL     1      46.228   5.737  13.160  0.00  0.00    +0.000 A 
ATOM     17  C   UNL     1      46.262   7.143  13.094  0.00  0.00    +0.000 A 
ENDBRANCH   9  16
ENDBRANCH   1   9
BRANCH   6  18
ATOM     18  C   UNL     1      49.863   2.201  17.298  0.00  0.00    +0.000 C 
BRANCH  18  19
ATOM     19  O   UNL     1      49.826   1.663  15.978  0.00  0.00    +0.000 OA
ATOM     20  H   UNL     1      49.256   0.871  16.052  0.00  0.00    +0.000 HD
ENDBRANCH  18  19
ENDBRANCH   6  18
TORSDOF 4
ENDMDL
MODEL 9
REMARK VINA RESULT:    -5.509      2.526      6.311
REMARK INTER + INTRA:          -7.049
REMARK INTER:                  -6.644
REMARK INTRA:                  -0.404
REMARK UNBOUND:                -0.413
REMARK  Name = 
REMARK  6 active torsions:
REMARK  status: ('A' for Active; 'I' for Inactive)
REMARK    1  A    between atoms: C_1  and  C_2
REMARK    2  A    between atoms: C_5  and  C_6
REMARK    3  A    between atoms: C_7  and  C_8
REMARK    4  A    between atoms: C_8  and  N_9
REMARK    5  A    between atoms: CA_14  and  C_15
REMARK    6  A    between atoms: C_15  and  O_16
REMARK                            x       y       z     vdW  Elec       q    Type
REMARK                         _______ _______ _______ _____ _____    ______ ____
ROOT
ATOM      1  N   UNL     1      44.157   6.504  12.664  0.00  0.00    +0.000 N 
ATOM      2  C   UNL     1      44.068   5.295  11.956  0.00  0.00    +0.000 A 
ATOM      3  C   UNL     1      43.649   4.173  12.671  0.00  0.00    +0.000 A 
ATOM      4  C   UNL     1      43.547   2.940  12.035  0.00  0.00    +0.000 A 
ATOM      5  C   UNL     1      43.880   2.846  10.693  0.00  0.00    +0.000 A 
ATOM      6  CA  UNL     1      44.291   3.999  10.033  0.00  0.00    +0.000 A 
ATOM      7  N   UNL     1      44.373   5.221  10.644  0.00  0.00    +0.000 NA
ATOM      8  H   UNL     1      44.792   6.375  13.448  0.00  0.00    +0.000 HD
ENDROOT
BRANCH   1   9
ATOM      9  C   UNL     1      44.493   7.695  11.892  0.00  0.00    +0.000 C 
BRANCH   9  16
ATOM     10  C   UNL     1      48.852   7.067  14.360  0.00  0.00    +0.000 C 
ATOM     11  C   UNL     1      47.903   7.936  13.599  0.00  0.00    +0.000 A 
ATOM     12  C   UNL     1      48.179   9.270  13.355  0.00  0.00    +0.000 A 
ATOM     13  N   UNL     1      47.360  10.101  12.678  0.00  0.00    +0.000 NA
ATOM     14  C   UNL     1      46.188   9.598  12.210  0.00  0.00    +0.000 A 
ATOM     15  C   UNL     1      45.333  10.592  11.478  0.00  0.00    +0.000 C 
ATOM     16  C   UNL     1      45.806   8.265  12.394  0.00  0.00    +0.000 A 
ATOM     17  C   UNL     1      46.696   7.436  13.105  0.00  0.00    +0.000 A 
ENDBRANCH   9  16
ENDBRANCH   1   9
BRANCH   6  18
ATOM     18  C   UNL     1      44.718   3.906   8.583  0.00  0.00    +0.000 C 
BRANCH  18  19
ATOM     19  O   UNL     1      45.608   4.963   8.232  0.00  0.00    +0.000 OA
ATOM     20  H   UNL     1      45.306   5.726   8.767  0.00  0.00    +0.000 HD
ENDBRANCH  18  19
ENDBRANCH   6  18
TORSDOF 4
ENDMDL
