MODEL 1
REMARK VINA RESULT:    -7.139      0.000      0.000
REMARK INTER + INTRA:          -9.802
REMARK INTER:                  -9.435
REMARK INTRA:                  -0.367
REMARK UNBOUND:                -0.367
REMARK  Name = 
REMARK  6 active torsions:
REMARK  status: ('A' for Active; 'I' for Inactive)
REMARK    1  A    between atoms: N_1  and  C_2
REMARK    2  A    between atoms: C_2  and  C_3
REMARK    3  A    between atoms: C_7  and  N_8
REMARK    4  A    between atoms: N_8  and  C_9
REMARK    5  A    between atoms: C_9  and  C_10
REMARK    6  A    between atoms: C_10  and  C_11
REMARK                            x       y       z     vdW  Elec       q    Type
REMARK                         _______ _______ _______ _____ _____    ______ ____
ROOT
ATOM      1  N   UNL     1      43.741   4.497  10.773  0.00  0.00    +0.000 N 
ATOM      2  H   UNL     1      42.898   4.233  11.279  0.00  0.00    +0.000 HD
ENDROOT
BRANCH   1   7
ATOM      3  C   UNL     1      46.302   5.198  13.414  0.00  0.00    +0.000 A 
ATOM      4  C   UNL     1      46.598   6.504  13.044  0.00  0.00    +0.000 A 
ATOM      5  N   UNL     1      46.009   7.148  12.016  0.00  0.00    +0.000 NA
ATOM      6  C   UNL     1      45.075   6.448  11.324  0.00  0.00    +0.000 A 
ATOM      7  C   UNL     1      44.664   5.141  11.605  0.00  0.00    +0.000 A 
ATOM      8  C   UNL     1      45.330   4.521  12.664  0.00  0.00    +0.000 A 
BRANCH   3   9
ATOM      9  C   UNL     1      46.975   4.544  14.586  0.00  0.00    +0.000 C 
BRANCH   9  10
ATOM     10  N   UNL     1      47.390   3.181  14.280  0.00  0.00    +0.000 NA
ATOM     11  H   UNL     1      48.357   3.050  14.573  0.00  0.00    +0.000 HD
ATOM     12  H   UNL     1      47.374   3.046  13.270  0.00  0.00    +0.000 HD
ENDBRANCH   9  10
ENDBRANCH   3   9
ENDBRANCH   1   7
BRANCH   1  13
ATOM     13  C   UNL     1      44.214   3.490   9.824  0.00  0.00    +0.000 C 
BRANCH  13  14
ATOM     14  C   UNL     1      44.974   4.152   8.671  0.00  0.00    +0.000 C 
BRANCH  14  15
ATOM     15  C   UNL     1      45.789   3.151   7.889  0.00  0.00    +0.000 A 
ATOM     16  C   UNL     1      46.454   3.536   6.713  0.00  0.00    +0.000 A 
ATOM     17  C   UNL     1      47.218   2.613   5.994  0.00  0.00    +0.000 A 
ATOM     18  C   UNL     1      47.331   1.299   6.444  0.00  0.00    +0.000 A 
ATOM     19  C   UNL     1      46.683   0.921   7.614  0.00  0.00    +0.000 A 
ATOM     20  F   UNL     1      46.798  -0.340   8.053  0.00  0.00    +0.000 F 
ATOM     21  C   UNL     1      45.920   1.831   8.339  0.00  0.00    +0.000 A 
ENDBRANCH  14  15
ENDBRANCH  13  14
ENDBRANCH   1  13
TORSDOF 6
ENDMDL
MODEL 2
REMARK VINA RESULT:    -7.115      3.129      6.291
REMARK INTER + INTRA:          -9.770
REMARK INTER:                  -9.237
REMARK INTRA:                  -0.533
REMARK UNBOUND:                -0.367
REMARK  Name = 
REMARK  6 active torsions:
REMARK  status: ('A' for Active; 'I' for Inactive)
REMARK    1  A    between atoms: N_1  and  C_2
REMARK    2  A    between atoms: C_2  and  C_3
REMARK    3  A    between atoms: C_7  and  N_8
REMARK    4  A    between atoms: N_8  and  C_9
REMARK    5  A    between atoms: C_9  and  C_10
REMARK    6  A    between atoms: C_10  and  C_11
REMARK                            x       y       z     vdW  Elec       q    Type
REMARK                         _______ _______ _______ _____ _____    ______ ____
ROOT
ATOM      1  N   UNL     1      44.135   2.347  10.428  0.00  0.00    +0.000 N 
ATOM      2  H   UNL     1      43.616   1.523  10.129  0.00  0.00    +0.000 HD
ENDROOT
BRANCH   1   7
ATOM      3  C   UNL     1      46.617   2.444   7.625  0.00  0.00    +0.000 A 
ATOM      4  C   UNL     1      46.570   3.811   7.382  0.00  0.00    +0.000 A 
ATOM      5  N   UNL     1      45.802   4.674   8.078  0.00  0.00    +0.000 NA
ATOM      6  C   UNL     1      45.043   4.140   9.068  0.00  0.00    +0.000 A 
ATOM      7  C   UNL     1      45.016   2.790   9.434  0.00  0.00    +0.000 A 
ATOM      8  C   UNL     1      45.812   1.945   8.659  0.00  0.00    +0.000 A 
BRANCH   3   9
ATOM      9  C   UNL     1      47.513   1.537   6.832  0.00  0.00    +0.000 C 
BRANCH   9  10
ATOM     10  N   UNL     1      48.538   2.281   6.112  0.00  0.00    +0.000 NA
ATOM     11  H   UNL     1      48.584   3.230   6.479  0.00  0.00    +0.000 HD
ATOM     12  H   UNL     1      48.265   2.364   5.134  0.00  0.00    +0.000 HD
ENDBRANCH   9  10
ENDBRANCH   3   9
ENDBRANCH   1   7
BRANCH   1  13
ATOM     13  C   UNL     1      43.341   3.325  11.169  0.00  0.00    +0.000 C 
BRANCH  13  14
ATOM     14  C   UNL     1      43.818   3.416  12.622  0.00  0.00    +0.000 C 
BRANCH  14  15
ATOM     15  C   UNL     1      44.794   4.549  12.821  0.00  0.00    +0.000 A 
ATOM     16  C   UNL     1      46.107   4.293  13.251  0.00  0.00    +0.000 A 
ATOM     17  C   UNL     1      47.015   5.340  13.426  0.00  0.00    +0.000 A 
ATOM     18  C   UNL     1      46.625   6.653  13.166  0.00  0.00    +0.000 A 
ATOM     19  C   UNL     1      45.330   6.906  12.728  0.00  0.00    +0.000 A 
ATOM     20  F   UNL     1      44.957   8.166  12.471  0.00  0.00    +0.000 F 
ATOM     21  C   UNL     1      44.417   5.871  12.551  0.00  0.00    +0.000 A 
ENDBRANCH  14  15
ENDBRANCH  13  14
ENDBRANCH   1  13
TORSDOF 6
ENDMDL
MODEL 3
REMARK VINA RESULT:    -6.898      2.933      6.302
REMARK INTER + INTRA:          -9.484
REMARK INTER:                  -9.046
REMARK INTRA:                  -0.438
REMARK UNBOUND:                -0.367
REMARK  Name = 
REMARK  6 active torsions:
REMARK  status: ('A' for Active; 'I' for Inactive)
REMARK    1  A    between atoms: N_1  and  C_2
REMARK    2  A    between atoms: C_2  and  C_3
REMARK    3  A    between atoms: C_7  and  N_8
REMARK    4  A    between atoms: N_8  and  C_9
REMARK    5  A    between atoms: C_9  and  C_10
REMARK    6  A    between atoms: C_10  and  C_11
REMARK                            x       y       z     vdW  Elec       q    Type
REMARK                         _______ _______ _______ _____ _____    ______ ____
ROOT
ATOM      1  N   UNL     1      44.353   4.656   9.120  0.00  0.00    +0.000 N 
ATOM      2  H   UNL     1      44.880   5.525   9.070  0.00  0.00    +0.000 HD
ENDROOT
BRANCH   1   7
ATOM      3  C   UNL     1      46.605   2.619   6.930  0.00  0.00    +0.000 A 
ATOM      4  C   UNL     1      46.526   1.426   7.638  0.00  0.00    +0.000 A 
ATOM      5  N   UNL     1      45.784   1.260   8.752  0.00  0.00    +0.000 NA
ATOM      6  C   UNL     1      45.086   2.344   9.177  0.00  0.00    +0.000 A 
ATOM      7  C   UNL     1      45.055   3.591   8.545  0.00  0.00    +0.000 A 
ATOM      8  C   UNL     1      45.864   3.707   7.413  0.00  0.00    +0.000 A 
BRANCH   3   9
ATOM      9  C   UNL     1      47.430   2.735   5.680  0.00  0.00    +0.000 C 
BRANCH   9  10
ATOM     10  N   UNL     1      48.421   1.672   5.583  0.00  0.00    +0.000 NA
ATOM     11  H   UNL     1      49.315   2.013   5.931  0.00  0.00    +0.000 HD
ATOM     12  H   UNL     1      48.565   1.438   4.602  0.00  0.00    +0.000 HD
ENDBRANCH   9  10
ENDBRANCH   3   9
ENDBRANCH   1   7
BRANCH   1  13
ATOM     13  C   UNL     1      43.650   4.450  10.386  0.00  0.00    +0.000 C 
BRANCH  13  14
ATOM     14  C   UNL     1      43.784   5.684  11.283  0.00  0.00    +0.000 C 
BRANCH  14  15
ATOM     15  C   UNL     1      45.140   5.754  11.942  0.00  0.00    +0.000 A 
ATOM     16  C   UNL     1      46.099   6.682  11.504  0.00  0.00    +0.000 A 
ATOM     17  C   UNL     1      47.351   6.755  12.121  0.00  0.00    +0.000 A 
ATOM     18  C   UNL     1      47.655   5.908  13.185  0.00  0.00    +0.000 A 
ATOM     19  C   UNL     1      46.702   4.998  13.627  0.00  0.00    +0.000 A 
ATOM     20  F   UNL     1      46.991   4.188  14.655  0.00  0.00    +0.000 F 
ATOM     21  C   UNL     1      45.452   4.916  13.021  0.00  0.00    +0.000 A 
ENDBRANCH  14  15
ENDBRANCH  13  14
ENDBRANCH   1  13
TORSDOF 6
ENDMDL
MODEL 4
REMARK VINA RESULT:    -6.819      1.499      2.611
REMARK INTER + INTRA:          -9.380
REMARK INTER:                  -8.969
REMARK INTRA:                  -0.410
REMARK UNBOUND:                -0.367
REMARK  Name = 
REMARK  6 active torsions:
REMARK  status: ('A' for Active; 'I' for Inactive)
REMARK    1  A    between atoms: N_1  and  C_2
REMARK    2  A    between atoms: C_2  and  C_3
REMARK    3  A    between atoms: C_7  and  N_8
REMARK    4  A    between atoms: N_8  and  C_9
REMARK    5  A    between atoms: C_9  and  C_10
REMARK    6  A    between atoms: C_10  and  C_11
REMARK                            x       y       z     vdW  Elec       q    Type
REMARK                         _______ _______ _______ _____ _____    ______ ____
ROOT
ATOM      1  N   UNL     1      43.656   4.190  10.600  0.00  0.00    +0.000 N 
ATOM      2  H   UNL     1      42.832   3.871  11.106  0.00  0.00    +0.000 HD
ENDROOT
BRANCH   1   7
ATOM      3  C   UNL     1      45.468   6.875  12.477  0.00  0.00    +0.000 A 
ATOM      4  C   UNL     1      46.247   6.050  13.279  0.00  0.00    +0.000 A 
ATOM      5  N   UNL     1      46.217   4.702  13.225  0.00  0.00    +0.000 NA
ATOM      6  C   UNL     1      45.365   4.155  12.321  0.00  0.00    +0.000 A 
ATOM      7  C   UNL     1      44.548   4.868  11.438  0.00  0.00    +0.000 A 
ATOM      8  C   UNL     1      44.605   6.257  11.561  0.00  0.00    +0.000 A 
BRANCH   3   9
ATOM      9  C   UNL     1      45.565   8.371  12.566  0.00  0.00    +0.000 C 
BRANCH   9  10
ATOM     10  N   UNL     1      46.349   8.797  13.718  0.00  0.00    +0.000 NA
ATOM     11  H   UNL     1      47.309   8.473  13.609  0.00  0.00    +0.000 HD
ATOM     12  H   UNL     1      45.986   8.342  14.554  0.00  0.00    +0.000 HD
ENDBRANCH   9  10
ENDBRANCH   3   9
ENDBRANCH   1   7
BRANCH   1  13
ATOM     13  C   UNL     1      44.175   3.229   9.628  0.00  0.00    +0.000 C 
BRANCH  13  14
ATOM     14  C   UNL     1      45.063   3.933   8.597  0.00  0.00    +0.000 C 
BRANCH  14  15
ATOM     15  C   UNL     1      45.911   2.951   7.825  0.00  0.00    +0.000 A 
ATOM     16  C   UNL     1      46.080   1.636   8.288  0.00  0.00    +0.000 A 
ATOM     17  C   UNL     1      46.856   0.723   7.569  0.00  0.00    +0.000 A 
ATOM     18  C   UNL     1      47.465   1.111   6.377  0.00  0.00    +0.000 A 
ATOM     19  C   UNL     1      47.288   2.409   5.912  0.00  0.00    +0.000 A 
ATOM     20  F   UNL     1      47.867   2.782   4.762  0.00  0.00    +0.000 F 
ATOM     21  C   UNL     1      46.518   3.327   6.620  0.00  0.00    +0.000 A 
ENDBRANCH  14  15
ENDBRANCH  13  14
ENDBRANCH   1  13
TORSDOF 6
ENDMDL
MODEL 5
REMARK VINA RESULT:    -6.408      1.339      2.408
REMARK INTER + INTRA:          -8.836
REMARK INTER:                  -8.286
REMARK INTRA:                  -0.550
REMARK UNBOUND:                -0.367
REMARK  Name = 
REMARK  6 active torsions:
REMARK  status: ('A' for Active; 'I' for Inactive)
REMARK    1  A    between atoms: N_1  and  C_2
REMARK    2  A    between atoms: C_2  and  C_3
REMARK    3  A    between atoms: C_7  and  N_8
REMARK    4  A    between atoms: N_8  and  C_9
REMARK    5  A    between atoms: C_9  and  C_10
REMARK    6  A    between atoms: C_10  and  C_11
REMARK                            x       y       z     vdW  Elec       q    Type
REMARK                         _______ _______ _______ _____ _____    ______ ____
ROOT
ATOM      1  N   UNL     1      44.444   4.025  12.015  0.00  0.00    +0.000 N 
ATOM      2  H   UNL     1      44.353   3.102  12.436  0.00  0.00    +0.000 HD
ENDROOT
BRANCH   1   7
ATOM      3  C   UNL     1      47.177   6.544  12.470  0.00  0.00    +0.000 A 
ATOM      4  C   UNL     1      47.808   5.941  13.550  0.00  0.00    +0.000 A 
ATOM      5  N   UNL     1      47.404   4.782  14.108  0.00  0.00    +0.000 NA
ATOM      6  C   UNL     1      46.312   4.196  13.554  0.00  0.00    +0.000 A 
ATOM      7  C   UNL     1      45.601   4.680  12.452  0.00  0.00    +0.000 A 
ATOM      8  C   UNL     1      46.053   5.897  11.937  0.00  0.00    +0.000 A 
BRANCH   3   9
ATOM      9  C   UNL     1      47.690   7.824  11.876  0.00  0.00    +0.000 C 
BRANCH   9  10
ATOM     10  N   UNL     1      49.091   7.719  11.489  0.00  0.00    +0.000 NA
ATOM     11  H   UNL     1      49.322   6.740  11.325  0.00  0.00    +0.000 HD
ATOM     12  H   UNL     1      49.675   8.025  12.266  0.00  0.00    +0.000 HD
ENDBRANCH   9  10
ENDBRANCH   3   9
ENDBRANCH   1   7
BRANCH   1  13
ATOM     13  C   UNL     1      44.081   4.079  10.600  0.00  0.00    +0.000 C 
BRANCH  13  14
ATOM     14  C   UNL     1      44.247   2.703   9.948  0.00  0.00    +0.000 C 
BRANCH  14  15
ATOM     15  C   UNL     1      45.282   2.724   8.850  0.00  0.00    +0.000 A 
ATOM     16  C   UNL     1      45.665   3.937   8.254  0.00  0.00    +0.000 A 
ATOM     17  C   UNL     1      46.632   3.959   7.245  0.00  0.00    +0.000 A 
ATOM     18  C   UNL     1      47.231   2.773   6.825  0.00  0.00    +0.000 A 
ATOM     19  C   UNL     1      46.861   1.574   7.424  0.00  0.00    +0.000 A 
ATOM     20  F   UNL     1      47.442   0.433   7.027  0.00  0.00    +0.000 F 
ATOM     21  C   UNL     1      45.900   1.539   8.429  0.00  0.00    +0.000 A 
ENDBRANCH  14  15
ENDBRANCH  13  14
ENDBRANCH   1  13
TORSDOF 6
ENDMDL
MODEL 6
REMARK VINA RESULT:    -6.282      1.609      3.088
REMARK INTER + INTRA:          -8.669
REMARK INTER:                  -8.181
REMARK INTRA:                  -0.488
REMARK UNBOUND:                -0.367
REMARK  Name = 
REMARK  6 active torsions:
REMARK  status: ('A' for Active; 'I' for Inactive)
REMARK    1  A    between atoms: N_1  and  C_2
REMARK    2  A    between atoms: C_2  and  C_3
REMARK    3  A    between atoms: C_7  and  N_8
REMARK    4  A    between atoms: N_8  and  C_9
REMARK    5  A    between atoms: C_9  and  C_10
REMARK    6  A    between atoms: C_10  and  C_11
REMARK                            x       y       z     vdW  Elec       q    Type
REMARK                         _______ _______ _______ _____ _____    ______ ____
ROOT
ATOM      1  N   UNL     1      44.330   4.634  12.767  0.00  0.00    +0.000 N 
ATOM      2  H   UNL     1      44.320   4.421  13.762  0.00  0.00    +0.000 HD
ENDROOT
BRANCH   1   7
ATOM      3  C   UNL     1      45.127   8.165  11.809  0.00  0.00    +0.000 A 
ATOM      4  C   UNL     1      46.459   8.169  12.204  0.00  0.00    +0.000 A 
ATOM      5  N   UNL     1      47.090   7.104  12.738  0.00  0.00    +0.000 NA
ATOM      6  C   UNL     1      46.348   5.976  12.881  0.00  0.00    +0.000 A 
ATOM      7  C   UNL     1      45.010   5.828  12.501  0.00  0.00    +0.000 A 
ATOM      8  C   UNL     1      44.407   6.974  11.981  0.00  0.00    +0.000 A 
BRANCH   3   9
ATOM      9  C   UNL     1      44.486   9.378  11.197  0.00  0.00    +0.000 C 
BRANCH   9  10
ATOM     10  N   UNL     1      43.913  10.257  12.208  0.00  0.00    +0.000 NA
ATOM     11  H   UNL     1      42.943   9.993  12.371  0.00  0.00    +0.000 HD
ATOM     12  H   UNL     1      43.896  11.210  11.849  0.00  0.00    +0.000 HD
ENDBRANCH   9  10
ENDBRANCH   3   9
ENDBRANCH   1   7
BRANCH   1  13
ATOM     13  C   UNL     1      44.554   3.475  11.904  0.00  0.00    +0.000 C 
BRANCH  13  14
ATOM     14  C   UNL     1      43.927   3.701  10.525  0.00  0.00    +0.000 C 
BRANCH  14  15
ATOM     15  C   UNL     1      44.874   3.327   9.411  0.00  0.00    +0.000 A 
ATOM     16  C   UNL     1      45.439   4.319   8.592  0.00  0.00    +0.000 A 
ATOM     17  C   UNL     1      46.325   3.975   7.568  0.00  0.00    +0.000 A 
ATOM     18  C   UNL     1      46.661   2.639   7.354  0.00  0.00    +0.000 A 
ATOM     19  C   UNL     1      46.111   1.659   8.171  0.00  0.00    +0.000 A 
ATOM     20  F   UNL     1      46.438   0.375   7.972  0.00  0.00    +0.000 F 
ATOM     21  C   UNL     1      45.228   1.989   9.195  0.00  0.00    +0.000 A 
ENDBRANCH  14  15
ENDBRANCH  13  14
ENDBRANCH   1  13
TORSDOF 6
ENDMDL
MODEL 7
REMARK VINA RESULT:    -6.121      1.869      3.168
REMARK INTER + INTRA:          -8.457
REMARK INTER:                  -8.179
REMARK INTRA:                  -0.278
REMARK UNBOUND:                -0.367
REMARK  Name = 
REMARK  6 active torsions:
REMARK  status: ('A' for Active; 'I' for Inactive)
REMARK    1  A    between atoms: N_1  and  C_2
REMARK    2  A    between atoms: C_2  and  C_3
REMARK    3  A    between atoms: C_7  and  N_8
REMARK    4  A    between atoms: N_8  and  C_9
REMARK    5  A    between atoms: C_9  and  C_10
REMARK    6  A    between atoms: C_10  and  C_11
REMARK                            x       y       z     vdW  Elec       q    Type
REMARK                         _______ _______ _______ _____ _____    ______ ____
ROOT
ATOM      1  N   UNL     1      45.372   3.182  12.236  0.00  0.00    +0.000 N 
ATOM      2  H   UNL     1      45.821   2.806  11.403  0.00  0.00    +0.000 HD
ENDROOT
BRANCH   1   7
ATOM      3  C   UNL     1      46.861   6.485  13.186  0.00  0.00    +0.000 A 
ATOM      4  C   UNL     1      47.627   6.043  14.257  0.00  0.00    +0.000 A 
ATOM      5  N   UNL     1      47.688   4.757  14.660  0.00  0.00    +0.000 NA
ATOM      6  C   UNL     1      46.944   3.869  13.952  0.00  0.00    +0.000 A 
ATOM      7  C   UNL     1      46.153   4.175  12.840  0.00  0.00    +0.000 A 
ATOM      8  C   UNL     1      46.111   5.526  12.490  0.00  0.00    +0.000 A 
BRANCH   3   9
ATOM      9  C   UNL     1      46.853   7.927  12.769  0.00  0.00    +0.000 C 
BRANCH   9  10
ATOM     10  N   UNL     1      46.565   8.814  13.889  0.00  0.00    +0.000 NA
ATOM     11  H   UNL     1      45.556   8.913  13.987  0.00  0.00    +0.000 HD
ATOM     12  H   UNL     1      46.926   9.744  13.679  0.00  0.00    +0.000 HD
ENDBRANCH   9  10
ENDBRANCH   3   9
ENDBRANCH   1   7
BRANCH   1  13
ATOM     13  C   UNL     1      43.931   3.387  12.104  0.00  0.00    +0.000 C 
BRANCH  13  14
ATOM     14  C   UNL     1      43.585   3.895  10.701  0.00  0.00    +0.000 C 
BRANCH  14  15
ATOM     15  C   UNL     1      44.548   3.372   9.663  0.00  0.00    +0.000 A 
ATOM     16  C   UNL     1      44.649   1.993   9.415  0.00  0.00    +0.000 A 
ATOM     17  C   UNL     1      45.532   1.508   8.447  0.00  0.00    +0.000 A 
ATOM     18  C   UNL     1      46.317   2.394   7.711  0.00  0.00    +0.000 A 
ATOM     19  C   UNL     1      46.208   3.759   7.948  0.00  0.00    +0.000 A 
ATOM     20  F   UNL     1      46.957   4.613   7.236  0.00  0.00    +0.000 F 
ATOM     21  C   UNL     1      45.333   4.254   8.909  0.00  0.00    +0.000 A 
ENDBRANCH  14  15
ENDBRANCH  13  14
ENDBRANCH   1  13
TORSDOF 6
ENDMDL
MODEL 8
REMARK VINA RESULT:    -6.117      1.637      2.264
REMARK INTER + INTRA:          -8.451
REMARK INTER:                  -7.899
REMARK INTRA:                  -0.551
REMARK UNBOUND:                -0.367
REMARK  Name = 
REMARK  6 active torsions:
REMARK  status: ('A' for Active; 'I' for Inactive)
REMARK    1  A    between atoms: N_1  and  C_2
REMARK    2  A    between atoms: C_2  and  C_3
REMARK    3  A    between atoms: C_7  and  N_8
REMARK    4  A    between atoms: N_8  and  C_9
REMARK    5  A    between atoms: C_9  and  C_10
REMARK    6  A    between atoms: C_10  and  C_11
REMARK                            x       y       z     vdW  Elec       q    Type
REMARK                         _______ _______ _______ _____ _____    ______ ____
ROOT
ATOM      1  N   UNL     1      43.925   4.916  12.880  0.00  0.00    +0.000 N 
ATOM      2  H   UNL     1      43.603   4.831  13.842  0.00  0.00    +0.000 HD
ENDROOT
BRANCH   1   7
ATOM      3  C   UNL     1      46.924   7.156  12.999  0.00  0.00    +0.000 A 
ATOM      4  C   UNL     1      46.447   8.149  12.154  0.00  0.00    +0.000 A 
ATOM      5  N   UNL     1      45.228   8.128  11.578  0.00  0.00    +0.000 NA
ATOM      6  C   UNL     1      44.446   7.057  11.865  0.00  0.00    +0.000 A 
ATOM      7  C   UNL     1      44.790   6.004  12.718  0.00  0.00    +0.000 A 
ATOM      8  C   UNL     1      46.074   6.071  13.262  0.00  0.00    +0.000 A 
BRANCH   3   9
ATOM      9  C   UNL     1      48.283   7.248  13.631  0.00  0.00    +0.000 C 
BRANCH   9  10
ATOM     10  N   UNL     1      49.275   6.472  12.899  0.00  0.00    +0.000 NA
ATOM     11  H   UNL     1      49.311   5.528  13.279  0.00  0.00    +0.000 HD
ATOM     12  H   UNL     1      50.196   6.879  13.053  0.00  0.00    +0.000 HD
ENDBRANCH   9  10
ENDBRANCH   3   9
ENDBRANCH   1   7
BRANCH   1  13
ATOM     13  C   UNL     1      44.249   3.642  12.239  0.00  0.00    +0.000 C 
BRANCH  13  14
ATOM     14  C   UNL     1      43.532   3.520  10.891  0.00  0.00    +0.000 C 
BRANCH  14  15
ATOM     15  C   UNL     1      44.503   3.297   9.757  0.00  0.00    +0.000 A 
ATOM     16  C   UNL     1      45.041   4.388   9.054  0.00  0.00    +0.000 A 
ATOM     17  C   UNL     1      45.949   4.184   8.012  0.00  0.00    +0.000 A 
ATOM     18  C   UNL     1      46.334   2.890   7.665  0.00  0.00    +0.000 A 
ATOM     19  C   UNL     1      45.810   1.811   8.368  0.00  0.00    +0.000 A 
ATOM     20  F   UNL     1      46.185   0.567   8.040  0.00  0.00    +0.000 F 
ATOM     21  C   UNL     1      44.906   2.002   9.408  0.00  0.00    +0.000 A 
ENDBRANCH  14  15
ENDBRANCH  13  14
ENDBRANCH   1  13
TORSDOF 6
ENDMDL
MODEL 9
REMARK VINA RESULT:    -5.854      3.888      7.763
REMARK INTER + INTRA:          -8.103
REMARK INTER:                  -7.807
REMARK INTRA:                  -0.296
REMARK UNBOUND:                -0.367
REMARK  Name = 
REMARK  6 active torsions:
REMARK  status: ('A' for Active; 'I' for Inactive)
REMARK    1  A    between atoms: N_1  and  C_2
REMARK    2  A    between atoms: C_2  and  C_3
REMARK    3  A    between atoms: C_7  and  N_8
REMARK    4  A    between atoms: N_8  and  C_9
REMARK    5  A    between atoms: C_9  and  C_10
REMARK    6  A    between atoms: C_10  and  C_11
REMARK                            x       y       z     vdW  Elec       q    Type
REMARK                         _______ _______ _______ _____ _____    ______ ____
ROOT
ATOM      1  N   UNL     1      46.953   3.506  14.548  0.00  0.00    +0.000 N 
ATOM      2  H   UNL     1      46.434   2.649  14.730  0.00  0.00    +0.000 HD
ENDROOT
BRANCH   1   7
ATOM      3  C   UNL     1      44.973   4.423  11.505  0.00  0.00    +0.000 A 
ATOM      4  C   UNL     1      45.525   5.680  11.295  0.00  0.00    +0.000 A 
ATOM      5  N   UNL     1      46.491   6.218  12.068  0.00  0.00    +0.000 NA
ATOM      6  C   UNL     1      46.927   5.455  13.103  0.00  0.00    +0.000 A 
ATOM      7  C   UNL     1      46.478   4.166  13.409  0.00  0.00    +0.000 A 
ATOM      8  C   UNL     1      45.460   3.677  12.588  0.00  0.00    +0.000 A 
BRANCH   3   9
ATOM      9  C   UNL     1      43.917   3.868  10.593  0.00  0.00    +0.000 C 
BRANCH   9  10
ATOM     10  N   UNL     1      43.696   2.446  10.821  0.00  0.00    +0.000 NA
ATOM     11  H   UNL     1      44.446   2.079  11.405  0.00  0.00    +0.000 HD
ATOM     12  H   UNL     1      43.758   1.953   9.931  0.00  0.00    +0.000 HD
ENDBRANCH   9  10
ENDBRANCH   3   9
ENDBRANCH   1   7
BRANCH   1  13
ATOM     13  C   UNL     1      47.274   4.283  15.744  0.00  0.00    +0.000 C 
BRANCH  13  14
ATOM     14  C   UNL     1      47.560   3.354  16.929  0.00  0.00    +0.000 C 
BRANCH  14  15
ATOM     15  C   UNL     1      49.036   3.268  17.230  0.00  0.00    +0.000 A 
ATOM     16  C   UNL     1      49.720   4.369  17.770  0.00  0.00    +0.000 A 
ATOM     17  C   UNL     1      51.084   4.287  18.059  0.00  0.00    +0.000 A 
ATOM     18  C   UNL     1      51.778   3.102  17.820  0.00  0.00    +0.000 A 
ATOM     19  C   UNL     1      51.099   2.008  17.297  0.00  0.00    +0.000 A 
ATOM     20  F   UNL     1      51.764   0.866  17.074  0.00  0.00    +0.000 F 
ATOM     21  C   UNL     1      49.741   2.078  17.005  0.00  0.00    +0.000 A 
ENDBRANCH  14  15
ENDBRANCH  13  14
ENDBRANCH   1  13
TORSDOF 6
ENDMDL
