MODEL 1
REMARK VINA RESULT:    -8.002      0.000      0.000
REMARK INTER + INTRA:         -12.676
REMARK INTER:                 -11.979
REMARK INTRA:                  -0.697
REMARK UNBOUND:                -0.697
REMARK  Name = 
REMARK  9 active torsions:
REMARK  status: ('A' for Active; 'I' for Inactive)
REMARK    1  A    between atoms: N_1  and  C_2
REMARK    2  A    between atoms: C_2  and  N_3
REMARK    3  A    between atoms: C_2  and  C_11
REMARK    4  A    between atoms: N_3  and  C_4
REMARK    5  A    between atoms: C_4  and  C_5
REMARK    6  A    between atoms: C_14  and  C_15
REMARK    7  A    between atoms: C_15  and  N_16
REMARK    8  A    between atoms: N_16  and  C_17
REMARK    9  A    between atoms: C_17  and  C_18
REMARK                            x       y       z     vdW  Elec       q    Type
REMARK                         _______ _______ _______ _____ _____    ______ ____
ROOT
ATOM      1  C   UNL     1      45.344   4.832  11.528  0.00  0.00    +0.000 A 
ATOM      2  C   UNL     1      45.950   6.096  11.645  0.00  0.00    +0.000 A 
ATOM      3  C   UNL     1      46.762   6.408  12.739  0.00  0.00    +0.000 A 
ATOM      4  C   UNL     1      47.011   5.454  13.732  0.00  0.00    +0.000 A 
ATOM      5  C   UNL     1      46.424   4.189  13.616  0.00  0.00    +0.000 A 
ATOM      6  C   UNL     1      45.598   3.884  12.532  0.00  0.00    +0.000 A 
ENDROOT
BRANCH   1   7
ATOM      7  C   UNL     1      44.385   4.568  10.382  0.00  0.00    +0.000 C 
BRANCH   7   8
ATOM      8  N   UNL     1      43.266   5.484  10.357  0.00  0.00    +0.000 NA
ATOM      9  H   UNL     1      43.473   6.161   9.625  0.00  0.00    +0.000 HD
ATOM     10  H   UNL     1      43.292   6.033  11.210  0.00  0.00    +0.000 HD
ENDBRANCH   7   8
BRANCH   7  11
ATOM     11  N   UNL     1      44.975   4.759   9.077  0.00  0.00    +0.000 NA
ATOM     12  H   UNL     1      45.987   4.736   9.171  0.00  0.00    +0.000 HD
BRANCH  11  13
ATOM     13  C   UNL     1      44.595   3.714   8.124  0.00  0.00    +0.000 C 
BRANCH  13  14
ATOM     14  C   UNL     1      45.805   2.914   7.706  0.00  0.00    +0.000 A 
ATOM     15  C   UNL     1      45.942   1.571   8.070  0.00  0.00    +0.000 A 
ATOM     16  C   UNL     1      47.079   0.887   7.666  0.00  0.00    +0.000 A 
ATOM     17  N   UNL     1      48.071   1.440   6.935  0.00  0.00    +0.000 NA
ATOM     18  C   UNL     1      47.919   2.736   6.594  0.00  0.00    +0.000 A 
ATOM     19  C   UNL     1      46.819   3.502   6.945  0.00  0.00    +0.000 A 
ENDBRANCH  13  14
ENDBRANCH  11  13
ENDBRANCH   7  11
ENDBRANCH   1   7
BRANCH   4  20
ATOM     20  C   UNL     1      47.843   5.796  14.943  0.00  0.00    +0.000 C 
BRANCH  20  21
ATOM     21  N   UNL     1      47.335   5.085  16.114  0.00  0.00    +0.000 NA
ATOM     22  H   UNL     1      47.137   4.120  15.842  0.00  0.00    +0.000 HD
BRANCH  21  23
ATOM     23  C   UNL     1      48.321   5.074  17.199  0.00  0.00    +0.000 C 
BRANCH  23  24
ATOM     24  C   UNL     1      49.226   3.877  17.128  0.00  0.00    +0.000 A 
ATOM     25  C   UNL     1      50.434   3.831  17.798  0.00  0.00    +0.000 A 
ATOM     26  N   UNL     1      51.266   2.770  17.750  0.00  0.00    +0.000 NA
ATOM     27  C   UNL     1      50.823   1.755  16.993  0.00  0.00    +0.000 A 
ATOM     28  N   UNL     1      49.658   1.734  16.315  0.00  0.00    +0.000 NA
ATOM     29  N   UNL     1      48.841   2.818  16.383  0.00  0.00    +0.000 NA
ENDBRANCH  23  24
ENDBRANCH  21  23
ENDBRANCH  20  21
ENDBRANCH   4  20
TORSDOF 9
ENDMDL
MODEL 2
REMARK VINA RESULT:    -7.802      1.364      1.955
REMARK INTER + INTRA:         -12.376
REMARK INTER:                 -11.456
REMARK INTRA:                  -0.920
REMARK UNBOUND:                -0.697
REMARK  Name = 
REMARK  9 active torsions:
REMARK  status: ('A' for Active; 'I' for Inactive)
REMARK    1  A    between atoms: N_1  and  C_2
REMARK    2  A    between atoms: C_2  and  N_3
REMARK    3  A    between atoms: C_2  and  C_11
REMARK    4  A    between atoms: N_3  and  C_4
REMARK    5  A    between atoms: C_4  and  C_5
REMARK    6  A    between atoms: C_14  and  C_15
REMARK    7  A    between atoms: C_15  and  N_16
REMARK    8  A    between atoms: N_16  and  C_17
REMARK    9  A    between atoms: C_17  and  C_18
REMARK                            x       y       z     vdW  Elec       q    Type
REMARK                         _______ _______ _______ _____ _____    ______ ____
ROOT
ATOM      1  C   UNL     1      44.974   5.349  11.635  0.00  0.00    +0.000 A 
ATOM      2  C   UNL     1      45.834   6.324  11.098  0.00  0.00    +0.000 A 
ATOM      3  C   UNL     1      46.952   6.768  11.808  0.00  0.00    +0.000 A 
ATOM      4  C   UNL     1      47.255   6.230  13.063  0.00  0.00    +0.000 A 
ATOM      5  C   UNL     1      46.413   5.248  13.599  0.00  0.00    +0.000 A 
ATOM      6  C   UNL     1      45.286   4.817  12.897  0.00  0.00    +0.000 A 
ENDROOT
BRANCH   1   7
ATOM      7  C   UNL     1      43.712   4.970  10.880  0.00  0.00    +0.000 C 
BRANCH   7   8
ATOM      8  N   UNL     1      42.846   6.098  10.623  0.00  0.00    +0.000 NA
ATOM      9  H   UNL     1      42.162   5.779   9.939  0.00  0.00    +0.000 HD
ATOM     10  H   UNL     1      43.383   6.798  10.121  0.00  0.00    +0.000 HD
ENDBRANCH   7   8
BRANCH   7  11
ATOM     11  N   UNL     1      43.963   4.459   9.552  0.00  0.00    +0.000 NA
ATOM     12  H   UNL     1      44.744   4.972   9.149  0.00  0.00    +0.000 HD
BRANCH  11  13
ATOM     13  C   UNL     1      44.315   3.038   9.547  0.00  0.00    +0.000 C 
BRANCH  13  14
ATOM     14  C   UNL     1      45.440   2.775   8.576  0.00  0.00    +0.000 A 
ATOM     15  C   UNL     1      46.006   3.813   7.830  0.00  0.00    +0.000 A 
ATOM     16  C   UNL     1      47.032   3.512   6.946  0.00  0.00    +0.000 A 
ATOM     17  N   UNL     1      47.523   2.268   6.758  0.00  0.00    +0.000 NA
ATOM     18  C   UNL     1      46.962   1.281   7.487  0.00  0.00    +0.000 A 
ATOM     19  C   UNL     1      45.938   1.481   8.398  0.00  0.00    +0.000 A 
ENDBRANCH  13  14
ENDBRANCH  11  13
ENDBRANCH   7  11
ENDBRANCH   1   7
BRANCH   4  20
ATOM     20  C   UNL     1      48.430   6.739  13.862  0.00  0.00    +0.000 C 
BRANCH  20  21
ATOM     21  N   UNL     1      48.051   6.889  15.265  0.00  0.00    +0.000 NA
ATOM     22  H   UNL     1      47.156   6.417  15.408  0.00  0.00    +0.000 HD
BRANCH  21  23
ATOM     23  C   UNL     1      49.047   6.280  16.152  0.00  0.00    +0.000 C 
BRANCH  23  24
ATOM     24  C   UNL     1      48.588   4.956  16.694  0.00  0.00    +0.000 A 
ATOM     25  C   UNL     1      47.248   4.651  16.845  0.00  0.00    +0.000 A 
ATOM     26  N   UNL     1      46.809   3.472  17.331  0.00  0.00    +0.000 NA
ATOM     27  C   UNL     1      47.784   2.611  17.657  0.00  0.00    +0.000 A 
ATOM     28  N   UNL     1      49.107   2.844  17.535  0.00  0.00    +0.000 NA
ATOM     29  N   UNL     1      49.519   4.042  17.043  0.00  0.00    +0.000 NA
ENDBRANCH  23  24
ENDBRANCH  21  23
ENDBRANCH  20  21
ENDBRANCH   4  20
TORSDOF 9
ENDMDL
MODEL 3
REMARK VINA RESULT:    -7.528      2.958      5.614
REMARK INTER + INTRA:         -11.966
REMARK INTER:                 -11.124
REMARK INTRA:                  -0.842
REMARK UNBOUND:                -0.697
REMARK  Name = 
REMARK  9 active torsions:
REMARK  status: ('A' for Active; 'I' for Inactive)
REMARK    1  A    between atoms: N_1  and  C_2
REMARK    2  A    between atoms: C_2  and  N_3
REMARK    3  A    between atoms: C_2  and  C_11
REMARK    4  A    between atoms: N_3  and  C_4
REMARK    5  A    between atoms: C_4  and  C_5
REMARK    6  A    between atoms: C_14  and  C_15
REMARK    7  A    between atoms: C_15  and  N_16
REMARK    8  A    between atoms: N_16  and  C_17
REMARK    9  A    between atoms: C_17  and  C_18
REMARK                            x       y       z     vdW  Elec       q    Type
REMARK                         _______ _______ _______ _____ _____    ______ ____
ROOT
ATOM      1  C   UNL     1      46.316   3.141   7.579  0.00  0.00    +0.000 A 
ATOM      2  C   UNL     1      45.840   4.348   8.122  0.00  0.00    +0.000 A 
ATOM      3  C   UNL     1      44.975   4.353   9.219  0.00  0.00    +0.000 A 
ATOM      4  C   UNL     1      44.583   3.152   9.819  0.00  0.00    +0.000 A 
ATOM      5  C   UNL     1      45.064   1.946   9.295  0.00  0.00    +0.000 A 
ATOM      6  C   UNL     1      45.914   1.940   8.187  0.00  0.00    +0.000 A 
ENDROOT
BRANCH   1   7
ATOM      7  C   UNL     1      47.169   3.172   6.323  0.00  0.00    +0.000 C 
BRANCH   7   8
ATOM      8  N   UNL     1      48.469   2.566   6.506  0.00  0.00    +0.000 NA
ATOM      9  H   UNL     1      48.541   2.348   7.498  0.00  0.00    +0.000 HD
ATOM     10  H   UNL     1      49.172   3.284   6.364  0.00  0.00    +0.000 HD
ENDBRANCH   7   8
BRANCH   7  11
ATOM     11  N   UNL     1      46.618   2.405   5.230  0.00  0.00    +0.000 NA
ATOM     12  H   UNL     1      46.520   3.014   4.421  0.00  0.00    +0.000 HD
BRANCH  11  13
ATOM     13  C   UNL     1      47.471   1.281   4.838  0.00  0.00    +0.000 C 
BRANCH  13  14
ATOM     14  C   UNL     1      46.754   0.390   3.853  0.00  0.00    +0.000 A 
ATOM     15  C   UNL     1      45.869   0.923   2.911  0.00  0.00    +0.000 A 
ATOM     16  C   UNL     1      45.231   0.057   2.036  0.00  0.00    +0.000 A 
ATOM     17  N   UNL     1      45.412  -1.281   2.035  0.00  0.00    +0.000 NA
ATOM     18  C   UNL     1      46.270  -1.775   2.951  0.00  0.00    +0.000 A 
ATOM     19  C   UNL     1      46.958  -0.992   3.864  0.00  0.00    +0.000 A 
ENDBRANCH  13  14
ENDBRANCH  11  13
ENDBRANCH   7  11
ENDBRANCH   1   7
BRANCH   4  20
ATOM     20  C   UNL     1      43.608   3.143  10.970  0.00  0.00    +0.000 C 
BRANCH  20  21
ATOM     21  N   UNL     1      43.377   4.508  11.439  0.00  0.00    +0.000 NA
ATOM     22  H   UNL     1      42.387   4.726  11.315  0.00  0.00    +0.000 HD
BRANCH  21  23
ATOM     23  C   UNL     1      43.713   4.645  12.859  0.00  0.00    +0.000 C 
BRANCH  23  24
ATOM     24  C   UNL     1      45.145   5.052  13.065  0.00  0.00    +0.000 A 
ATOM     25  C   UNL     1      45.684   6.169  12.455  0.00  0.00    +0.000 A 
ATOM     26  N   UNL     1      46.966   6.555  12.619  0.00  0.00    +0.000 NA
ATOM     27  C   UNL     1      47.681   5.761  13.431  0.00  0.00    +0.000 A 
ATOM     28  N   UNL     1      47.219   4.660  14.057  0.00  0.00    +0.000 NA
ATOM     29  N   UNL     1      45.922   4.297  13.870  0.00  0.00    +0.000 NA
ENDBRANCH  23  24
ENDBRANCH  21  23
ENDBRANCH  20  21
ENDBRANCH   4  20
TORSDOF 9
ENDMDL
MODEL 4
REMARK VINA RESULT:    -7.225      1.544      8.303
REMARK INTER + INTRA:         -11.512
REMARK INTER:                 -10.532
REMARK INTRA:                  -0.980
REMARK UNBOUND:                -0.697
REMARK  Name = 
REMARK  9 active torsions:
REMARK  status: ('A' for Active; 'I' for Inactive)
REMARK    1  A    between atoms: N_1  and  C_2
REMARK    2  A    between atoms: C_2  and  N_3
REMARK    3  A    between atoms: C_2  and  C_11
REMARK    4  A    between atoms: N_3  and  C_4
REMARK    5  A    between atoms: C_4  and  C_5
REMARK    6  A    between atoms: C_14  and  C_15
REMARK    7  A    between atoms: C_15  and  N_16
REMARK    8  A    between atoms: N_16  and  C_17
REMARK    9  A    between atoms: C_17  and  C_18
REMARK                            x       y       z     vdW  Elec       q    Type
REMARK                         _______ _______ _______ _____ _____    ______ ____
ROOT
ATOM      1  C   UNL     1      46.882   6.639  12.952  0.00  0.00    +0.000 A 
ATOM      2  C   UNL     1      46.139   5.585  13.514  0.00  0.00    +0.000 A 
ATOM      3  C   UNL     1      44.982   5.109  12.895  0.00  0.00    +0.000 A 
ATOM      4  C   UNL     1      44.550   5.657  11.682  0.00  0.00    +0.000 A 
ATOM      5  C   UNL     1      45.291   6.696  11.107  0.00  0.00    +0.000 A 
ATOM      6  C   UNL     1      46.439   7.184  11.736  0.00  0.00    +0.000 A 
ENDROOT
BRANCH   1   7
ATOM      7  C   UNL     1      48.074   7.199  13.709  0.00  0.00    +0.000 C 
BRANCH   7   8
ATOM      8  N   UNL     1      47.700   8.158  14.725  0.00  0.00    +0.000 NA
ATOM      9  H   UNL     1      47.112   7.653  15.386  0.00  0.00    +0.000 HD
ATOM     10  H   UNL     1      47.069   8.831  14.303  0.00  0.00    +0.000 HD
ENDBRANCH   7   8
BRANCH   7  11
ATOM     11  N   UNL     1      48.797   6.205  14.468  0.00  0.00    +0.000 NA
ATOM     12  H   UNL     1      49.760   6.184  14.141  0.00  0.00    +0.000 HD
BRANCH  11  13
ATOM     13  C   UNL     1      48.822   6.494  15.903  0.00  0.00    +0.000 C 
BRANCH  13  14
ATOM     14  C   UNL     1      48.634   5.228  16.702  0.00  0.00    +0.000 A 
ATOM     15  C   UNL     1      47.413   4.548  16.696  0.00  0.00    +0.000 A 
ATOM     16  C   UNL     1      47.292   3.393  17.456  0.00  0.00    +0.000 A 
ATOM     17  N   UNL     1      48.289   2.880  18.208  0.00  0.00    +0.000 NA
ATOM     18  C   UNL     1      49.459   3.552  18.200  0.00  0.00    +0.000 A 
ATOM     19  C   UNL     1      49.679   4.709  17.471  0.00  0.00    +0.000 A 
ENDBRANCH  13  14
ENDBRANCH  11  13
ENDBRANCH   7  11
ENDBRANCH   1   7
BRANCH   4  20
ATOM     20  C   UNL     1      43.273   5.187  11.030  0.00  0.00    +0.000 C 
BRANCH  20  21
ATOM     21  N   UNL     1      43.561   4.642   9.705  0.00  0.00    +0.000 NA
ATOM     22  H   UNL     1      44.169   5.300   9.213  0.00  0.00    +0.000 HD
BRANCH  21  23
ATOM     23  C   UNL     1      44.247   3.350   9.799  0.00  0.00    +0.000 C 
BRANCH  23  24
ATOM     24  C   UNL     1      45.287   3.183   8.728  0.00  0.00    +0.000 A 
ATOM     25  C   UNL     1      45.845   1.953   8.434  0.00  0.00    +0.000 A 
ATOM     26  N   UNL     1      46.782   1.776   7.480  0.00  0.00    +0.000 NA
ATOM     27  C   UNL     1      47.132   2.898   6.834  0.00  0.00    +0.000 A 
ATOM     28  N   UNL     1      46.629   4.127   7.070  0.00  0.00    +0.000 NA
ATOM     29  N   UNL     1      45.686   4.273   8.038  0.00  0.00    +0.000 NA
ENDBRANCH  23  24
ENDBRANCH  21  23
ENDBRANCH  20  21
ENDBRANCH   4  20
TORSDOF 9
ENDMDL
MODEL 5
REMARK VINA RESULT:    -6.982      1.915      3.004
REMARK INTER + INTRA:         -11.148
REMARK INTER:                 -10.486
REMARK INTRA:                  -0.662
REMARK UNBOUND:                -0.697
REMARK  Name = 
REMARK  9 active torsions:
REMARK  status: ('A' for Active; 'I' for Inactive)
REMARK    1  A    between atoms: N_1  and  C_2
REMARK    2  A    between atoms: C_2  and  N_3
REMARK    3  A    between atoms: C_2  and  C_11
REMARK    4  A    between atoms: N_3  and  C_4
REMARK    5  A    between atoms: C_4  and  C_5
REMARK    6  A    between atoms: C_14  and  C_15
REMARK    7  A    between atoms: C_15  and  N_16
REMARK    8  A    between atoms: N_16  and  C_17
REMARK    9  A    between atoms: C_17  and  C_18
REMARK                            x       y       z     vdW  Elec       q    Type
REMARK                         _______ _______ _______ _____ _____    ______ ____
ROOT
ATOM      1  C   UNL     1      45.501   5.147  11.530  0.00  0.00    +0.000 A 
ATOM      2  C   UNL     1      46.323   6.260  11.275  0.00  0.00    +0.000 A 
ATOM      3  C   UNL     1      47.220   6.729  12.238  0.00  0.00    +0.000 A 
ATOM      4  C   UNL     1      47.339   6.082  13.472  0.00  0.00    +0.000 A 
ATOM      5  C   UNL     1      46.536   4.965  13.729  0.00  0.00    +0.000 A 
ATOM      6  C   UNL     1      45.626   4.507  12.774  0.00  0.00    +0.000 A 
ENDROOT
BRANCH   1   7
ATOM      7  C   UNL     1      44.465   4.733  10.501  0.00  0.00    +0.000 C 
BRANCH   7   8
ATOM      8  N   UNL     1      43.310   5.603  10.478  0.00  0.00    +0.000 NA
ATOM      9  H   UNL     1      42.983   5.612   9.514  0.00  0.00    +0.000 HD
ATOM     10  H   UNL     1      43.631   6.553  10.635  0.00  0.00    +0.000 HD
ENDBRANCH   7   8
BRANCH   7  11
ATOM     11  N   UNL     1      44.940   4.807   9.139  0.00  0.00    +0.000 NA
ATOM     12  H   UNL     1      45.956   4.847   9.150  0.00  0.00    +0.000 HD
BRANCH  11  13
ATOM     13  C   UNL     1      44.550   3.645   8.338  0.00  0.00    +0.000 C 
BRANCH  13  14
ATOM     14  C   UNL     1      45.772   2.902   7.854  0.00  0.00    +0.000 A 
ATOM     15  C   UNL     1      46.770   3.555   7.125  0.00  0.00    +0.000 A 
ATOM     16  C   UNL     1      47.867   2.822   6.698  0.00  0.00    +0.000 A 
ATOM     17  N   UNL     1      48.034   1.504   6.944  0.00  0.00    +0.000 NA
ATOM     18  C   UNL     1      47.059   0.894   7.648  0.00  0.00    +0.000 A 
ATOM     19  C   UNL     1      45.929   1.540   8.122  0.00  0.00    +0.000 A 
ENDBRANCH  13  14
ENDBRANCH  11  13
ENDBRANCH   7  11
ENDBRANCH   1   7
BRANCH   4  20
ATOM     20  C   UNL     1      48.266   6.611  14.539  0.00  0.00    +0.000 C 
BRANCH  20  21
ATOM     21  N   UNL     1      48.254   5.719  15.696  0.00  0.00    +0.000 NA
ATOM     22  H   UNL     1      48.478   4.775  15.376  0.00  0.00    +0.000 HD
BRANCH  21  23
ATOM     23  C   UNL     1      49.252   6.126  16.691  0.00  0.00    +0.000 C 
BRANCH  23  24
ATOM     24  C   UNL     1      48.618   6.729  17.912  0.00  0.00    +0.000 A 
ATOM     25  C   UNL     1      48.380   5.988  19.055  0.00  0.00    +0.000 A 
ATOM     26  N   UNL     1      47.810   6.503  20.164  0.00  0.00    +0.000 NA
ATOM     27  C   UNL     1      47.493   7.803  20.069  0.00  0.00    +0.000 A 
ATOM     28  N   UNL     1      47.697   8.583  18.987  0.00  0.00    +0.000 NA
ATOM     29  N   UNL     1      48.273   8.034  17.885  0.00  0.00    +0.000 NA
ENDBRANCH  23  24
ENDBRANCH  21  23
ENDBRANCH  20  21
ENDBRANCH   4  20
TORSDOF 9
ENDMDL
MODEL 6
REMARK VINA RESULT:    -6.825      3.771      5.911
REMARK INTER + INTRA:         -10.913
REMARK INTER:                 -10.156
REMARK INTRA:                  -0.758
REMARK UNBOUND:                -0.697
REMARK  Name = 
REMARK  9 active torsions:
REMARK  status: ('A' for Active; 'I' for Inactive)
REMARK    1  A    between atoms: N_1  and  C_2
REMARK    2  A    between atoms: C_2  and  N_3
REMARK    3  A    between atoms: C_2  and  C_11
REMARK    4  A    between atoms: N_3  and  C_4
REMARK    5  A    between atoms: C_4  and  C_5
REMARK    6  A    between atoms: C_14  and  C_15
REMARK    7  A    between atoms: C_15  and  N_16
REMARK    8  A    between atoms: N_16  and  C_17
REMARK    9  A    between atoms: C_17  and  C_18
REMARK                            x       y       z     vdW  Elec       q    Type
REMARK                         _______ _______ _______ _____ _____    ______ ____
ROOT
ATOM      1  C   UNL     1      45.163   4.383  12.035  0.00  0.00    +0.000 A 
ATOM      2  C   UNL     1      45.990   4.346  13.171  0.00  0.00    +0.000 A 
ATOM      3  C   UNL     1      46.996   5.296  13.362  0.00  0.00    +0.000 A 
ATOM      4  C   UNL     1      47.185   6.326  12.433  0.00  0.00    +0.000 A 
ATOM      5  C   UNL     1      46.357   6.379  11.306  0.00  0.00    +0.000 A 
ATOM      6  C   UNL     1      45.363   5.418  11.107  0.00  0.00    +0.000 A 
ENDROOT
BRANCH   1   7
ATOM      7  C   UNL     1      44.152   3.273  11.811  0.00  0.00    +0.000 C 
BRANCH   7   8
ATOM      8  N   UNL     1      42.855   3.762  11.400  0.00  0.00    +0.000 NA
ATOM      9  H   UNL     1      42.965   4.764  11.254  0.00  0.00    +0.000 HD
ATOM     10  H   UNL     1      42.230   3.700  12.197  0.00  0.00    +0.000 HD
ENDBRANCH   7   8
BRANCH   7  11
ATOM     11  N   UNL     1      44.504   2.378  10.732  0.00  0.00    +0.000 NA
ATOM     12  H   UNL     1      43.937   1.537  10.810  0.00  0.00    +0.000 HD
BRANCH  11  13
ATOM     13  C   UNL     1      44.259   2.957   9.410  0.00  0.00    +0.000 C 
BRANCH  13  14
ATOM     14  C   UNL     1      45.416   2.673   8.484  0.00  0.00    +0.000 A 
ATOM     15  C   UNL     1      45.946   1.385   8.368  0.00  0.00    +0.000 A 
ATOM     16  C   UNL     1      47.015   1.182   7.508  0.00  0.00    +0.000 A 
ATOM     17  N   UNL     1      47.583   2.160   6.769  0.00  0.00    +0.000 NA
ATOM     18  C   UNL     1      47.056   3.395   6.896  0.00  0.00    +0.000 A 
ATOM     19  C   UNL     1      45.987   3.697   7.723  0.00  0.00    +0.000 A 
ENDBRANCH  13  14
ENDBRANCH  11  13
ENDBRANCH   7  11
ENDBRANCH   1   7
BRANCH   4  20
ATOM     20  C   UNL     1      48.302   7.326  12.601  0.00  0.00    +0.000 C 
BRANCH  20  21
ATOM     21  N   UNL     1      47.973   8.563  11.894  0.00  0.00    +0.000 NA
ATOM     22  H   UNL     1      47.305   8.341  11.154  0.00  0.00    +0.000 HD
BRANCH  21  23
ATOM     23  C   UNL     1      47.364   9.544  12.797  0.00  0.00    +0.000 C 
BRANCH  23  24
ATOM     24  C   UNL     1      46.227  10.280  12.147  0.00  0.00    +0.000 A 
ATOM     25  C   UNL     1      46.438  11.308  11.247  0.00  0.00    +0.000 A 
ATOM     26  N   UNL     1      45.436  11.986  10.652  0.00  0.00    +0.000 NA
ATOM     27  C   UNL     1      44.207  11.580  11.005  0.00  0.00    +0.000 A 
ATOM     28  N   UNL     1      43.931  10.586  11.875  0.00  0.00    +0.000 NA
ATOM     29  N   UNL     1      44.963   9.922  12.459  0.00  0.00    +0.000 NA
ENDBRANCH  23  24
ENDBRANCH  21  23
ENDBRANCH  20  21
ENDBRANCH   4  20
TORSDOF 9
ENDMDL
MODEL 7
REMARK VINA RESULT:    -6.745      3.382      7.968
REMARK INTER + INTRA:         -10.794
REMARK INTER:                  -9.487
REMARK INTRA:                  -1.308
REMARK UNBOUND:                -0.697
REMARK  Name = 
REMARK  9 active torsions:
REMARK  status: ('A' for Active; 'I' for Inactive)
REMARK    1  A    between atoms: N_1  and  C_2
REMARK    2  A    between atoms: C_2  and  N_3
REMARK    3  A    between atoms: C_2  and  C_11
REMARK    4  A    between atoms: N_3  and  C_4
REMARK    5  A    between atoms: C_4  and  C_5
REMARK    6  A    between atoms: C_14  and  C_15
REMARK    7  A    between atoms: C_15  and  N_16
REMARK    8  A    between atoms: N_16  and  C_17
REMARK    9  A    between atoms: C_17  and  C_18
REMARK                            x       y       z     vdW  Elec       q    Type
REMARK                         _______ _______ _______ _____ _____    ______ ____
ROOT
ATOM      1  C   UNL     1      47.050   6.525  12.498  0.00  0.00    +0.000 A 
ATOM      2  C   UNL     1      46.160   5.777  13.289  0.00  0.00    +0.000 A 
ATOM      3  C   UNL     1      45.080   5.102  12.716  0.00  0.00    +0.000 A 
ATOM      4  C   UNL     1      44.875   5.136  11.332  0.00  0.00    +0.000 A 
ATOM      5  C   UNL     1      45.764   5.867  10.536  0.00  0.00    +0.000 A 
ATOM      6  C   UNL     1      46.834   6.556  11.111  0.00  0.00    +0.000 A 
ENDROOT
BRANCH   1   7
ATOM      7  C   UNL     1      48.149   7.330  13.169  0.00  0.00    +0.000 C 
BRANCH   7   8
ATOM      8  N   UNL     1      49.449   6.704  13.072  0.00  0.00    +0.000 NA
ATOM      9  H   UNL     1      49.279   5.700  13.073  0.00  0.00    +0.000 HD
ATOM     10  H   UNL     1      49.941   6.868  13.945  0.00  0.00    +0.000 HD
ENDBRANCH   7   8
BRANCH   7  11
ATOM     11  N   UNL     1      48.377   8.620  12.558  0.00  0.00    +0.000 NA
ATOM     12  H   UNL     1      48.086   8.575  11.585  0.00  0.00    +0.000 HD
BRANCH  11  13
ATOM     13  C   UNL     1      47.616   9.694  13.199  0.00  0.00    +0.000 C 
BRANCH  13  14
ATOM     14  C   UNL     1      46.521  10.185  12.284  0.00  0.00    +0.000 A 
ATOM     15  C   UNL     1      45.241   9.625  12.327  0.00  0.00    +0.000 A 
ATOM     16  C   UNL     1      44.275  10.110  11.457  0.00  0.00    +0.000 A 
ATOM     17  N   UNL     1      44.494  11.098  10.564  0.00  0.00    +0.000 NA
ATOM     18  C   UNL     1      45.736  11.625  10.539  0.00  0.00    +0.000 A 
ATOM     19  C   UNL     1      46.765  11.213  11.369  0.00  0.00    +0.000 A 
ENDBRANCH  13  14
ENDBRANCH  11  13
ENDBRANCH   7  11
ENDBRANCH   1   7
BRANCH   4  20
ATOM     20  C   UNL     1      43.682   4.456  10.708  0.00  0.00    +0.000 C 
BRANCH  20  21
ATOM     21  N   UNL     1      44.025   3.977   9.371  0.00  0.00    +0.000 NA
ATOM     22  H   UNL     1      44.790   4.549   9.011  0.00  0.00    +0.000 HD
BRANCH  21  23
ATOM     23  C   UNL     1      44.462   2.577   9.404  0.00  0.00    +0.000 C 
BRANCH  23  24
ATOM     24  C   UNL     1      45.623   2.327   8.484  0.00  0.00    +0.000 A 
ATOM     25  C   UNL     1      46.215   3.343   7.758  0.00  0.00    +0.000 A 
ATOM     26  N   UNL     1      47.256   3.145   6.923  0.00  0.00    +0.000 NA
ATOM     27  C   UNL     1      47.676   1.872   6.856  0.00  0.00    +0.000 A 
ATOM     28  N   UNL     1      47.145   0.835   7.536  0.00  0.00    +0.000 NA
ATOM     29  N   UNL     1      46.096   1.067   8.369  0.00  0.00    +0.000 NA
ENDBRANCH  23  24
ENDBRANCH  21  23
ENDBRANCH  20  21
ENDBRANCH   4  20
TORSDOF 9
ENDMDL
MODEL 8
REMARK VINA RESULT:    -6.538      3.296      7.864
REMARK INTER + INTRA:         -10.485
REMARK INTER:                  -9.759
REMARK INTRA:                  -0.726
REMARK UNBOUND:                -0.697
REMARK  Name = 
REMARK  9 active torsions:
REMARK  status: ('A' for Active; 'I' for Inactive)
REMARK    1  A    between atoms: N_1  and  C_2
REMARK    2  A    between atoms: C_2  and  N_3
REMARK    3  A    between atoms: C_2  and  C_11
REMARK    4  A    between atoms: N_3  and  C_4
REMARK    5  A    between atoms: C_4  and  C_5
REMARK    6  A    between atoms: C_14  and  C_15
REMARK    7  A    between atoms: C_15  and  N_16
REMARK    8  A    between atoms: N_16  and  C_17
REMARK    9  A    between atoms: C_17  and  C_18
REMARK                            x       y       z     vdW  Elec       q    Type
REMARK                         _______ _______ _______ _____ _____    ______ ____
ROOT
ATOM      1  C   UNL     1      46.899   6.048  13.159  0.00  0.00    +0.000 A 
ATOM      2  C   UNL     1      45.894   5.179  13.620  0.00  0.00    +0.000 A 
ATOM      3  C   UNL     1      44.870   4.749  12.774  0.00  0.00    +0.000 A 
ATOM      4  C   UNL     1      44.836   5.155  11.436  0.00  0.00    +0.000 A 
ATOM      5  C   UNL     1      45.841   6.008  10.964  0.00  0.00    +0.000 A 
ATOM      6  C   UNL     1      46.855   6.453  11.815  0.00  0.00    +0.000 A 
ENDROOT
BRANCH   1   7
ATOM      7  C   UNL     1      47.934   6.578  14.135  0.00  0.00    +0.000 C 
BRANCH   7   8
ATOM      8  N   UNL     1      48.146   5.703  15.267  0.00  0.00    +0.000 NA
ATOM      9  H   UNL     1      47.858   4.774  14.963  0.00  0.00    +0.000 HD
ATOM     10  H   UNL     1      47.467   5.945  15.981  0.00  0.00    +0.000 HD
ENDBRANCH   7   8
BRANCH   7  11
ATOM     11  N   UNL     1      49.261   6.685  13.572  0.00  0.00    +0.000 NA
ATOM     12  H   UNL     1      49.220   6.414  12.592  0.00  0.00    +0.000 HD
BRANCH  11  13
ATOM     13  C   UNL     1      49.795   8.047  13.633  0.00  0.00    +0.000 C 
BRANCH  13  14
ATOM     14  C   UNL     1      50.841   8.254  12.565  0.00  0.00    +0.000 A 
ATOM     15  C   UNL     1      50.713   7.661  11.306  0.00  0.00    +0.000 A 
ATOM     16  C   UNL     1      51.709   7.879  10.365  0.00  0.00    +0.000 A 
ATOM     17  N   UNL     1      52.806   8.633  10.591  0.00  0.00    +0.000 NA
ATOM     18  C   UNL     1      52.910   9.195  11.813  0.00  0.00    +0.000 A 
ATOM     19  C   UNL     1      51.968   9.043  12.816  0.00  0.00    +0.000 A 
ENDBRANCH  13  14
ENDBRANCH  11  13
ENDBRANCH   7  11
ENDBRANCH   1   7
BRANCH   4  20
ATOM     20  C   UNL     1      43.706   4.739  10.528  0.00  0.00    +0.000 C 
BRANCH  20  21
ATOM     21  N   UNL     1      44.094   3.557   9.760  0.00  0.00    +0.000 NA
ATOM     22  H   UNL     1      43.258   2.992   9.598  0.00  0.00    +0.000 HD
BRANCH  21  23
ATOM     23  C   UNL     1      44.665   3.931   8.462  0.00  0.00    +0.000 C 
BRANCH  23  24
ATOM     24  C   UNL     1      45.701   2.947   7.997  0.00  0.00    +0.000 A 
ATOM     25  C   UNL     1      46.721   3.309   7.137  0.00  0.00    +0.000 A 
ATOM     26  N   UNL     1      47.662   2.446   6.701  0.00  0.00    +0.000 NA
ATOM     27  C   UNL     1      47.528   1.198   7.174  0.00  0.00    +0.000 A 
ATOM     28  N   UNL     1      46.559   0.779   8.014  0.00  0.00    +0.000 NA
ATOM     29  N   UNL     1      45.625   1.672   8.435  0.00  0.00    +0.000 NA
ENDBRANCH  23  24
ENDBRANCH  21  23
ENDBRANCH  20  21
ENDBRANCH   4  20
TORSDOF 9
ENDMDL
MODEL 9
REMARK VINA RESULT:    -6.525      3.014      8.256
REMARK INTER + INTRA:         -10.464
REMARK INTER:                  -9.548
REMARK INTRA:                  -0.916
REMARK UNBOUND:                -0.697
REMARK  Name = 
REMARK  9 active torsions:
REMARK  status: ('A' for Active; 'I' for Inactive)
REMARK    1  A    between atoms: N_1  and  C_2
REMARK    2  A    between atoms: C_2  and  N_3
REMARK    3  A    between atoms: C_2  and  C_11
REMARK    4  A    between atoms: N_3  and  C_4
REMARK    5  A    between atoms: C_4  and  C_5
REMARK    6  A    between atoms: C_14  and  C_15
REMARK    7  A    between atoms: C_15  and  N_16
REMARK    8  A    between atoms: N_16  and  C_17
REMARK    9  A    between atoms: C_17  and  C_18
REMARK                            x       y       z     vdW  Elec       q    Type
REMARK                         _______ _______ _______ _____ _____    ______ ____
ROOT
ATOM      1  C   UNL     1      46.818   5.862  12.643  0.00  0.00    +0.000 A 
ATOM      2  C   UNL     1      46.395   4.649  13.215  0.00  0.00    +0.000 A 
ATOM      3  C   UNL     1      45.408   3.870  12.605  0.00  0.00    +0.000 A 
ATOM      4  C   UNL     1      44.836   4.271  11.393  0.00  0.00    +0.000 A 
ATOM      5  C   UNL     1      45.262   5.470  10.809  0.00  0.00    +0.000 A 
ATOM      6  C   UNL     1      46.236   6.257  11.428  0.00  0.00    +0.000 A 
ENDROOT
BRANCH   1   7
ATOM      7  C   UNL     1      47.815   6.731  13.389  0.00  0.00    +0.000 C 
BRANCH   7   8
ATOM      8  N   UNL     1      47.858   6.454  14.807  0.00  0.00    +0.000 NA
ATOM      9  H   UNL     1      47.387   5.560  14.934  0.00  0.00    +0.000 HD
ATOM     10  H   UNL     1      47.250   7.118  15.275  0.00  0.00    +0.000 HD
ENDBRANCH   7   8
BRANCH   7  11
ATOM     11  N   UNL     1      49.186   6.517  12.986  0.00  0.00    +0.000 NA
ATOM     12  H   UNL     1      49.292   5.547  12.700  0.00  0.00    +0.000 HD
BRANCH  11  13
ATOM     13  C   UNL     1      49.584   7.359  11.857  0.00  0.00    +0.000 C 
BRANCH  13  14
ATOM     14  C   UNL     1      49.609   8.812  12.263  0.00  0.00    +0.000 A 
ATOM     15  C   UNL     1      48.861   9.767  11.568  0.00  0.00    +0.000 A 
ATOM     16  C   UNL     1      48.928  11.090  11.979  0.00  0.00    +0.000 A 
ATOM     17  N   UNL     1      49.676  11.519  13.018  0.00  0.00    +0.000 NA
ATOM     18  C   UNL     1      50.389  10.582  13.675  0.00  0.00    +0.000 A 
ATOM     19  C   UNL     1      50.385   9.237  13.345  0.00  0.00    +0.000 A 
ENDBRANCH  13  14
ENDBRANCH  11  13
ENDBRANCH   7  11
ENDBRANCH   1   7
BRANCH   4  20
ATOM     20  C   UNL     1      43.733   3.466  10.752  0.00  0.00    +0.000 C 
BRANCH  20  21
ATOM     21  N   UNL     1      44.072   3.177   9.360  0.00  0.00    +0.000 NA
ATOM     22  H   UNL     1      44.519   4.003   8.960  0.00  0.00    +0.000 HD
BRANCH  21  23
ATOM     23  C   UNL     1      45.002   2.047   9.263  0.00  0.00    +0.000 C 
BRANCH  23  24
ATOM     24  C   UNL     1      45.927   2.176   8.086  0.00  0.00    +0.000 A 
ATOM     25  C   UNL     1      46.821   1.179   7.745  0.00  0.00    +0.000 A 
ATOM     26  N   UNL     1      47.664   1.270   6.696  0.00  0.00    +0.000 NA
ATOM     27  C   UNL     1      47.564   2.415   6.004  0.00  0.00    +0.000 A 
ATOM     28  N   UNL     1      46.715   3.425   6.281  0.00  0.00    +0.000 NA
ATOM     29  N   UNL     1      45.878   3.304   7.345  0.00  0.00    +0.000 NA
ENDBRANCH  23  24
ENDBRANCH  21  23
ENDBRANCH  20  21
ENDBRANCH   4  20
TORSDOF 9
ENDMDL
