MODEL 1
REMARK VINA RESULT:    -7.178      0.000      0.000
REMARK INTER + INTRA:         -11.577
REMARK INTER:                 -10.534
REMARK INTRA:                  -1.042
REMARK UNBOUND:                -1.042
REMARK  Name = 
REMARK  11 active torsions:
REMARK  status: ('A' for Active; 'I' for Inactive)
REMARK    1  A    between atoms: C_1  and  O_2
REMARK    2  A    between atoms: O_2  and  C_3
REMARK    3  A    between atoms: C_5  and  C_6
REMARK    4  A    between atoms: C_6  and  N_7
REMARK    5  A    between atoms: N_7  and  C_8
REMARK    6  A    between atoms: N_7  and  C_9
REMARK    7  A    between atoms: C_9  and  C_10
REMARK    8  A    between atoms: C_15  and  C_16
REMARK    9  A    between atoms: C_16  and  N_17
REMARK   10  A    between atoms: N_17  and  C_18
REMARK   11  A    between atoms: C_19  and  C_21
REMARK                            x       y       z     vdW  Elec       q    Type
REMARK                         _______ _______ _______ _____ _____    ______ ____
ROOT
ATOM      1  C   UNL     1      45.143   7.822  11.913  0.00  0.00    +0.000 A 
ATOM      2  C   UNL     1      44.295   8.554  11.057  0.00  0.00    +0.000 A 
ATOM      3  C   UNL     1      44.445   9.944  10.865  0.00  0.00    +0.000 A 
ATOM      4  C   UNL     1      45.387  10.665  11.594  0.00  0.00    +0.000 A 
ATOM      5  C   UNL     1      46.282   9.962  12.380  0.00  0.00    +0.000 A 
ATOM      6  C   UNL     1      46.256   8.548  12.386  0.00  0.00    +0.000 A 
ENDROOT
BRANCH   1   7
ATOM      7  C   UNL     1      45.039   6.282  12.036  0.00  0.00    +0.000 C 
BRANCH   7   8
ATOM      8  N   UNL     1      43.658   5.674  12.230  0.00  0.00    +0.000 NA
ATOM      9  C   UNL     1      43.765   4.588  13.232  0.00  0.00    +0.000 C 
BRANCH   8  10
ATOM     10  C   UNL     1      43.139   5.044  10.979  0.00  0.00    +0.000 C 
BRANCH  10  13
ATOM     11  C   UNL     1      45.524   3.739   8.257  0.00  0.00    +0.000 A 
ATOM     12  C   UNL     1      44.919   4.677   9.082  0.00  0.00    +0.000 A 
ATOM     13  C   UNL     1      44.070   4.200  10.072  0.00  0.00    +0.000 A 
ATOM     14  N   UNL     1      43.911   2.853  10.234  0.00  0.00    +0.000 NA
ATOM     15  C   UNL     1      44.597   2.042   9.412  0.00  0.00    +0.000 A 
ATOM     16  N   UNL     1      45.395   2.416   8.412  0.00  0.00    +0.000 NA
BRANCH  11  18
ATOM     17  C   UNL     1      46.777   3.241   6.291  0.00  0.00    +0.000 C 
ATOM     18  O   UNL     1      46.262   4.225   7.195  0.00  0.00    +0.000 OA
ENDBRANCH  11  18
ENDBRANCH  10  13
ENDBRANCH   8  10
ENDBRANCH   7   8
ENDBRANCH   1   7
BRANCH   6  19
ATOM     19  C   UNL     1      47.599   7.862  12.477  0.00  0.00    +0.000 C 
BRANCH  19  20
ATOM     20  N   UNL     1      47.941   7.498  13.884  0.00  0.00    +0.000 N 
ATOM     21  C   UNL     1      48.011   8.563  14.883  0.00  0.00    +0.000 C 
ATOM     22  C   UNL     1      48.048   6.132  14.158  0.00  0.00    +0.000 C 
ATOM     23  O   UNL     1      47.876   5.349  13.210  0.00  0.00    +0.000 OA
BRANCH  22  24
ATOM     24  C   UNL     1      48.141   5.524  15.477  0.00  0.00    +0.000 A 
ATOM     25  C   UNL     1      47.203   4.500  15.684  0.00  0.00    +0.000 A 
ATOM     26  S   UNL     1      47.241   3.775  17.201  0.00  0.00    +0.000 S 
ATOM     27  C   UNL     1      48.542   4.753  17.676  0.00  0.00    +0.000 A 
ATOM     28  N   UNL     1      49.029   4.620  18.929  0.00  0.00    +0.000 NA
ATOM     29  C   UNL     1      50.104   5.298  19.155  0.00  0.00    +0.000 A 
ATOM     30  N   UNL     1      50.716   6.101  18.238  0.00  0.00    +0.000 N 
ATOM     31  C   UNL     1      50.264   6.259  16.933  0.00  0.00    +0.000 A 
ATOM     32  O   UNL     1      50.920   6.887  16.106  0.00  0.00    +0.000 OA
ATOM     33  C   UNL     1      49.012   5.576  16.647  0.00  0.00    +0.000 A 
ATOM     34  H   UNL     1      51.598   6.534  18.470  0.00  0.00    +0.000 HD
ENDBRANCH  22  24
ENDBRANCH  19  20
ENDBRANCH   6  19
TORSDOF 8
ENDMDL
MODEL 2
REMARK VINA RESULT:    -6.978      2.571      3.873
REMARK INTER + INTRA:         -11.284
REMARK INTER:                 -11.487
REMARK INTRA:                   0.203
REMARK UNBOUND:                -1.042
REMARK  Name = 
REMARK  11 active torsions:
REMARK  status: ('A' for Active; 'I' for Inactive)
REMARK    1  A    between atoms: C_1  and  O_2
REMARK    2  A    between atoms: O_2  and  C_3
REMARK    3  A    between atoms: C_5  and  C_6
REMARK    4  A    between atoms: C_6  and  N_7
REMARK    5  A    between atoms: N_7  and  C_8
REMARK    6  A    between atoms: N_7  and  C_9
REMARK    7  A    between atoms: C_9  and  C_10
REMARK    8  A    between atoms: C_15  and  C_16
REMARK    9  A    between atoms: C_16  and  N_17
REMARK   10  A    between atoms: N_17  and  C_18
REMARK   11  A    between atoms: C_19  and  C_21
REMARK                            x       y       z     vdW  Elec       q    Type
REMARK                         _______ _______ _______ _____ _____    ______ ____
ROOT
ATOM      1  C   UNL     1      44.661   5.189  10.697  0.00  0.00    +0.000 A 
ATOM      2  C   UNL     1      43.273   5.436  10.664  0.00  0.00    +0.000 A 
ATOM      3  C   UNL     1      42.476   5.389  11.827  0.00  0.00    +0.000 A 
ATOM      4  C   UNL     1      43.023   5.001  13.048  0.00  0.00    +0.000 A 
ATOM      5  C   UNL     1      44.393   4.831  13.125  0.00  0.00    +0.000 A 
ATOM      6  C   UNL     1      45.202   5.100  11.996  0.00  0.00    +0.000 A 
ENDROOT
BRANCH   1   7
ATOM      7  C   UNL     1      45.544   5.347   9.436  0.00  0.00    +0.000 C 
BRANCH   7   8
ATOM      8  N   UNL     1      45.401   4.311   8.331  0.00  0.00    +0.000 NA
ATOM      9  C   UNL     1      45.124   2.997   8.958  0.00  0.00    +0.000 C 
BRANCH   8  10
ATOM     10  C   UNL     1      46.661   4.146   7.547  0.00  0.00    +0.000 C 
BRANCH  10  13
ATOM     11  C   UNL     1      46.910   1.432   4.832  0.00  0.00    +0.000 A 
ATOM     12  C   UNL     1      46.819   2.717   5.348  0.00  0.00    +0.000 A 
ATOM     13  C   UNL     1      46.922   2.857   6.726  0.00  0.00    +0.000 A 
ATOM     14  N   UNL     1      47.162   1.759   7.501  0.00  0.00    +0.000 NA
ATOM     15  C   UNL     1      47.290   0.575   6.880  0.00  0.00    +0.000 A 
ATOM     16  N   UNL     1      47.164   0.347   5.573  0.00  0.00    +0.000 NA
BRANCH  11  18
ATOM     17  C   UNL     1      46.246  -0.014   3.056  0.00  0.00    +0.000 C 
ATOM     18  O   UNL     1      46.677   1.285   3.478  0.00  0.00    +0.000 OA
ENDBRANCH  11  18
ENDBRANCH  10  13
ENDBRANCH   8  10
ENDBRANCH   7   8
ENDBRANCH   1   7
BRANCH   6  19
ATOM     19  C   UNL     1      46.545   5.729  12.280  0.00  0.00    +0.000 C 
BRANCH  19  20
ATOM     20  N   UNL     1      47.140   5.216  13.551  0.00  0.00    +0.000 N 
ATOM     21  C   UNL     1      47.250   3.771  13.736  0.00  0.00    +0.000 C 
ATOM     22  C   UNL     1      47.662   6.180  14.419  0.00  0.00    +0.000 C 
ATOM     23  O   UNL     1      47.563   7.368  14.072  0.00  0.00    +0.000 OA
BRANCH  22  24
ATOM     24  C   UNL     1      48.488   5.925  15.589  0.00  0.00    +0.000 A 
ATOM     25  C   UNL     1      49.583   6.796  15.697  0.00  0.00    +0.000 A 
ATOM     26  S   UNL     1      50.593   6.536  17.016  0.00  0.00    +0.000 S 
ATOM     27  C   UNL     1      49.614   5.262  17.559  0.00  0.00    +0.000 A 
ATOM     28  N   UNL     1      49.982   4.593  18.675  0.00  0.00    +0.000 NA
ATOM     29  C   UNL     1      49.108   3.740  19.094  0.00  0.00    +0.000 A 
ATOM     30  N   UNL     1      47.913   3.498  18.481  0.00  0.00    +0.000 N 
ATOM     31  C   UNL     1      47.483   4.170  17.343  0.00  0.00    +0.000 A 
ATOM     32  O   UNL     1      46.347   4.012  16.905  0.00  0.00    +0.000 OA
ATOM     33  C   UNL     1      48.463   5.089  16.785  0.00  0.00    +0.000 A 
ATOM     34  H   UNL     1      47.252   2.872  18.918  0.00  0.00    +0.000 HD
ENDBRANCH  22  24
ENDBRANCH  19  20
ENDBRANCH   6  19
TORSDOF 8
ENDMDL
MODEL 3
REMARK VINA RESULT:    -6.839      2.426      7.709
REMARK INTER + INTRA:         -11.080
REMARK INTER:                 -10.152
REMARK INTRA:                  -0.928
REMARK UNBOUND:                -1.042
REMARK  Name = 
REMARK  11 active torsions:
REMARK  status: ('A' for Active; 'I' for Inactive)
REMARK    1  A    between atoms: C_1  and  O_2
REMARK    2  A    between atoms: O_2  and  C_3
REMARK    3  A    between atoms: C_5  and  C_6
REMARK    4  A    between atoms: C_6  and  N_7
REMARK    5  A    between atoms: N_7  and  C_8
REMARK    6  A    between atoms: N_7  and  C_9
REMARK    7  A    between atoms: C_9  and  C_10
REMARK    8  A    between atoms: C_15  and  C_16
REMARK    9  A    between atoms: C_16  and  N_17
REMARK   10  A    between atoms: N_17  and  C_18
REMARK   11  A    between atoms: C_19  and  C_21
REMARK                            x       y       z     vdW  Elec       q    Type
REMARK                         _______ _______ _______ _____ _____    ______ ____
ROOT
ATOM      1  C   UNL     1      48.907   9.101  14.200  0.00  0.00    +0.000 A 
ATOM      2  C   UNL     1      49.795  10.183  14.023  0.00  0.00    +0.000 A 
ATOM      3  C   UNL     1      50.126  10.678  12.744  0.00  0.00    +0.000 A 
ATOM      4  C   UNL     1      49.655  10.048  11.594  0.00  0.00    +0.000 A 
ATOM      5  C   UNL     1      48.722   9.037  11.739  0.00  0.00    +0.000 A 
ATOM      6  C   UNL     1      48.236   8.705  13.025  0.00  0.00    +0.000 A 
ENDROOT
BRANCH   1   7
ATOM      7  C   UNL     1      48.469   8.634  15.609  0.00  0.00    +0.000 C 
BRANCH   7   8
ATOM      8  N   UNL     1      49.449   7.802  16.422  0.00  0.00    +0.000 NA
ATOM      9  C   UNL     1      50.209   6.936  15.491  0.00  0.00    +0.000 C 
BRANCH   8  10
ATOM     10  C   UNL     1      48.755   6.887  17.376  0.00  0.00    +0.000 C 
BRANCH  10  13
ATOM     11  C   UNL     1      50.220   3.330  17.411  0.00  0.00    +0.000 A 
ATOM     12  C   UNL     1      50.140   4.681  17.719  0.00  0.00    +0.000 A 
ATOM     13  C   UNL     1      48.993   5.356  17.323  0.00  0.00    +0.000 A 
ATOM     14  N   UNL     1      47.981   4.670  16.712  0.00  0.00    +0.000 NA
ATOM     15  C   UNL     1      48.150   3.352  16.521  0.00  0.00    +0.000 A 
ATOM     16  N   UNL     1      49.232   2.638  16.830  0.00  0.00    +0.000 NA
BRANCH  11  18
ATOM     17  C   UNL     1      51.488   1.313  17.324  0.00  0.00    +0.000 C 
ATOM     18  O   UNL     1      51.415   2.695  17.691  0.00  0.00    +0.000 OA
ENDBRANCH  11  18
ENDBRANCH  10  13
ENDBRANCH   8  10
ENDBRANCH   7   8
ENDBRANCH   1   7
BRANCH   6  19
ATOM     19  C   UNL     1      46.776   8.326  13.102  0.00  0.00    +0.000 C 
BRANCH  19  20
ATOM     20  N   UNL     1      46.544   6.918  12.664  0.00  0.00    +0.000 N 
ATOM     21  C   UNL     1      47.352   5.858  13.266  0.00  0.00    +0.000 C 
ATOM     22  C   UNL     1      45.473   6.713  11.789  0.00  0.00    +0.000 C 
ATOM     23  O   UNL     1      44.829   7.715  11.438  0.00  0.00    +0.000 OA
BRANCH  22  24
ATOM     24  C   UNL     1      44.907   5.427  11.409  0.00  0.00    +0.000 A 
ATOM     25  C   UNL     1      43.911   4.976  12.288  0.00  0.00    +0.000 A 
ATOM     26  S   UNL     1      43.235   3.482  11.917  0.00  0.00    +0.000 S 
ATOM     27  C   UNL     1      44.202   3.349  10.530  0.00  0.00    +0.000 A 
ATOM     28  N   UNL     1      44.099   2.234   9.773  0.00  0.00    +0.000 NA
ATOM     29  C   UNL     1      44.761   2.282   8.666  0.00  0.00    +0.000 A 
ATOM     30  N   UNL     1      45.521   3.344   8.267  0.00  0.00    +0.000 N 
ATOM     31  C   UNL     1      45.645   4.517   9.002  0.00  0.00    +0.000 A 
ATOM     32  O   UNL     1      46.231   5.493   8.542  0.00  0.00    +0.000 OA
ATOM     33  C   UNL     1      44.980   4.488  10.295  0.00  0.00    +0.000 A 
ATOM     34  H   UNL     1      45.943   3.333   7.351  0.00  0.00    +0.000 HD
ENDBRANCH  22  24
ENDBRANCH  19  20
ENDBRANCH   6  19
TORSDOF 8
ENDMDL
MODEL 4
REMARK VINA RESULT:    -6.775      2.834      7.406
REMARK INTER + INTRA:         -10.986
REMARK INTER:                  -9.614
REMARK INTRA:                  -1.372
REMARK UNBOUND:                -1.042
REMARK  Name = 
REMARK  11 active torsions:
REMARK  status: ('A' for Active; 'I' for Inactive)
REMARK    1  A    between atoms: C_1  and  O_2
REMARK    2  A    between atoms: O_2  and  C_3
REMARK    3  A    between atoms: C_5  and  C_6
REMARK    4  A    between atoms: C_6  and  N_7
REMARK    5  A    between atoms: N_7  and  C_8
REMARK    6  A    between atoms: N_7  and  C_9
REMARK    7  A    between atoms: C_9  and  C_10
REMARK    8  A    between atoms: C_15  and  C_16
REMARK    9  A    between atoms: C_16  and  N_17
REMARK   10  A    between atoms: N_17  and  C_18
REMARK   11  A    between atoms: C_19  and  C_21
REMARK                            x       y       z     vdW  Elec       q    Type
REMARK                         _______ _______ _______ _____ _____    ______ ____
ROOT
ATOM      1  C   UNL     1      49.004   9.050  14.859  0.00  0.00    +0.000 A 
ATOM      2  C   UNL     1      49.757  10.236  14.985  0.00  0.00    +0.000 A 
ATOM      3  C   UNL     1      49.952  11.116  13.899  0.00  0.00    +0.000 A 
ATOM      4  C   UNL     1      49.481  10.794  12.629  0.00  0.00    +0.000 A 
ATOM      5  C   UNL     1      48.673   9.679  12.496  0.00  0.00    +0.000 A 
ATOM      6  C   UNL     1      48.307   8.932  13.639  0.00  0.00    +0.000 A 
ENDROOT
BRANCH   1   7
ATOM      7  C   UNL     1      48.707   8.145  16.080  0.00  0.00    +0.000 C 
BRANCH   7   8
ATOM      8  N   UNL     1      49.888   7.571  16.847  0.00  0.00    +0.000 NA
ATOM      9  C   UNL     1      50.782   6.889  15.882  0.00  0.00    +0.000 C 
BRANCH   8  10
ATOM     10  C   UNL     1      49.467   6.535  17.836  0.00  0.00    +0.000 C 
BRANCH  10  13
ATOM     11  C   UNL     1      49.363   2.860  16.700  0.00  0.00    +0.000 A 
ATOM     12  C   UNL     1      49.871   3.988  17.328  0.00  0.00    +0.000 A 
ATOM     13  C   UNL     1      49.058   5.114  17.370  0.00  0.00    +0.000 A 
ATOM     14  N   UNL     1      47.793   5.053  16.857  0.00  0.00    +0.000 NA
ATOM     15  C   UNL     1      47.392   3.886  16.328  0.00  0.00    +0.000 A 
ATOM     16  N   UNL     1      48.120   2.776  16.209  0.00  0.00    +0.000 NA
BRANCH  11  18
ATOM     17  C   UNL     1      51.378   1.791  17.393  0.00  0.00    +0.000 C 
ATOM     18  O   UNL     1      50.223   1.790  16.547  0.00  0.00    +0.000 OA
ENDBRANCH  11  18
ENDBRANCH  10  13
ENDBRANCH   8  10
ENDBRANCH   7   8
ENDBRANCH   1   7
BRANCH   6  19
ATOM     19  C   UNL     1      46.904   8.374  13.643  0.00  0.00    +0.000 C 
BRANCH  19  20
ATOM     20  N   UNL     1      46.817   7.090  12.884  0.00  0.00    +0.000 N 
ATOM     21  C   UNL     1      47.687   5.984  13.282  0.00  0.00    +0.000 C 
ATOM     22  C   UNL     1      45.808   7.012  11.920  0.00  0.00    +0.000 C 
ATOM     23  O   UNL     1      45.095   8.017  11.763  0.00  0.00    +0.000 OA
BRANCH  22  24
ATOM     24  C   UNL     1      45.375   5.809  11.224  0.00  0.00    +0.000 A 
ATOM     25  C   UNL     1      45.753   5.783   9.873  0.00  0.00    +0.000 A 
ATOM     26  S   UNL     1      45.260   4.429   9.006  0.00  0.00    +0.000 S 
ATOM     27  C   UNL     1      44.538   3.763  10.388  0.00  0.00    +0.000 A 
ATOM     28  N   UNL     1      43.901   2.576  10.278  0.00  0.00    +0.000 NA
ATOM     29  C   UNL     1      43.508   2.078  11.403  0.00  0.00    +0.000 A 
ATOM     30  N   UNL     1      43.690   2.677  12.616  0.00  0.00    +0.000 N 
ATOM     31  C   UNL     1      44.352   3.888  12.782  0.00  0.00    +0.000 A 
ATOM     32  O   UNL     1      44.606   4.322  13.902  0.00  0.00    +0.000 OA
ATOM     33  C   UNL     1      44.749   4.529  11.539  0.00  0.00    +0.000 A 
ATOM     34  H   UNL     1      43.424   2.183  13.455  0.00  0.00    +0.000 HD
ENDBRANCH  22  24
ENDBRANCH  19  20
ENDBRANCH   6  19
TORSDOF 8
ENDMDL
MODEL 5
REMARK VINA RESULT:    -6.666      2.254      3.892
REMARK INTER + INTRA:         -10.826
REMARK INTER:                  -9.447
REMARK INTRA:                  -1.379
REMARK UNBOUND:                -1.042
REMARK  Name = 
REMARK  11 active torsions:
REMARK  status: ('A' for Active; 'I' for Inactive)
REMARK    1  A    between atoms: C_1  and  O_2
REMARK    2  A    between atoms: O_2  and  C_3
REMARK    3  A    between atoms: C_5  and  C_6
REMARK    4  A    between atoms: C_6  and  N_7
REMARK    5  A    between atoms: N_7  and  C_8
REMARK    6  A    between atoms: N_7  and  C_9
REMARK    7  A    between atoms: C_9  and  C_10
REMARK    8  A    between atoms: C_15  and  C_16
REMARK    9  A    between atoms: C_16  and  N_17
REMARK   10  A    between atoms: N_17  and  C_18
REMARK   11  A    between atoms: C_19  and  C_21
REMARK                            x       y       z     vdW  Elec       q    Type
REMARK                         _______ _______ _______ _____ _____    ______ ____
ROOT
ATOM      1  C   UNL     1      48.948   8.905  12.393  0.00  0.00    +0.000 A 
ATOM      2  C   UNL     1      49.304   7.953  11.415  0.00  0.00    +0.000 A 
ATOM      3  C   UNL     1      50.646   7.735  11.038  0.00  0.00    +0.000 A 
ATOM      4  C   UNL     1      51.668   8.526  11.557  0.00  0.00    +0.000 A 
ATOM      5  C   UNL     1      51.357   9.411  12.574  0.00  0.00    +0.000 A 
ATOM      6  C   UNL     1      50.042   9.455  13.092  0.00  0.00    +0.000 A 
ENDROOT
BRANCH   1   7
ATOM      7  C   UNL     1      47.486   9.062  12.877  0.00  0.00    +0.000 C 
BRANCH   7   8
ATOM      8  N   UNL     1      46.409   8.252  12.170  0.00  0.00    +0.000 NA
ATOM      9  C   UNL     1      45.180   9.076  12.096  0.00  0.00    +0.000 C 
BRANCH   8  10
ATOM     10  C   UNL     1      46.044   7.018  12.927  0.00  0.00    +0.000 C 
BRANCH  10  13
ATOM     11  C   UNL     1      43.956   4.693  10.683  0.00  0.00    +0.000 A 
ATOM     12  C   UNL     1      45.061   5.435  11.074  0.00  0.00    +0.000 A 
ATOM     13  C   UNL     1      45.031   6.000  12.343  0.00  0.00    +0.000 A 
ATOM     14  N   UNL     1      43.966   5.763  13.164  0.00  0.00    +0.000 NA
ATOM     15  C   UNL     1      42.981   4.978  12.694  0.00  0.00    +0.000 A 
ATOM     16  N   UNL     1      42.911   4.434  11.480  0.00  0.00    +0.000 NA
BRANCH  11  18
ATOM     17  C   UNL     1      44.678   3.048   9.116  0.00  0.00    +0.000 C 
ATOM     18  O   UNL     1      43.935   4.244   9.377  0.00  0.00    +0.000 OA
ENDBRANCH  11  18
ENDBRANCH  10  13
ENDBRANCH   8  10
ENDBRANCH   7   8
ENDBRANCH   1   7
BRANCH   6  19
ATOM     19  C   UNL     1      49.925   9.689  14.579  0.00  0.00    +0.000 C 
BRANCH  19  20
ATOM     20  N   UNL     1      49.918   8.405  15.343  0.00  0.00    +0.000 N 
ATOM     21  C   UNL     1      51.059   7.502  15.200  0.00  0.00    +0.000 C 
ATOM     22  C   UNL     1      48.859   8.228  16.239  0.00  0.00    +0.000 C 
ATOM     23  O   UNL     1      48.013   9.134  16.302  0.00  0.00    +0.000 OA
BRANCH  22  24
ATOM     24  C   UNL     1      48.755   7.187  17.251  0.00  0.00    +0.000 A 
ATOM     25  C   UNL     1      48.808   7.681  18.563  0.00  0.00    +0.000 A 
ATOM     26  S   UNL     1      48.719   6.524  19.780  0.00  0.00    +0.000 S 
ATOM     27  C   UNL     1      48.564   5.281  18.636  0.00  0.00    +0.000 A 
ATOM     28  N   UNL     1      48.471   4.006  19.074  0.00  0.00    +0.000 NA
ATOM     29  C   UNL     1      48.213   3.145  18.148  0.00  0.00    +0.000 A 
ATOM     30  N   UNL     1      48.054   3.457  16.828  0.00  0.00    +0.000 N 
ATOM     31  C   UNL     1      48.124   4.753  16.332  0.00  0.00    +0.000 A 
ATOM     32  O   UNL     1      47.845   5.000  15.162  0.00  0.00    +0.000 OA
ATOM     33  C   UNL     1      48.489   5.754  17.322  0.00  0.00    +0.000 A 
ATOM     34  H   UNL     1      47.775   2.735  16.180  0.00  0.00    +0.000 HD
ENDBRANCH  22  24
ENDBRANCH  19  20
ENDBRANCH   6  19
TORSDOF 8
ENDMDL
MODEL 6
REMARK VINA RESULT:    -6.603      3.045      8.008
REMARK INTER + INTRA:         -10.734
REMARK INTER:                  -9.194
REMARK INTRA:                  -1.540
REMARK UNBOUND:                -1.042
REMARK  Name = 
REMARK  11 active torsions:
REMARK  status: ('A' for Active; 'I' for Inactive)
REMARK    1  A    between atoms: C_1  and  O_2
REMARK    2  A    between atoms: O_2  and  C_3
REMARK    3  A    between atoms: C_5  and  C_6
REMARK    4  A    between atoms: C_6  and  N_7
REMARK    5  A    between atoms: N_7  and  C_8
REMARK    6  A    between atoms: N_7  and  C_9
REMARK    7  A    between atoms: C_9  and  C_10
REMARK    8  A    between atoms: C_15  and  C_16
REMARK    9  A    between atoms: C_16  and  N_17
REMARK   10  A    between atoms: N_17  and  C_18
REMARK   11  A    between atoms: C_19  and  C_21
REMARK                            x       y       z     vdW  Elec       q    Type
REMARK                         _______ _______ _______ _____ _____    ______ ____
ROOT
ATOM      1  C   UNL     1      50.254   7.715  17.406  0.00  0.00    +0.000 A 
ATOM      2  C   UNL     1      49.389   7.975  18.490  0.00  0.00    +0.000 A 
ATOM      3  C   UNL     1      48.281   8.840  18.372  0.00  0.00    +0.000 A 
ATOM      4  C   UNL     1      48.054   9.548  17.194  0.00  0.00    +0.000 A 
ATOM      5  C   UNL     1      48.838   9.253  16.093  0.00  0.00    +0.000 A 
ATOM      6  C   UNL     1      49.801   8.221  16.170  0.00  0.00    +0.000 A 
ENDROOT
BRANCH   1   7
ATOM      7  C   UNL     1      51.404   6.685  17.515  0.00  0.00    +0.000 C 
BRANCH   7   8
ATOM      8  N   UNL     1      51.965   6.385  18.896  0.00  0.00    +0.000 NA
ATOM      9  C   UNL     1      53.444   6.375  18.806  0.00  0.00    +0.000 C 
BRANCH   8  10
ATOM     10  C   UNL     1      51.564   5.033  19.386  0.00  0.00    +0.000 C 
BRANCH  10  13
ATOM     11  C   UNL     1      49.652   2.573  17.128  0.00  0.00    +0.000 A 
ATOM     12  C   UNL     1      49.870   3.737  17.851  0.00  0.00    +0.000 A 
ATOM     13  C   UNL     1      51.136   3.924  18.390  0.00  0.00    +0.000 A 
ATOM     14  N   UNL     1      52.117   3.005  18.146  0.00  0.00    +0.000 NA
ATOM     15  C   UNL     1      51.802   1.947  17.381  0.00  0.00    +0.000 A 
ATOM     16  N   UNL     1      50.606   1.671  16.862  0.00  0.00    +0.000 NA
BRANCH  11  18
ATOM     17  C   UNL     1      47.322   2.869  17.535  0.00  0.00    +0.000 C 
ATOM     18  O   UNL     1      48.359   2.332  16.706  0.00  0.00    +0.000 OA
ENDBRANCH  11  18
ENDBRANCH  10  13
ENDBRANCH   8  10
ENDBRANCH   7   8
ENDBRANCH   1   7
BRANCH   6  19
ATOM     19  C   UNL     1      49.977   7.386  14.924  0.00  0.00    +0.000 C 
BRANCH  19  20
ATOM     20  N   UNL     1      48.727   6.647  14.571  0.00  0.00    +0.000 N 
ATOM     21  C   UNL     1      48.041   5.896  15.621  0.00  0.00    +0.000 C 
ATOM     22  C   UNL     1      48.245   6.837  13.273  0.00  0.00    +0.000 C 
ATOM     23  O   UNL     1      48.906   7.578  12.526  0.00  0.00    +0.000 OA
BRANCH  22  24
ATOM     24  C   UNL     1      46.944   6.422  12.770  0.00  0.00    +0.000 A 
ATOM     25  C   UNL     1      46.293   7.417  12.026  0.00  0.00    +0.000 A 
ATOM     26  S   UNL     1      44.771   7.008  11.438  0.00  0.00    +0.000 S 
ATOM     27  C   UNL     1      44.893   5.453  12.104  0.00  0.00    +0.000 A 
ATOM     28  N   UNL     1      43.854   4.602  11.957  0.00  0.00    +0.000 NA
ATOM     29  C   UNL     1      44.090   3.401  12.368  0.00  0.00    +0.000 A 
ATOM     30  N   UNL     1      45.269   2.993  12.921  0.00  0.00    +0.000 N 
ATOM     31  C   UNL     1      46.371   3.825  13.079  0.00  0.00    +0.000 A 
ATOM     32  O   UNL     1      47.451   3.381  13.459  0.00  0.00    +0.000 OA
ATOM     33  C   UNL     1      46.134   5.210  12.701  0.00  0.00    +0.000 A 
ATOM     34  H   UNL     1      45.399   2.017  13.143  0.00  0.00    +0.000 HD
ENDBRANCH  22  24
ENDBRANCH  19  20
ENDBRANCH   6  19
TORSDOF 8
ENDMDL
MODEL 7
REMARK VINA RESULT:    -6.480      2.841      4.510
REMARK INTER + INTRA:         -10.552
REMARK INTER:                  -8.928
REMARK INTRA:                  -1.625
REMARK UNBOUND:                -1.042
REMARK  Name = 
REMARK  11 active torsions:
REMARK  status: ('A' for Active; 'I' for Inactive)
REMARK    1  A    between atoms: C_1  and  O_2
REMARK    2  A    between atoms: O_2  and  C_3
REMARK    3  A    between atoms: C_5  and  C_6
REMARK    4  A    between atoms: C_6  and  N_7
REMARK    5  A    between atoms: N_7  and  C_8
REMARK    6  A    between atoms: N_7  and  C_9
REMARK    7  A    between atoms: C_9  and  C_10
REMARK    8  A    between atoms: C_15  and  C_16
REMARK    9  A    between atoms: C_16  and  N_17
REMARK   10  A    between atoms: N_17  and  C_18
REMARK   11  A    between atoms: C_19  and  C_21
REMARK                            x       y       z     vdW  Elec       q    Type
REMARK                         _______ _______ _______ _____ _____    ______ ____
ROOT
ATOM      1  C   UNL     1      48.142   8.812  13.079  0.00  0.00    +0.000 A 
ATOM      2  C   UNL     1      48.625   9.187  11.808  0.00  0.00    +0.000 A 
ATOM      3  C   UNL     1      50.004   9.271  11.526  0.00  0.00    +0.000 A 
ATOM      4  C   UNL     1      50.949   9.075  12.531  0.00  0.00    +0.000 A 
ATOM      5  C   UNL     1      50.507   8.630  13.764  0.00  0.00    +0.000 A 
ATOM      6  C   UNL     1      49.137   8.339  13.959  0.00  0.00    +0.000 A 
ENDROOT
BRANCH   1   7
ATOM      7  C   UNL     1      46.630   8.619  13.349  0.00  0.00    +0.000 C 
BRANCH   7   8
ATOM      8  N   UNL     1      45.759   8.121  12.206  0.00  0.00    +0.000 NA
ATOM      9  C   UNL     1      45.001   9.272  11.663  0.00  0.00    +0.000 C 
BRANCH   8  10
ATOM     10  C   UNL     1      44.745   7.125  12.663  0.00  0.00    +0.000 C 
BRANCH  10  13
ATOM     11  C   UNL     1      46.402   3.784  13.608  0.00  0.00    +0.000 A 
ATOM     12  C   UNL     1      46.080   5.128  13.729  0.00  0.00    +0.000 A 
ATOM     13  C   UNL     1      45.127   5.635  12.854  0.00  0.00    +0.000 A 
ATOM     14  N   UNL     1      44.512   4.799  11.966  0.00  0.00    +0.000 NA
ATOM     15  C   UNL     1      44.866   3.503  11.984  0.00  0.00    +0.000 A 
ATOM     16  N   UNL     1      45.797   2.946  12.758  0.00  0.00    +0.000 NA
BRANCH  11  18
ATOM     17  C   UNL     1      47.380   3.665  15.779  0.00  0.00    +0.000 C 
ATOM     18  O   UNL     1      47.440   3.318  14.391  0.00  0.00    +0.000 OA
ENDBRANCH  11  18
ENDBRANCH  10  13
ENDBRANCH   8  10
ENDBRANCH   7   8
ENDBRANCH   1   7
BRANCH   6  19
ATOM     19  C   UNL     1      48.833   7.155  14.848  0.00  0.00    +0.000 C 
BRANCH  19  20
ATOM     20  N   UNL     1      48.987   7.494  16.294  0.00  0.00    +0.000 N 
ATOM     21  C   UNL     1      48.324   8.693  16.805  0.00  0.00    +0.000 C 
ATOM     22  C   UNL     1      49.663   6.554  17.078  0.00  0.00    +0.000 C 
ATOM     23  O   UNL     1      50.093   5.541  16.502  0.00  0.00    +0.000 OA
BRANCH  22  24
ATOM     24  C   UNL     1      49.737   6.541  18.531  0.00  0.00    +0.000 A 
ATOM     25  C   UNL     1      50.927   7.092  19.031  0.00  0.00    +0.000 A 
ATOM     26  S   UNL     1      51.086   7.083  20.705  0.00  0.00    +0.000 S 
ATOM     27  C   UNL     1      49.555   6.375  20.882  0.00  0.00    +0.000 A 
ATOM     28  N   UNL     1      49.116   6.084  22.127  0.00  0.00    +0.000 NA
ATOM     29  C   UNL     1      47.890   5.683  22.176  0.00  0.00    +0.000 A 
ATOM     30  N   UNL     1      47.081   5.540  21.086  0.00  0.00    +0.000 N 
ATOM     31  C   UNL     1      47.480   5.842  19.790  0.00  0.00    +0.000 A 
ATOM     32  O   UNL     1      46.679   5.823  18.859  0.00  0.00    +0.000 OA
ATOM     33  C   UNL     1      48.878   6.226  19.668  0.00  0.00    +0.000 A 
ATOM     34  H   UNL     1      46.110   5.298  21.220  0.00  0.00    +0.000 HD
ENDBRANCH  22  24
ENDBRANCH  19  20
ENDBRANCH   6  19
TORSDOF 8
ENDMDL
MODEL 8
REMARK VINA RESULT:    -6.338      2.326      7.744
REMARK INTER + INTRA:         -10.345
REMARK INTER:                  -9.171
REMARK INTRA:                  -1.173
REMARK UNBOUND:                -1.042
REMARK  Name = 
REMARK  11 active torsions:
REMARK  status: ('A' for Active; 'I' for Inactive)
REMARK    1  A    between atoms: C_1  and  O_2
REMARK    2  A    between atoms: O_2  and  C_3
REMARK    3  A    between atoms: C_5  and  C_6
REMARK    4  A    between atoms: C_6  and  N_7
REMARK    5  A    between atoms: N_7  and  C_8
REMARK    6  A    between atoms: N_7  and  C_9
REMARK    7  A    between atoms: C_9  and  C_10
REMARK    8  A    between atoms: C_15  and  C_16
REMARK    9  A    between atoms: C_16  and  N_17
REMARK   10  A    between atoms: N_17  and  C_18
REMARK   11  A    between atoms: C_19  and  C_21
REMARK                            x       y       z     vdW  Elec       q    Type
REMARK                         _______ _______ _______ _____ _____    ______ ____
ROOT
ATOM      1  C   UNL     1      48.528   9.657  12.785  0.00  0.00    +0.000 A 
ATOM      2  C   UNL     1      48.810  11.032  12.645  0.00  0.00    +0.000 A 
ATOM      3  C   UNL     1      47.922  11.915  11.995  0.00  0.00    +0.000 A 
ATOM      4  C   UNL     1      46.767  11.438  11.381  0.00  0.00    +0.000 A 
ATOM      5  C   UNL     1      46.427  10.111  11.572  0.00  0.00    +0.000 A 
ATOM      6  C   UNL     1      47.218   9.294  12.413  0.00  0.00    +0.000 A 
ENDROOT
BRANCH   1   7
ATOM      7  C   UNL     1      49.457   8.717  13.591  0.00  0.00    +0.000 C 
BRANCH   7   8
ATOM      8  N   UNL     1      49.171   8.530  15.074  0.00  0.00    +0.000 NA
ATOM      9  C   UNL     1      49.907   9.574  15.825  0.00  0.00    +0.000 C 
BRANCH   8  10
ATOM     10  C   UNL     1      49.666   7.216  15.582  0.00  0.00    +0.000 C 
BRANCH  10  13
ATOM     11  C   UNL     1      47.853   5.504  18.511  0.00  0.00    +0.000 A 
ATOM     12  C   UNL     1      48.525   6.517  17.843  0.00  0.00    +0.000 A 
ATOM     13  C   UNL     1      48.775   6.330  16.489  0.00  0.00    +0.000 A 
ATOM     14  N   UNL     1      48.309   5.208  15.865  0.00  0.00    +0.000 NA
ATOM     15  C   UNL     1      47.619   4.325  16.605  0.00  0.00    +0.000 A 
ATOM     16  N   UNL     1      47.373   4.406  17.912  0.00  0.00    +0.000 NA
BRANCH  11  18
ATOM     17  C   UNL     1      47.666   6.979  20.374  0.00  0.00    +0.000 C 
ATOM     18  O   UNL     1      47.722   5.636  19.879  0.00  0.00    +0.000 OA
ENDBRANCH  11  18
ENDBRANCH  10  13
ENDBRANCH   8  10
ENDBRANCH   7   8
ENDBRANCH   1   7
BRANCH   6  19
ATOM     19  C   UNL     1      46.468   8.283  13.248  0.00  0.00    +0.000 C 
BRANCH  19  20
ATOM     20  N   UNL     1      46.397   6.951  12.574  0.00  0.00    +0.000 N 
ATOM     21  C   UNL     1      47.563   6.072  12.642  0.00  0.00    +0.000 C 
ATOM     22  C   UNL     1      45.158   6.602  12.029  0.00  0.00    +0.000 C 
ATOM     23  O   UNL     1      44.240   7.433  12.131  0.00  0.00    +0.000 OA
BRANCH  22  24
ATOM     24  C   UNL     1      44.776   5.288  11.536  0.00  0.00    +0.000 A 
ATOM     25  C   UNL     1      43.838   4.639  12.354  0.00  0.00    +0.000 A 
ATOM     26  S   UNL     1      43.374   3.102  11.852  0.00  0.00    +0.000 S 
ATOM     27  C   UNL     1      44.367   3.212  10.482  0.00  0.00    +0.000 A 
ATOM     28  N   UNL     1      44.426   2.157   9.638  0.00  0.00    +0.000 NA
ATOM     29  C   UNL     1      45.090   2.382   8.554  0.00  0.00    +0.000 A 
ATOM     30  N   UNL     1      45.705   3.563   8.258  0.00  0.00    +0.000 N 
ATOM     31  C   UNL     1      45.661   4.680   9.084  0.00  0.00    +0.000 A 
ATOM     32  O   UNL     1      46.116   5.759   8.716  0.00  0.00    +0.000 OA
ATOM     33  C   UNL     1      44.988   4.458  10.355  0.00  0.00    +0.000 A 
ATOM     34  H   UNL     1      46.137   3.682   7.353  0.00  0.00    +0.000 HD
ENDBRANCH  22  24
ENDBRANCH  19  20
ENDBRANCH   6  19
TORSDOF 8
ENDMDL
MODEL 9
REMARK VINA RESULT:    -6.260      2.457      3.951
REMARK INTER + INTRA:         -10.230
REMARK INTER:                  -8.952
REMARK INTRA:                  -1.278
REMARK UNBOUND:                -1.042
REMARK  Name = 
REMARK  11 active torsions:
REMARK  status: ('A' for Active; 'I' for Inactive)
REMARK    1  A    between atoms: C_1  and  O_2
REMARK    2  A    between atoms: O_2  and  C_3
REMARK    3  A    between atoms: C_5  and  C_6
REMARK    4  A    between atoms: C_6  and  N_7
REMARK    5  A    between atoms: N_7  and  C_8
REMARK    6  A    between atoms: N_7  and  C_9
REMARK    7  A    between atoms: C_9  and  C_10
REMARK    8  A    between atoms: C_15  and  C_16
REMARK    9  A    between atoms: C_16  and  N_17
REMARK   10  A    between atoms: N_17  and  C_18
REMARK   11  A    between atoms: C_19  and  C_21
REMARK                            x       y       z     vdW  Elec       q    Type
REMARK                         _______ _______ _______ _____ _____    ______ ____
ROOT
ATOM      1  C   UNL     1      48.494   8.744  12.861  0.00  0.00    +0.000 A 
ATOM      2  C   UNL     1      49.143   8.978  11.631  0.00  0.00    +0.000 A 
ATOM      3  C   UNL     1      50.543   8.874  11.492  0.00  0.00    +0.000 A 
ATOM      4  C   UNL     1      51.351   8.625  12.600  0.00  0.00    +0.000 A 
ATOM      5  C   UNL     1      50.736   8.315  13.799  0.00  0.00    +0.000 A 
ATOM      6  C   UNL     1      49.328   8.207  13.863  0.00  0.00    +0.000 A 
ENDROOT
BRANCH   1   7
ATOM      7  C   UNL     1      46.951   8.756  12.979  0.00  0.00    +0.000 C 
BRANCH   7   8
ATOM      8  N   UNL     1      46.162   7.781  12.119  0.00  0.00    +0.000 NA
ATOM      9  C   UNL     1      44.929   8.460  11.657  0.00  0.00    +0.000 C 
BRANCH   8  10
ATOM     10  C   UNL     1      45.718   6.582  12.891  0.00  0.00    +0.000 C 
BRANCH  10  13
ATOM     11  C   UNL     1      44.302   3.989  10.427  0.00  0.00    +0.000 A 
ATOM     12  C   UNL     1      45.227   4.881  10.949  0.00  0.00    +0.000 A 
ATOM     13  C   UNL     1      44.949   5.430  12.194  0.00  0.00    +0.000 A 
ATOM     14  N   UNL     1      43.830   5.036  12.871  0.00  0.00    +0.000 NA
ATOM     15  C   UNL     1      43.040   4.119  12.289  0.00  0.00    +0.000 A 
ATOM     16  N   UNL     1      43.210   3.576  11.083  0.00  0.00    +0.000 NA
BRANCH  11  18
ATOM     17  C   UNL     1      44.918   2.179   9.002  0.00  0.00    +0.000 C 
ATOM     18  O   UNL     1      44.519   3.548   9.135  0.00  0.00    +0.000 OA
ENDBRANCH  11  18
ENDBRANCH  10  13
ENDBRANCH   8  10
ENDBRANCH   7   8
ENDBRANCH   1   7
BRANCH   6  19
ATOM     19  C   UNL     1      48.788   7.126  14.770  0.00  0.00    +0.000 C 
BRANCH  19  20
ATOM     20  N   UNL     1      48.992   7.460  16.212  0.00  0.00    +0.000 N 
ATOM     21  C   UNL     1      48.417   8.701  16.729  0.00  0.00    +0.000 C 
ATOM     22  C   UNL     1      49.621   6.482  16.987  0.00  0.00    +0.000 C 
ATOM     23  O   UNL     1      49.975   5.442  16.409  0.00  0.00    +0.000 OA
BRANCH  22  24
ATOM     24  C   UNL     1      49.724   6.470  18.439  0.00  0.00    +0.000 A 
ATOM     25  C   UNL     1      50.924   7.019  18.916  0.00  0.00    +0.000 A 
ATOM     26  S   UNL     1      51.115   7.010  20.586  0.00  0.00    +0.000 S 
ATOM     27  C   UNL     1      49.586   6.307  20.793  0.00  0.00    +0.000 A 
ATOM     28  N   UNL     1      49.170   6.018  22.046  0.00  0.00    +0.000 NA
ATOM     29  C   UNL     1      47.944   5.621  22.119  0.00  0.00    +0.000 A 
ATOM     30  N   UNL     1      47.114   5.479  21.045  0.00  0.00    +0.000 N 
ATOM     31  C   UNL     1      47.489   5.778  19.741  0.00  0.00    +0.000 A 
ATOM     32  O   UNL     1      46.670   5.761  18.826  0.00  0.00    +0.000 OA
ATOM     33  C   UNL     1      48.885   6.158  19.592  0.00  0.00    +0.000 A 
ATOM     34  H   UNL     1      46.145   5.239  21.197  0.00  0.00    +0.000 HD
ENDBRANCH  22  24
ENDBRANCH  19  20
ENDBRANCH   6  19
TORSDOF 8
ENDMDL
