MODEL 1
REMARK VINA RESULT:    -7.073      0.000      0.000
REMARK INTER + INTRA:         -13.310
REMARK INTER:                 -11.828
REMARK INTRA:                  -1.483
REMARK UNBOUND:                -1.483
REMARK  Name = 
REMARK  14 active torsions:
REMARK  status: ('A' for Active; 'I' for Inactive)
REMARK    1  A    between atoms: C_1  and  N_2
REMARK    2  A    between atoms: N_2  and  C_3
REMARK    3  A    between atoms: C_3  and  C_4
REMARK    4  A    between atoms: C_3  and  C_14
REMARK    5  A    between atoms: C_4  and  N_5
REMARK    6  A    between atoms: N_5  and  C_6
REMARK    7  A    between atoms: N_5  and  C_7
REMARK    8  A    between atoms: C_7  and  C_8
REMARK    9  A    between atoms: C_17  and  C_18
REMARK   10  A    between atoms: C_18  and  N_19
REMARK   11  A    between atoms: N_19  and  C_20
REMARK   12  A    between atoms: C_20  and  C_21
REMARK   13  A    between atoms: C_21  and  O_22
REMARK   14  A    between atoms: C_23  and  C_25
REMARK                            x       y       z     vdW  Elec       q    Type
REMARK                         _______ _______ _______ _____ _____    ______ ____
ROOT
ATOM      1  C   UNL     1      46.869   5.642  13.260  0.00  0.00    +0.000 A 
ATOM      2  C   UNL     1      46.740   4.699  14.285  0.00  0.00    +0.000 A 
ATOM      3  C   UNL     1      47.459   4.811  15.471  0.00  0.00    +0.000 A 
ATOM      4  C   UNL     1      48.293   5.902  15.710  0.00  0.00    +0.000 A 
ATOM      5  C   UNL     1      48.438   6.858  14.690  0.00  0.00    +0.000 A 
ATOM      6  C   UNL     1      47.732   6.732  13.473  0.00  0.00    +0.000 A 
ENDROOT
BRANCH   1   7
ATOM      7  C   UNL     1      46.103   5.367  11.964  0.00  0.00    +0.000 C 
BRANCH   7   9
ATOM      8  C   UNL     1      44.685   7.276  11.448  0.00  0.00    +0.000 C 
ATOM      9  N   UNL     1      45.918   6.564  11.115  0.00  0.00    +0.000 NA
ATOM     10  H   UNL     1      46.717   7.176  11.294  0.00  0.00    +0.000 HD
ENDBRANCH   7   9
BRANCH   7  11
ATOM     11  C   UNL     1      44.756   4.584  12.224  0.00  0.00    +0.000 C 
BRANCH  11  12
ATOM     12  N   UNL     1      44.484   3.394  11.354  0.00  0.00    +0.000 NA
ATOM     13  C   UNL     1      43.296   2.639  11.784  0.00  0.00    +0.000 C 
BRANCH  12  14
ATOM     14  C   UNL     1      44.222   3.821   9.945  0.00  0.00    +0.000 C 
BRANCH  14  15
ATOM     15  C   UNL     1      45.201   3.329   8.905  0.00  0.00    +0.000 A 
ATOM     16  C   UNL     1      45.545   1.985   8.825  0.00  0.00    +0.000 A 
ATOM     17  N   UNL     1      46.440   1.509   7.925  0.00  0.00    +0.000 NA
ATOM     18  C   UNL     1      46.983   2.438   7.107  0.00  0.00    +0.000 A 
ATOM     19  C   UNL     1      46.631   3.774   7.163  0.00  0.00    +0.000 A 
ATOM     20  N   UNL     1      45.732   4.249   8.054  0.00  0.00    +0.000 NA
ENDBRANCH  14  15
ENDBRANCH  12  14
ENDBRANCH  11  12
ENDBRANCH   7  11
ENDBRANCH   1   7
BRANCH   4  21
ATOM     21  C   UNL     1      48.897   6.049  17.090  0.00  0.00    +0.000 C 
BRANCH  21  22
ATOM     22  N   UNL     1      50.228   5.465  17.287  0.00  0.00    +0.000 N 
ATOM     23  C   UNL     1      50.334   4.370  18.171  0.00  0.00    +0.000 C 
ATOM     24  O   UNL     1      49.344   3.869  18.683  0.00  0.00    +0.000 OA
BRANCH  23  25
ATOM     25  C   UNL     1      51.665   3.834  18.545  0.00  0.00    +0.000 A 
ATOM     26  C   UNL     1      52.519   4.434  19.454  0.00  0.00    +0.000 A 
ATOM     27  S   UNL     1      53.946   3.541  19.742  0.00  0.00    +0.000 S 
ATOM     28  C   UNL     1      53.388   2.243  18.794  0.00  0.00    +0.000 A 
ATOM     29  N   UNL     1      54.093   1.082  18.719  0.00  0.00    +0.000 NA
ATOM     30  C   UNL     1      53.513   0.159  18.023  0.00  0.00    +0.000 A 
ATOM     31  N   UNL     1      52.317   0.312  17.368  0.00  0.00    +0.000 N 
ATOM     32  C   UNL     1      51.632   1.507  17.318  0.00  0.00    +0.000 A 
ATOM     33  O   UNL     1      50.683   1.663  16.558  0.00  0.00    +0.000 OA
ATOM     34  C   UNL     1      52.183   2.536  18.183  0.00  0.00    +0.000 A 
ATOM     35  H   UNL     1      51.948  -0.432  16.794  0.00  0.00    +0.000 HD
ENDBRANCH  23  25
BRANCH  22  36
ATOM     36  C   UNL     1      51.341   6.169  16.631  0.00  0.00    +0.000 C 
BRANCH  36  37
ATOM     37  C   UNL     1      51.487   7.638  17.020  0.00  0.00    +0.000 C 
BRANCH  37  38
ATOM     38  O   UNL     1      52.216   7.740  18.237  0.00  0.00    +0.000 OA
ATOM     39  H   UNL     1      53.133   7.477  18.050  0.00  0.00    +0.000 HD
ENDBRANCH  37  38
ENDBRANCH  36  37
ENDBRANCH  22  36
ENDBRANCH  21  22
ENDBRANCH   4  21
TORSDOF 12
ENDMDL
MODEL 2
REMARK VINA RESULT:    -6.844      2.866      3.701
REMARK INTER + INTRA:         -12.927
REMARK INTER:                 -11.423
REMARK INTRA:                  -1.504
REMARK UNBOUND:                -1.483
REMARK  Name = 
REMARK  14 active torsions:
REMARK  status: ('A' for Active; 'I' for Inactive)
REMARK    1  A    between atoms: C_1  and  N_2
REMARK    2  A    between atoms: N_2  and  C_3
REMARK    3  A    between atoms: C_3  and  C_4
REMARK    4  A    between atoms: C_3  and  C_14
REMARK    5  A    between atoms: C_4  and  N_5
REMARK    6  A    between atoms: N_5  and  C_6
REMARK    7  A    between atoms: N_5  and  C_7
REMARK    8  A    between atoms: C_7  and  C_8
REMARK    9  A    between atoms: C_17  and  C_18
REMARK   10  A    between atoms: C_18  and  N_19
REMARK   11  A    between atoms: N_19  and  C_20
REMARK   12  A    between atoms: C_20  and  C_21
REMARK   13  A    between atoms: C_21  and  O_22
REMARK   14  A    between atoms: C_23  and  C_25
REMARK                            x       y       z     vdW  Elec       q    Type
REMARK                         _______ _______ _______ _____ _____    ______ ____
ROOT
ATOM      1  C   UNL     1      45.643   6.795  11.946  0.00  0.00    +0.000 A 
ATOM      2  C   UNL     1      46.986   6.405  11.996  0.00  0.00    +0.000 A 
ATOM      3  C   UNL     1      47.962   7.230  12.546  0.00  0.00    +0.000 A 
ATOM      4  C   UNL     1      47.632   8.456  13.122  0.00  0.00    +0.000 A 
ATOM      5  C   UNL     1      46.289   8.866  13.076  0.00  0.00    +0.000 A 
ATOM      6  C   UNL     1      45.300   8.044  12.494  0.00  0.00    +0.000 A 
ENDROOT
BRANCH   1   7
ATOM      7  C   UNL     1      44.673   5.849  11.235  0.00  0.00    +0.000 C 
BRANCH   7   9
ATOM      8  C   UNL     1      42.301   5.824  11.779  0.00  0.00    +0.000 C 
ATOM      9  N   UNL     1      43.346   6.447  10.968  0.00  0.00    +0.000 NA
ATOM     10  H   UNL     1      43.416   7.437  11.213  0.00  0.00    +0.000 HD
ENDBRANCH   7   9
BRANCH   7  11
ATOM     11  C   UNL     1      44.581   4.443  11.949  0.00  0.00    +0.000 C 
BRANCH  11  12
ATOM     12  N   UNL     1      44.534   3.235  11.063  0.00  0.00    +0.000 NA
ATOM     13  C   UNL     1      43.434   2.322  11.412  0.00  0.00    +0.000 C 
BRANCH  12  14
ATOM     14  C   UNL     1      44.311   3.634   9.639  0.00  0.00    +0.000 C 
BRANCH  14  15
ATOM     15  C   UNL     1      45.334   3.147   8.641  0.00  0.00    +0.000 A 
ATOM     16  C   UNL     1      45.751   1.821   8.631  0.00  0.00    +0.000 A 
ATOM     17  N   UNL     1      46.687   1.353   7.770  0.00  0.00    +0.000 NA
ATOM     18  C   UNL     1      47.196   2.269   6.918  0.00  0.00    +0.000 A 
ATOM     19  C   UNL     1      46.772   3.586   6.904  0.00  0.00    +0.000 A 
ATOM     20  N   UNL     1      45.833   4.053   7.755  0.00  0.00    +0.000 NA
ENDBRANCH  14  15
ENDBRANCH  12  14
ENDBRANCH  11  12
ENDBRANCH   7  11
ENDBRANCH   1   7
BRANCH   4  21
ATOM     21  C   UNL     1      48.716   9.211  13.860  0.00  0.00    +0.000 C 
BRANCH  21  22
ATOM     22  N   UNL     1      49.033   8.743  15.214  0.00  0.00    +0.000 N 
ATOM     23  C   UNL     1      50.111   7.844  15.356  0.00  0.00    +0.000 C 
ATOM     24  O   UNL     1      50.811   7.536  14.403  0.00  0.00    +0.000 OA
BRANCH  23  25
ATOM     25  C   UNL     1      50.386   7.204  16.665  0.00  0.00    +0.000 A 
ATOM     26  C   UNL     1      51.263   7.708  17.609  0.00  0.00    +0.000 A 
ATOM     27  S   UNL     1      51.309   6.797  19.053  0.00  0.00    +0.000 S 
ATOM     28  C   UNL     1      50.033   5.802  18.529  0.00  0.00    +0.000 A 
ATOM     29  N   UNL     1      49.491   4.870  19.358  0.00  0.00    +0.000 NA
ATOM     30  C   UNL     1      48.481   4.239  18.850  0.00  0.00    +0.000 A 
ATOM     31  N   UNL     1      48.000   4.432  17.581  0.00  0.00    +0.000 N 
ATOM     32  C   UNL     1      48.595   5.277  16.668  0.00  0.00    +0.000 A 
ATOM     33  O   UNL     1      48.266   5.268  15.488  0.00  0.00    +0.000 OA
ATOM     34  C   UNL     1      49.656   6.094  17.230  0.00  0.00    +0.000 A 
ATOM     35  H   UNL     1      47.243   3.864  17.228  0.00  0.00    +0.000 HD
ENDBRANCH  23  25
BRANCH  22  36
ATOM     36  C   UNL     1      48.106   9.170  16.273  0.00  0.00    +0.000 C 
BRANCH  36  37
ATOM     37  C   UNL     1      48.606  10.330  17.132  0.00  0.00    +0.000 C 
BRANCH  37  38
ATOM     38  O   UNL     1      47.562  11.281  17.305  0.00  0.00    +0.000 OA
ATOM     39  H   UNL     1      47.968  12.101  17.637  0.00  0.00    +0.000 HD
ENDBRANCH  37  38
ENDBRANCH  36  37
ENDBRANCH  22  36
ENDBRANCH  21  22
ENDBRANCH   4  21
TORSDOF 12
ENDMDL
MODEL 3
REMARK VINA RESULT:    -6.783      1.263      2.205
REMARK INTER + INTRA:         -12.826
REMARK INTER:                 -11.851
REMARK INTRA:                  -0.975
REMARK UNBOUND:                -1.483
REMARK  Name = 
REMARK  14 active torsions:
REMARK  status: ('A' for Active; 'I' for Inactive)
REMARK    1  A    between atoms: C_1  and  N_2
REMARK    2  A    between atoms: N_2  and  C_3
REMARK    3  A    between atoms: C_3  and  C_4
REMARK    4  A    between atoms: C_3  and  C_14
REMARK    5  A    between atoms: C_4  and  N_5
REMARK    6  A    between atoms: N_5  and  C_6
REMARK    7  A    between atoms: N_5  and  C_7
REMARK    8  A    between atoms: C_7  and  C_8
REMARK    9  A    between atoms: C_17  and  C_18
REMARK   10  A    between atoms: C_18  and  N_19
REMARK   11  A    between atoms: N_19  and  C_20
REMARK   12  A    between atoms: C_20  and  C_21
REMARK   13  A    between atoms: C_21  and  O_22
REMARK   14  A    between atoms: C_23  and  C_25
REMARK                            x       y       z     vdW  Elec       q    Type
REMARK                         _______ _______ _______ _____ _____    ______ ____
ROOT
ATOM      1  C   UNL     1      47.429   5.466  14.318  0.00  0.00    +0.000 A 
ATOM      2  C   UNL     1      48.141   6.660  14.476  0.00  0.00    +0.000 A 
ATOM      3  C   UNL     1      48.698   7.017  15.700  0.00  0.00    +0.000 A 
ATOM      4  C   UNL     1      48.621   6.170  16.805  0.00  0.00    +0.000 A 
ATOM      5  C   UNL     1      47.907   4.967  16.665  0.00  0.00    +0.000 A 
ATOM      6  C   UNL     1      47.315   4.615  15.432  0.00  0.00    +0.000 A 
ENDROOT
BRANCH   1   7
ATOM      7  C   UNL     1      46.780   5.222  12.954  0.00  0.00    +0.000 C 
BRANCH   7   9
ATOM      8  C   UNL     1      45.845   7.261  12.009  0.00  0.00    +0.000 C 
ATOM      9  N   UNL     1      46.974   6.332  11.995  0.00  0.00    +0.000 NA
ATOM     10  H   UNL     1      47.819   6.827  12.287  0.00  0.00    +0.000 HD
ENDBRANCH   7   9
BRANCH   7  11
ATOM     11  C   UNL     1      45.269   4.780  13.085  0.00  0.00    +0.000 C 
BRANCH  11  12
ATOM     12  N   UNL     1      44.791   3.711  12.149  0.00  0.00    +0.000 NA
ATOM     13  C   UNL     1      43.621   2.986  12.670  0.00  0.00    +0.000 C 
BRANCH  12  14
ATOM     14  C   UNL     1      44.369   4.305  10.843  0.00  0.00    +0.000 C 
BRANCH  14  15
ATOM     15  C   UNL     1      45.102   3.815   9.618  0.00  0.00    +0.000 A 
ATOM     16  C   UNL     1      45.644   4.708   8.702  0.00  0.00    +0.000 A 
ATOM     17  N   UNL     1      46.284   4.308   7.576  0.00  0.00    +0.000 NA
ATOM     18  C   UNL     1      46.357   2.970   7.400  0.00  0.00    +0.000 A 
ATOM     19  C   UNL     1      45.841   2.071   8.317  0.00  0.00    +0.000 A 
ATOM     20  N   UNL     1      45.210   2.469   9.444  0.00  0.00    +0.000 NA
ENDBRANCH  14  15
ENDBRANCH  12  14
ENDBRANCH  11  12
ENDBRANCH   7  11
ENDBRANCH   1   7
BRANCH   4  21
ATOM     21  C   UNL     1      49.406   6.541  18.044  0.00  0.00    +0.000 C 
BRANCH  21  22
ATOM     22  N   UNL     1      50.453   5.601  18.461  0.00  0.00    +0.000 N 
ATOM     23  C   UNL     1      51.516   5.370  17.562  0.00  0.00    +0.000 C 
ATOM     24  O   UNL     1      51.611   5.996  16.517  0.00  0.00    +0.000 OA
BRANCH  23  25
ATOM     25  C   UNL     1      52.520   4.316  17.844  0.00  0.00    +0.000 A 
ATOM     26  C   UNL     1      53.768   4.555  18.392  0.00  0.00    +0.000 A 
ATOM     27  S   UNL     1      54.673   3.134  18.676  0.00  0.00    +0.000 S 
ATOM     28  C   UNL     1      53.359   2.147  18.238  0.00  0.00    +0.000 A 
ATOM     29  N   UNL     1      53.427   0.795  18.374  0.00  0.00    +0.000 NA
ATOM     30  C   UNL     1      52.330   0.180  18.072  0.00  0.00    +0.000 A 
ATOM     31  N   UNL     1      51.194   0.794  17.611  0.00  0.00    +0.000 N 
ATOM     32  C   UNL     1      51.122   2.145  17.342  0.00  0.00    +0.000 A 
ATOM     33  O   UNL     1      50.168   2.621  16.739  0.00  0.00    +0.000 OA
ATOM     34  C   UNL     1      52.288   2.892  17.779  0.00  0.00    +0.000 A 
ATOM     35  H   UNL     1      50.390   0.247  17.338  0.00  0.00    +0.000 HD
ENDBRANCH  23  25
BRANCH  22  36
ATOM     36  C   UNL     1      50.215   4.899  19.732  0.00  0.00    +0.000 C 
BRANCH  36  37
ATOM     37  C   UNL     1      48.748   4.799  20.142  0.00  0.00    +0.000 C 
BRANCH  37  38
ATOM     38  O   UNL     1      48.404   3.436  20.361  0.00  0.00    +0.000 OA
ATOM     39  H   UNL     1      47.436   3.391  20.450  0.00  0.00    +0.000 HD
ENDBRANCH  37  38
ENDBRANCH  36  37
ENDBRANCH  22  36
ENDBRANCH  21  22
ENDBRANCH   4  21
TORSDOF 12
ENDMDL
MODEL 4
REMARK VINA RESULT:    -6.353      3.736      9.151
REMARK INTER + INTRA:         -12.107
REMARK INTER:                 -10.156
REMARK INTRA:                  -1.951
REMARK UNBOUND:                -1.483
REMARK  Name = 
REMARK  14 active torsions:
REMARK  status: ('A' for Active; 'I' for Inactive)
REMARK    1  A    between atoms: C_1  and  N_2
REMARK    2  A    between atoms: N_2  and  C_3
REMARK    3  A    between atoms: C_3  and  C_4
REMARK    4  A    between atoms: C_3  and  C_14
REMARK    5  A    between atoms: C_4  and  N_5
REMARK    6  A    between atoms: N_5  and  C_6
REMARK    7  A    between atoms: N_5  and  C_7
REMARK    8  A    between atoms: C_7  and  C_8
REMARK    9  A    between atoms: C_17  and  C_18
REMARK   10  A    between atoms: C_18  and  N_19
REMARK   11  A    between atoms: N_19  and  C_20
REMARK   12  A    between atoms: C_20  and  C_21
REMARK   13  A    between atoms: C_21  and  O_22
REMARK   14  A    between atoms: C_23  and  C_25
REMARK                            x       y       z     vdW  Elec       q    Type
REMARK                         _______ _______ _______ _____ _____    ______ ____
ROOT
ATOM      1  C   UNL     1      49.805   9.216  15.518  0.00  0.00    +0.000 A 
ATOM      2  C   UNL     1      48.420   9.189  15.716  0.00  0.00    +0.000 A 
ATOM      3  C   UNL     1      47.536   9.056  14.650  0.00  0.00    +0.000 A 
ATOM      4  C   UNL     1      47.996   8.884  13.346  0.00  0.00    +0.000 A 
ATOM      5  C   UNL     1      49.384   8.912  13.127  0.00  0.00    +0.000 A 
ATOM      6  C   UNL     1      50.284   9.075  14.203  0.00  0.00    +0.000 A 
ENDROOT
BRANCH   1   7
ATOM      7  C   UNL     1      50.676   9.462  16.751  0.00  0.00    +0.000 C 
BRANCH   7   9
ATOM      8  C   UNL     1      52.974   9.803  17.480  0.00  0.00    +0.000 C 
ATOM      9  N   UNL     1      51.983  10.084  16.442  0.00  0.00    +0.000 NA
ATOM     10  H   UNL     1      52.298   9.680  15.558  0.00  0.00    +0.000 HD
ENDBRANCH   7   9
BRANCH   7  11
ATOM     11  C   UNL     1      50.809   8.172  17.653  0.00  0.00    +0.000 C 
BRANCH  11  12
ATOM     12  N   UNL     1      50.744   6.847  16.956  0.00  0.00    +0.000 NA
ATOM     13  C   UNL     1      52.005   6.504  16.277  0.00  0.00    +0.000 C 
BRANCH  12  14
ATOM     14  C   UNL     1      50.484   5.748  17.936  0.00  0.00    +0.000 C 
BRANCH  14  15
ATOM     15  C   UNL     1      49.279   4.880  17.662  0.00  0.00    +0.000 A 
ATOM     16  C   UNL     1      48.009   5.269  18.070  0.00  0.00    +0.000 A 
ATOM     17  N   UNL     1      46.908   4.505  17.868  0.00  0.00    +0.000 NA
ATOM     18  C   UNL     1      47.130   3.328  17.242  0.00  0.00    +0.000 A 
ATOM     19  C   UNL     1      48.386   2.941  16.812  0.00  0.00    +0.000 A 
ATOM     20  N   UNL     1      49.484   3.705  17.004  0.00  0.00    +0.000 NA
ENDBRANCH  14  15
ENDBRANCH  12  14
ENDBRANCH  11  12
ENDBRANCH   7  11
ENDBRANCH   1   7
BRANCH   4  21
ATOM     21  C   UNL     1      46.983   8.562  12.269  0.00  0.00    +0.000 C 
BRANCH  21  22
ATOM     22  N   UNL     1      46.621   7.149  12.112  0.00  0.00    +0.000 N 
ATOM     23  C   UNL     1      45.300   6.856  11.713  0.00  0.00    +0.000 C 
ATOM     24  O   UNL     1      44.512   7.744  11.421  0.00  0.00    +0.000 OA
BRANCH  23  25
ATOM     25  C   UNL     1      44.816   5.454  11.692  0.00  0.00    +0.000 A 
ATOM     26  C   UNL     1      44.078   4.870  12.707  0.00  0.00    +0.000 A 
ATOM     27  S   UNL     1      43.594   3.268  12.362  0.00  0.00    +0.000 S 
ATOM     28  C   UNL     1      44.207   3.367  10.779  0.00  0.00    +0.000 A 
ATOM     29  N   UNL     1      44.010   2.355   9.891  0.00  0.00    +0.000 NA
ATOM     30  C   UNL     1      44.466   2.599   8.705  0.00  0.00    +0.000 A 
ATOM     31  N   UNL     1      45.133   3.743   8.348  0.00  0.00    +0.000 N 
ATOM     32  C   UNL     1      45.460   4.738   9.244  0.00  0.00    +0.000 A 
ATOM     33  O   UNL     1      46.231   5.640   8.937  0.00  0.00    +0.000 OA
ATOM     34  C   UNL     1      44.865   4.563  10.557  0.00  0.00    +0.000 A 
ATOM     35  H   UNL     1      45.514   3.844   7.418  0.00  0.00    +0.000 HD
ENDBRANCH  23  25
BRANCH  22  36
ATOM     36  C   UNL     1      47.649   6.176  12.511  0.00  0.00    +0.000 C 
BRANCH  36  37
ATOM     37  C   UNL     1      47.444   5.558  13.892  0.00  0.00    +0.000 C 
BRANCH  37  38
ATOM     38  O   UNL     1      48.604   5.766  14.687  0.00  0.00    +0.000 OA
ATOM     39  H   UNL     1      48.442   6.550  15.239  0.00  0.00    +0.000 HD
ENDBRANCH  37  38
ENDBRANCH  36  37
ENDBRANCH  22  36
ENDBRANCH  21  22
ENDBRANCH   4  21
TORSDOF 12
ENDMDL
MODEL 5
REMARK VINA RESULT:    -5.746      5.792      9.270
REMARK INTER + INTRA:         -11.092
REMARK INTER:                  -9.477
REMARK INTRA:                  -1.615
REMARK UNBOUND:                -1.483
REMARK  Name = 
REMARK  14 active torsions:
REMARK  status: ('A' for Active; 'I' for Inactive)
REMARK    1  A    between atoms: C_1  and  N_2
REMARK    2  A    between atoms: N_2  and  C_3
REMARK    3  A    between atoms: C_3  and  C_4
REMARK    4  A    between atoms: C_3  and  C_14
REMARK    5  A    between atoms: C_4  and  N_5
REMARK    6  A    between atoms: N_5  and  C_6
REMARK    7  A    between atoms: N_5  and  C_7
REMARK    8  A    between atoms: C_7  and  C_8
REMARK    9  A    between atoms: C_17  and  C_18
REMARK   10  A    between atoms: C_18  and  N_19
REMARK   11  A    between atoms: N_19  and  C_20
REMARK   12  A    between atoms: C_20  and  C_21
REMARK   13  A    between atoms: C_21  and  O_22
REMARK   14  A    between atoms: C_23  and  C_25
REMARK                            x       y       z     vdW  Elec       q    Type
REMARK                         _______ _______ _______ _____ _____    ______ ____
ROOT
ATOM      1  C   UNL     1      49.483  10.535  11.034  0.00  0.00    +0.000 A 
ATOM      2  C   UNL     1      48.166  10.927  11.301  0.00  0.00    +0.000 A 
ATOM      3  C   UNL     1      47.270  10.074  11.937  0.00  0.00    +0.000 A 
ATOM      4  C   UNL     1      47.664   8.816  12.389  0.00  0.00    +0.000 A 
ATOM      5  C   UNL     1      48.982   8.404  12.126  0.00  0.00    +0.000 A 
ATOM      6  C   UNL     1      49.886   9.256  11.455  0.00  0.00    +0.000 A 
ENDROOT
BRANCH   1   7
ATOM      7  C   UNL     1      50.351  11.518  10.245  0.00  0.00    +0.000 C 
BRANCH   7   9
ATOM      8  C   UNL     1      50.212  12.329   7.954  0.00  0.00    +0.000 C 
ATOM      9  N   UNL     1      49.592  12.341   9.279  0.00  0.00    +0.000 NA
ATOM     10  H   UNL     1      48.657  11.931   9.216  0.00  0.00    +0.000 HD
ENDBRANCH   7   9
BRANCH   7  11
ATOM     11  C   UNL     1      51.608  10.813   9.597  0.00  0.00    +0.000 C 
BRANCH  11  12
ATOM     12  N   UNL     1      52.947  11.137  10.190  0.00  0.00    +0.000 NA
ATOM     13  C   UNL     1      52.882  12.242  11.160  0.00  0.00    +0.000 C 
BRANCH  12  14
ATOM     14  C   UNL     1      53.492   9.959  10.932  0.00  0.00    +0.000 C 
BRANCH  14  15
ATOM     15  C   UNL     1      53.648   8.683  10.139  0.00  0.00    +0.000 A 
ATOM     16  C   UNL     1      53.021   7.510  10.540  0.00  0.00    +0.000 A 
ATOM     17  N   UNL     1      53.158   6.339   9.871  0.00  0.00    +0.000 NA
ATOM     18  C   UNL     1      53.957   6.388   8.782  0.00  0.00    +0.000 A 
ATOM     19  C   UNL     1      54.568   7.555   8.361  0.00  0.00    +0.000 A 
ATOM     20  N   UNL     1      54.425   8.725   9.022  0.00  0.00    +0.000 NA
ENDBRANCH  14  15
ENDBRANCH  12  14
ENDBRANCH  11  12
ENDBRANCH   7  11
ENDBRANCH   1   7
BRANCH   4  21
ATOM     21  C   UNL     1      46.689   8.023  13.232  0.00  0.00    +0.000 C 
BRANCH  21  22
ATOM     22  N   UNL     1      46.395   6.658  12.782  0.00  0.00    +0.000 N 
ATOM     23  C   UNL     1      45.167   6.441  12.122  0.00  0.00    +0.000 C 
ATOM     24  O   UNL     1      44.416   7.367  11.855  0.00  0.00    +0.000 OA
BRANCH  23  25
ATOM     25  C   UNL     1      44.730   5.064  11.785  0.00  0.00    +0.000 A 
ATOM     26  C   UNL     1      43.945   4.273  12.607  0.00  0.00    +0.000 A 
ATOM     27  S   UNL     1      43.536   2.766  11.914  0.00  0.00    +0.000 S 
ATOM     28  C   UNL     1      44.247   3.195  10.430  0.00  0.00    +0.000 A 
ATOM     29  N   UNL     1      44.141   2.381   9.345  0.00  0.00    +0.000 NA
ATOM     30  C   UNL     1      44.666   2.868   8.268  0.00  0.00    +0.000 A 
ATOM     31  N   UNL     1      45.319   4.072   8.196  0.00  0.00    +0.000 N 
ATOM     32  C   UNL     1      45.555   4.871   9.295  0.00  0.00    +0.000 A 
ATOM     33  O   UNL     1      46.316   5.829   9.231  0.00  0.00    +0.000 OA
ATOM     34  C   UNL     1      44.881   4.422  10.501  0.00  0.00    +0.000 A 
ATOM     35  H   UNL     1      45.756   4.367   7.334  0.00  0.00    +0.000 HD
ENDBRANCH  23  25
BRANCH  22  36
ATOM     36  C   UNL     1      47.367   5.628  13.180  0.00  0.00    +0.000 C 
BRANCH  36  37
ATOM     37  C   UNL     1      47.060   4.937  14.506  0.00  0.00    +0.000 C 
BRANCH  37  38
ATOM     38  O   UNL     1      47.159   3.527  14.344  0.00  0.00    +0.000 OA
ATOM     39  H   UNL     1      46.458   3.122  14.884  0.00  0.00    +0.000 HD
ENDBRANCH  37  38
ENDBRANCH  36  37
ENDBRANCH  22  36
ENDBRANCH  21  22
ENDBRANCH   4  21
TORSDOF 12
ENDMDL
MODEL 6
REMARK VINA RESULT:    -5.706      3.765      8.713
REMARK INTER + INTRA:         -11.024
REMARK INTER:                  -8.773
REMARK INTRA:                  -2.251
REMARK UNBOUND:                -1.483
REMARK  Name = 
REMARK  14 active torsions:
REMARK  status: ('A' for Active; 'I' for Inactive)
REMARK    1  A    between atoms: C_1  and  N_2
REMARK    2  A    between atoms: N_2  and  C_3
REMARK    3  A    between atoms: C_3  and  C_4
REMARK    4  A    between atoms: C_3  and  C_14
REMARK    5  A    between atoms: C_4  and  N_5
REMARK    6  A    between atoms: N_5  and  C_6
REMARK    7  A    between atoms: N_5  and  C_7
REMARK    8  A    between atoms: C_7  and  C_8
REMARK    9  A    between atoms: C_17  and  C_18
REMARK   10  A    between atoms: C_18  and  N_19
REMARK   11  A    between atoms: N_19  and  C_20
REMARK   12  A    between atoms: C_20  and  C_21
REMARK   13  A    between atoms: C_21  and  O_22
REMARK   14  A    between atoms: C_23  and  C_25
REMARK                            x       y       z     vdW  Elec       q    Type
REMARK                         _______ _______ _______ _____ _____    ______ ____
ROOT
ATOM      1  C   UNL     1      50.966   7.780  17.420  0.00  0.00    +0.000 A 
ATOM      2  C   UNL     1      51.086   7.008  16.259  0.00  0.00    +0.000 A 
ATOM      3  C   UNL     1      50.546   7.429  15.048  0.00  0.00    +0.000 A 
ATOM      4  C   UNL     1      49.915   8.666  14.928  0.00  0.00    +0.000 A 
ATOM      5  C   UNL     1      49.782   9.454  16.085  0.00  0.00    +0.000 A 
ATOM      6  C   UNL     1      50.303   9.017  17.322  0.00  0.00    +0.000 A 
ENDROOT
BRANCH   1   7
ATOM      7  C   UNL     1      51.514   7.175  18.714  0.00  0.00    +0.000 C 
BRANCH   7   9
ATOM      8  C   UNL     1      51.216   8.296  20.854  0.00  0.00    +0.000 C 
ATOM      9  N   UNL     1      52.052   8.177  19.660  0.00  0.00    +0.000 NA
ATOM     10  H   UNL     1      52.982   7.854  19.932  0.00  0.00    +0.000 HD
ENDBRANCH   7   9
BRANCH   7  11
ATOM     11  C   UNL     1      52.522   5.990  18.437  0.00  0.00    +0.000 C 
BRANCH  11  12
ATOM     12  N   UNL     1      52.133   4.636  18.948  0.00  0.00    +0.000 NA
ATOM     13  C   UNL     1      52.741   4.329  20.253  0.00  0.00    +0.000 C 
BRANCH  12  14
ATOM     14  C   UNL     1      50.653   4.552  19.144  0.00  0.00    +0.000 C 
BRANCH  14  15
ATOM     15  C   UNL     1      49.902   3.661  18.184  0.00  0.00    +0.000 A 
ATOM     16  C   UNL     1      50.574   2.766  17.362  0.00  0.00    +0.000 A 
ATOM     17  N   UNL     1      49.938   1.970  16.468  0.00  0.00    +0.000 NA
ATOM     18  C   UNL     1      48.595   2.111  16.426  0.00  0.00    +0.000 A 
ATOM     19  C   UNL     1      47.913   2.983  17.255  0.00  0.00    +0.000 A 
ATOM     20  N   UNL     1      48.545   3.770  18.153  0.00  0.00    +0.000 NA
ENDBRANCH  14  15
ENDBRANCH  12  14
ENDBRANCH  11  12
ENDBRANCH   7  11
ENDBRANCH   1   7
BRANCH   4  21
ATOM     21  C   UNL     1      49.518   9.134  13.545  0.00  0.00    +0.000 C 
BRANCH  21  22
ATOM     22  N   UNL     1      48.549   8.300  12.826  0.00  0.00    +0.000 N 
ATOM     23  C   UNL     1      47.248   8.204  13.364  0.00  0.00    +0.000 C 
ATOM     24  O   UNL     1      46.913   8.860  14.339  0.00  0.00    +0.000 OA
BRANCH  23  25
ATOM     25  C   UNL     1      46.266   7.255  12.786  0.00  0.00    +0.000 A 
ATOM     26  C   UNL     1      45.362   7.580  11.789  0.00  0.00    +0.000 A 
ATOM     27  S   UNL     1      44.415   6.257  11.269  0.00  0.00    +0.000 S 
ATOM     28  C   UNL     1      45.302   5.173  12.235  0.00  0.00    +0.000 A 
ATOM     29  N   UNL     1      45.077   3.834  12.165  0.00  0.00    +0.000 NA
ATOM     30  C   UNL     1      45.875   3.128  12.899  0.00  0.00    +0.000 A 
ATOM     31  N   UNL     1      46.842   3.648  13.721  0.00  0.00    +0.000 N 
ATOM     32  C   UNL     1      47.022   5.001  13.914  0.00  0.00    +0.000 A 
ATOM     33  O   UNL     1      47.748   5.424  14.805  0.00  0.00    +0.000 OA
ATOM     34  C   UNL     1      46.231   5.830  13.021  0.00  0.00    +0.000 A 
ATOM     35  H   UNL     1      47.393   3.042  14.312  0.00  0.00    +0.000 HD
ENDBRANCH  23  25
BRANCH  22  36
ATOM     36  C   UNL     1      49.077   7.547  11.678  0.00  0.00    +0.000 C 
BRANCH  36  37
ATOM     37  C   UNL     1      50.440   8.018  11.177  0.00  0.00    +0.000 C 
BRANCH  37  38
ATOM     38  O   UNL     1      51.348   6.923  11.157  0.00  0.00    +0.000 OA
ATOM     39  H   UNL     1      50.822   6.112  11.046  0.00  0.00    +0.000 HD
ENDBRANCH  37  38
ENDBRANCH  36  37
ENDBRANCH  22  36
ENDBRANCH  21  22
ENDBRANCH   4  21
TORSDOF 12
ENDMDL
MODEL 7
REMARK VINA RESULT:    -5.665      4.571      9.481
REMARK INTER + INTRA:         -10.955
REMARK INTER:                  -9.066
REMARK INTRA:                  -1.890
REMARK UNBOUND:                -1.483
REMARK  Name = 
REMARK  14 active torsions:
REMARK  status: ('A' for Active; 'I' for Inactive)
REMARK    1  A    between atoms: C_1  and  N_2
REMARK    2  A    between atoms: N_2  and  C_3
REMARK    3  A    between atoms: C_3  and  C_4
REMARK    4  A    between atoms: C_3  and  C_14
REMARK    5  A    between atoms: C_4  and  N_5
REMARK    6  A    between atoms: N_5  and  C_6
REMARK    7  A    between atoms: N_5  and  C_7
REMARK    8  A    between atoms: C_7  and  C_8
REMARK    9  A    between atoms: C_17  and  C_18
REMARK   10  A    between atoms: C_18  and  N_19
REMARK   11  A    between atoms: N_19  and  C_20
REMARK   12  A    between atoms: C_20  and  C_21
REMARK   13  A    between atoms: C_21  and  O_22
REMARK   14  A    between atoms: C_23  and  C_25
REMARK                            x       y       z     vdW  Elec       q    Type
REMARK                         _______ _______ _______ _____ _____    ______ ____
ROOT
ATOM      1  C   UNL     1      50.538  10.341  12.696  0.00  0.00    +0.000 A 
ATOM      2  C   UNL     1      49.775  10.469  13.862  0.00  0.00    +0.000 A 
ATOM      3  C   UNL     1      48.559   9.809  14.010  0.00  0.00    +0.000 A 
ATOM      4  C   UNL     1      48.079   8.946  13.026  0.00  0.00    +0.000 A 
ATOM      5  C   UNL     1      48.831   8.808  11.847  0.00  0.00    +0.000 A 
ATOM      6  C   UNL     1      50.052   9.498  11.681  0.00  0.00    +0.000 A 
ENDROOT
BRANCH   1   7
ATOM      7  C   UNL     1      51.810  11.186  12.605  0.00  0.00    +0.000 C 
BRANCH   7   9
ATOM      8  C   UNL     1      53.467  12.036  11.038  0.00  0.00    +0.000 C 
ATOM      9  N   UNL     1      52.049  11.760  11.262  0.00  0.00    +0.000 NA
ATOM     10  H   UNL     1      51.732  11.062  10.585  0.00  0.00    +0.000 HD
ENDBRANCH   7   9
BRANCH   7  11
ATOM     11  C   UNL     1      53.071  10.429  13.183  0.00  0.00    +0.000 C 
BRANCH  11  12
ATOM     12  N   UNL     1      52.977   8.937  13.285  0.00  0.00    +0.000 NA
ATOM     13  C   UNL     1      53.778   8.250  12.260  0.00  0.00    +0.000 C 
BRANCH  12  14
ATOM     14  C   UNL     1      53.496   8.467  14.607  0.00  0.00    +0.000 C 
BRANCH  14  15
ATOM     15  C   UNL     1      52.577   7.573  15.405  0.00  0.00    +0.000 A 
ATOM     16  C   UNL     1      53.086   6.631  16.291  0.00  0.00    +0.000 A 
ATOM     17  N   UNL     1      52.296   5.792  17.004  0.00  0.00    +0.000 NA
ATOM     18  C   UNL     1      50.968   5.930  16.790  0.00  0.00    +0.000 A 
ATOM     19  C   UNL     1      50.450   6.878  15.927  0.00  0.00    +0.000 A 
ATOM     20  N   UNL     1      51.236   7.722  15.222  0.00  0.00    +0.000 NA
ENDBRANCH  14  15
ENDBRANCH  12  14
ENDBRANCH  11  12
ENDBRANCH   7  11
ENDBRANCH   1   7
BRANCH   4  21
ATOM     21  C   UNL     1      46.846   8.126  13.336  0.00  0.00    +0.000 C 
BRANCH  21  22
ATOM     22  N   UNL     1      46.620   6.942  12.499  0.00  0.00    +0.000 N 
ATOM     23  C   UNL     1      45.598   7.018  11.529  0.00  0.00    +0.000 C 
ATOM     24  O   UNL     1      44.986   8.056  11.330  0.00  0.00    +0.000 OA
BRANCH  23  25
ATOM     25  C   UNL     1      45.204   5.812  10.760  0.00  0.00    +0.000 A 
ATOM     26  C   UNL     1      45.681   5.503   9.498  0.00  0.00    +0.000 A 
ATOM     27  S   UNL     1      45.110   4.008   8.901  0.00  0.00    +0.000 S 
ATOM     28  C   UNL     1      44.349   3.647  10.378  0.00  0.00    +0.000 A 
ATOM     29  N   UNL     1      43.764   2.436  10.584  0.00  0.00    +0.000 NA
ATOM     30  C   UNL     1      43.291   2.276  11.777  0.00  0.00    +0.000 A 
ATOM     31  N   UNL     1      43.317   3.232  12.760  0.00  0.00    +0.000 N 
ATOM     32  C   UNL     1      43.789   4.512  12.557  0.00  0.00    +0.000 A 
ATOM     33  O   UNL     1      43.606   5.395  13.387  0.00  0.00    +0.000 OA
ATOM     34  C   UNL     1      44.438   4.700  11.271  0.00  0.00    +0.000 A 
ATOM     35  H   UNL     1      42.877   3.061  13.653  0.00  0.00    +0.000 HD
ENDBRANCH  23  25
BRANCH  22  36
ATOM     36  C   UNL     1      47.408   5.750  12.848  0.00  0.00    +0.000 C 
BRANCH  36  37
ATOM     37  C   UNL     1      46.997   5.071  14.152  0.00  0.00    +0.000 C 
BRANCH  37  38
ATOM     38  O   UNL     1      46.814   3.678  13.929  0.00  0.00    +0.000 OA
ATOM     39  H   UNL     1      46.683   3.551  12.973  0.00  0.00    +0.000 HD
ENDBRANCH  37  38
ENDBRANCH  36  37
ENDBRANCH  22  36
ENDBRANCH  21  22
ENDBRANCH   4  21
TORSDOF 12
ENDMDL
MODEL 8
REMARK VINA RESULT:    -5.451      2.958      3.454
REMARK INTER + INTRA:         -10.599
REMARK INTER:                  -9.743
REMARK INTRA:                  -0.856
REMARK UNBOUND:                -1.483
REMARK  Name = 
REMARK  14 active torsions:
REMARK  status: ('A' for Active; 'I' for Inactive)
REMARK    1  A    between atoms: C_1  and  N_2
REMARK    2  A    between atoms: N_2  and  C_3
REMARK    3  A    between atoms: C_3  and  C_4
REMARK    4  A    between atoms: C_3  and  C_14
REMARK    5  A    between atoms: C_4  and  N_5
REMARK    6  A    between atoms: N_5  and  C_6
REMARK    7  A    between atoms: N_5  and  C_7
REMARK    8  A    between atoms: C_7  and  C_8
REMARK    9  A    between atoms: C_17  and  C_18
REMARK   10  A    between atoms: C_18  and  N_19
REMARK   11  A    between atoms: N_19  and  C_20
REMARK   12  A    between atoms: C_20  and  C_21
REMARK   13  A    between atoms: C_21  and  O_22
REMARK   14  A    between atoms: C_23  and  C_25
REMARK                            x       y       z     vdW  Elec       q    Type
REMARK                         _______ _______ _______ _____ _____    ______ ____
ROOT
ATOM      1  C   UNL     1      46.547   6.773  12.622  0.00  0.00    +0.000 A 
ATOM      2  C   UNL     1      46.993   5.866  13.589  0.00  0.00    +0.000 A 
ATOM      3  C   UNL     1      48.146   6.104  14.331  0.00  0.00    +0.000 A 
ATOM      4  C   UNL     1      48.871   7.285  14.181  0.00  0.00    +0.000 A 
ATOM      5  C   UNL     1      48.440   8.206  13.211  0.00  0.00    +0.000 A 
ATOM      6  C   UNL     1      47.286   7.955  12.437  0.00  0.00    +0.000 A 
ENDROOT
BRANCH   1   7
ATOM      7  C   UNL     1      45.322   6.363  11.801  0.00  0.00    +0.000 C 
BRANCH   7   9
ATOM      8  C   UNL     1      44.185   8.390  11.078  0.00  0.00    +0.000 C 
ATOM      9  N   UNL     1      44.153   7.249  11.993  0.00  0.00    +0.000 NA
ATOM     10  H   UNL     1      43.323   6.686  11.797  0.00  0.00    +0.000 HD
ENDBRANCH   7   9
BRANCH   7  11
ATOM     11  C   UNL     1      44.969   4.834  11.982  0.00  0.00    +0.000 C 
BRANCH  11  12
ATOM     12  N   UNL     1      43.772   4.322  11.239  0.00  0.00    +0.000 NA
ATOM     13  C   UNL     1      42.522   4.972  11.666  0.00  0.00    +0.000 C 
BRANCH  12  14
ATOM     14  C   UNL     1      43.905   4.593   9.775  0.00  0.00    +0.000 C 
BRANCH  14  15
ATOM     15  C   UNL     1      44.845   3.689   9.011  0.00  0.00    +0.000 A 
ATOM     16  C   UNL     1      44.978   2.347   9.347  0.00  0.00    +0.000 A 
ATOM     17  N   UNL     1      45.830   1.512   8.704  0.00  0.00    +0.000 NA
ATOM     18  C   UNL     1      46.552   2.077   7.711  0.00  0.00    +0.000 A 
ATOM     19  C   UNL     1      46.411   3.405   7.355  0.00  0.00    +0.000 A 
ATOM     20  N   UNL     1      45.555   4.238   7.988  0.00  0.00    +0.000 NA
ENDBRANCH  14  15
ENDBRANCH  12  14
ENDBRANCH  11  12
ENDBRANCH   7  11
ENDBRANCH   1   7
BRANCH   4  21
ATOM     21  C   UNL     1      50.004   7.554  15.149  0.00  0.00    +0.000 C 
BRANCH  21  22
ATOM     22  N   UNL     1      49.711   7.350  16.572  0.00  0.00    +0.000 N 
ATOM     23  C   UNL     1      50.206   6.175  17.176  0.00  0.00    +0.000 C 
ATOM     24  O   UNL     1      50.928   5.401  16.564  0.00  0.00    +0.000 OA
BRANCH  23  25
ATOM     25  C   UNL     1      49.814   5.822  18.562  0.00  0.00    +0.000 A 
ATOM     26  C   UNL     1      48.749   4.999  18.884  0.00  0.00    +0.000 A 
ATOM     27  S   UNL     1      48.594   4.709  20.560  0.00  0.00    +0.000 S 
ATOM     28  C   UNL     1      50.045   5.532  20.891  0.00  0.00    +0.000 A 
ATOM     29  N   UNL     1      50.563   5.552  22.149  0.00  0.00    +0.000 NA
ATOM     30  C   UNL     1      51.706   6.152  22.237  0.00  0.00    +0.000 A 
ATOM     31  N   UNL     1      52.348   6.762  21.190  0.00  0.00    +0.000 N 
ATOM     32  C   UNL     1      51.802   6.870  19.929  0.00  0.00    +0.000 A 
ATOM     33  O   UNL     1      52.305   7.597  19.080  0.00  0.00    +0.000 OA
ATOM     34  C   UNL     1      50.577   6.110  19.753  0.00  0.00    +0.000 A 
ATOM     35  H   UNL     1      53.213   7.263  21.341  0.00  0.00    +0.000 HD
ENDBRANCH  23  25
BRANCH  22  36
ATOM     36  C   UNL     1      48.818   8.341  17.191  0.00  0.00    +0.000 C 
BRANCH  36  37
ATOM     37  C   UNL     1      49.527   9.420  18.007  0.00  0.00    +0.000 C 
BRANCH  37  38
ATOM     38  O   UNL     1      49.129   9.328  19.369  0.00  0.00    +0.000 OA
ATOM     39  H   UNL     1      48.203   9.033  19.383  0.00  0.00    +0.000 HD
ENDBRANCH  37  38
ENDBRANCH  36  37
ENDBRANCH  22  36
ENDBRANCH  21  22
ENDBRANCH   4  21
TORSDOF 12
ENDMDL
