MODEL 1
REMARK VINA RESULT:    -7.740      0.000      0.000
REMARK INTER + INTRA:         -11.397
REMARK INTER:                 -11.134
REMARK INTRA:                  -0.264
REMARK UNBOUND:                -0.264
REMARK  Name = 
REMARK  10 active torsions:
REMARK  status: ('A' for Active; 'I' for Inactive)
REMARK    1  A    between atoms: C_1  and  C_2
REMARK    2  A    between atoms: C_5  and  O_6
REMARK    3  A    between atoms: O_6  and  C_7
REMARK    4  A    between atoms: C_7  and  C_8
REMARK    5  A    between atoms: C_8  and  C_9
REMARK    6  A    between atoms: C_8  and  C_10
REMARK    7  A    between atoms: C_14  and  O_15
REMARK    8  A    between atoms: O_15  and  C_16
REMARK    9  A    between atoms: CA_22  and  C_23
REMARK   10  A    between atoms: C_23  and  OXT_25
REMARK                            x       y       z     vdW  Elec       q    Type
REMARK                         _______ _______ _______ _____ _____    ______ ____
ROOT
ATOM      1  C   UNL     1      44.359   4.520  11.935  0.00  0.00    +0.000 C 
ATOM      2  C   UNL     1      43.198   4.984  12.827  0.00  0.00    +0.000 C 
ENDROOT
BRANCH   1   3
ATOM      3  C   UNL     1      45.654   5.194  12.361  0.00  0.00    +0.000 A 
ATOM      4  C   UNL     1      46.154   6.281  11.631  0.00  0.00    +0.000 A 
ATOM      5  C   UNL     1      47.288   6.972  12.070  0.00  0.00    +0.000 A 
ATOM      6  C   UNL     1      47.946   6.584  13.240  0.00  0.00    +0.000 A 
ATOM      7  C   UNL     1      47.478   5.489  13.959  0.00  0.00    +0.000 A 
ATOM      8  C   UNL     1      46.341   4.801  13.520  0.00  0.00    +0.000 A 
BRANCH   7   9
ATOM      9  O   UNL     1      48.010   5.032  15.137  0.00  0.00    +0.000 OA
BRANCH   9  10
ATOM     10  C   UNL     1      47.200   4.220  16.014  0.00  0.00    +0.000 C 
ATOM     11  C   UNL     1      47.186   4.568  17.519  0.00  0.00    +0.000 C 
ATOM     12  N   UNL     1      47.405   3.146  17.850  0.00  0.00    +0.000 NA
ATOM     13  C   UNL     1      47.874   2.907  16.472  0.00  0.00    +0.000 C 
ATOM     14  H   UNL     1      46.551   2.639  18.084  0.00  0.00    +0.000 HD
ENDBRANCH   9  10
ENDBRANCH   7   9
ENDBRANCH   1   3
BRANCH   1  15
ATOM     15  C   UNL     1      44.455   2.983  11.904  0.00  0.00    +0.000 C 
BRANCH  15  16
ATOM     16  O   UNL     1      43.836   2.516  10.697  0.00  0.00    +0.000 OA
BRANCH  16  21
ATOM     17  C   UNL     1      46.760   3.525   6.045  0.00  0.00    +0.000 C 
ATOM     18  C   UNL     1      46.002   3.238   7.297  0.00  0.00    +0.000 A 
ATOM     19  C   UNL     1      45.114   4.156   7.815  0.00  0.00    +0.000 A 
ATOM     20  N   UNL     1      44.387   3.961   8.931  0.00  0.00    +0.000 NA
ATOM     21  C   UNL     1      44.559   2.794   9.561  0.00  0.00    +0.000 A 
ATOM     22  N   UNL     1      45.392   1.820   9.174  0.00  0.00    +0.000 NA
ATOM     23  CA  UNL     1      46.098   2.072   8.037  0.00  0.00    +0.000 A 
BRANCH  23  24
ATOM     24  C   UNL     1      47.015   0.947   7.646  0.00  0.00    +0.000 C 
ATOM     25  O   UNL     1      48.087   1.059   7.080  0.00  0.00    +0.000 OA
BRANCH  24  26
ATOM     26  OXT UNL     1      46.484  -0.246   8.014  0.00  0.00    +0.000 OA
ATOM     27  HXT UNL     1      45.605  -0.358   7.579  0.00  0.00    +0.000 HD
ENDBRANCH  24  26
ENDBRANCH  23  24
ENDBRANCH  16  21
ENDBRANCH  15  16
ENDBRANCH   1  15
TORSDOF 8
ENDMDL
MODEL 2
REMARK VINA RESULT:    -7.689      2.437      7.969
REMARK INTER + INTRA:         -11.324
REMARK INTER:                 -10.655
REMARK INTRA:                  -0.669
REMARK UNBOUND:                -0.264
REMARK  Name = 
REMARK  10 active torsions:
REMARK  status: ('A' for Active; 'I' for Inactive)
REMARK    1  A    between atoms: C_1  and  C_2
REMARK    2  A    between atoms: C_5  and  O_6
REMARK    3  A    between atoms: O_6  and  C_7
REMARK    4  A    between atoms: C_7  and  C_8
REMARK    5  A    between atoms: C_8  and  C_9
REMARK    6  A    between atoms: C_8  and  C_10
REMARK    7  A    between atoms: C_14  and  O_15
REMARK    8  A    between atoms: O_15  and  C_16
REMARK    9  A    between atoms: CA_22  and  C_23
REMARK   10  A    between atoms: C_23  and  OXT_25
REMARK                            x       y       z     vdW  Elec       q    Type
REMARK                         _______ _______ _______ _____ _____    ______ ____
ROOT
ATOM      1  C   UNL     1      44.855   5.844  11.513  0.00  0.00    +0.000 C 
ATOM      2  C   UNL     1      45.833   6.913  11.005  0.00  0.00    +0.000 C 
ENDROOT
BRANCH   1   3
ATOM      3  C   UNL     1      44.861   4.638  10.586  0.00  0.00    +0.000 A 
ATOM      4  C   UNL     1      44.156   3.478  10.936  0.00  0.00    +0.000 A 
ATOM      5  C   UNL     1      44.072   2.402  10.047  0.00  0.00    +0.000 A 
ATOM      6  C   UNL     1      44.696   2.462   8.799  0.00  0.00    +0.000 A 
ATOM      7  C   UNL     1      45.424   3.595   8.450  0.00  0.00    +0.000 A 
ATOM      8  C   UNL     1      45.505   4.673   9.340  0.00  0.00    +0.000 A 
BRANCH   7   9
ATOM      9  O   UNL     1      46.051   3.792   7.247  0.00  0.00    +0.000 OA
BRANCH   9  10
ATOM     10  C   UNL     1      46.641   2.667   6.561  0.00  0.00    +0.000 C 
ATOM     11  C   UNL     1      48.150   2.404   6.763  0.00  0.00    +0.000 C 
ATOM     12  N   UNL     1      48.319   2.256   5.303  0.00  0.00    +0.000 NA
ATOM     13  C   UNL     1      47.034   2.949   5.093  0.00  0.00    +0.000 C 
ATOM     14  H   UNL     1      48.317   1.287   4.982  0.00  0.00    +0.000 HD
ENDBRANCH   9  10
ENDBRANCH   7   9
ENDBRANCH   1   3
BRANCH   1  15
ATOM     15  C   UNL     1      45.141   5.483  12.984  0.00  0.00    +0.000 C 
BRANCH  15  16
ATOM     16  O   UNL     1      46.386   4.773  13.040  0.00  0.00    +0.000 OA
BRANCH  16  21
ATOM     17  C   UNL     1      49.349   5.618  17.701  0.00  0.00    +0.000 C 
ATOM     18  C   UNL     1      48.539   5.374  16.472  0.00  0.00    +0.000 A 
ATOM     19  C   UNL     1      48.453   6.326  15.479  0.00  0.00    +0.000 A 
ATOM     20  N   UNL     1      47.753   6.171  14.339  0.00  0.00    +0.000 NA
ATOM     21  C   UNL     1      47.105   5.010  14.188  0.00  0.00    +0.000 A 
ATOM     22  N   UNL     1      47.097   4.007  15.073  0.00  0.00    +0.000 NA
ATOM     23  CA  UNL     1      47.825   4.219  16.205  0.00  0.00    +0.000 A 
BRANCH  23  24
ATOM     24  C   UNL     1      47.783   3.062  17.164  0.00  0.00    +0.000 C 
ATOM     25  O   UNL     1      48.710   2.321  17.433  0.00  0.00    +0.000 OA
BRANCH  24  26
ATOM     26  OXT UNL     1      46.547   2.943  17.709  0.00  0.00    +0.000 OA
ATOM     27  HXT UNL     1      45.959   3.643  17.336  0.00  0.00    +0.000 HD
ENDBRANCH  24  26
ENDBRANCH  23  24
ENDBRANCH  16  21
ENDBRANCH  15  16
ENDBRANCH   1  15
TORSDOF 8
ENDMDL
MODEL 3
REMARK VINA RESULT:    -7.419      2.087      7.283
REMARK INTER + INTRA:         -10.936
REMARK INTER:                 -11.434
REMARK INTRA:                   0.498
REMARK UNBOUND:                -0.264
REMARK  Name = 
REMARK  10 active torsions:
REMARK  status: ('A' for Active; 'I' for Inactive)
REMARK    1  A    between atoms: C_1  and  C_2
REMARK    2  A    between atoms: C_5  and  O_6
REMARK    3  A    between atoms: O_6  and  C_7
REMARK    4  A    between atoms: C_7  and  C_8
REMARK    5  A    between atoms: C_8  and  C_9
REMARK    6  A    between atoms: C_8  and  C_10
REMARK    7  A    between atoms: C_14  and  O_15
REMARK    8  A    between atoms: O_15  and  C_16
REMARK    9  A    between atoms: CA_22  and  C_23
REMARK   10  A    between atoms: C_23  and  OXT_25
REMARK                            x       y       z     vdW  Elec       q    Type
REMARK                         _______ _______ _______ _____ _____    ______ ____
ROOT
ATOM      1  C   UNL     1      43.429   3.705  11.246  0.00  0.00    +0.000 C 
ATOM      2  C   UNL     1      42.738   5.066  11.416  0.00  0.00    +0.000 C 
ENDROOT
BRANCH   1   3
ATOM      3  C   UNL     1      44.355   3.729  10.041  0.00  0.00    +0.000 A 
ATOM      4  C   UNL     1      44.899   4.942   9.596  0.00  0.00    +0.000 A 
ATOM      5  C   UNL     1      45.830   4.964   8.552  0.00  0.00    +0.000 A 
ATOM      6  C   UNL     1      46.226   3.778   7.930  0.00  0.00    +0.000 A 
ATOM      7  C   UNL     1      45.672   2.570   8.341  0.00  0.00    +0.000 A 
ATOM      8  C   UNL     1      44.743   2.549   9.388  0.00  0.00    +0.000 A 
BRANCH   7   9
ATOM      9  O   UNL     1      46.003   1.338   7.839  0.00  0.00    +0.000 OA
BRANCH   9  10
ATOM     10  C   UNL     1      47.309   1.135   7.257  0.00  0.00    +0.000 C 
ATOM     11  C   UNL     1      48.058   2.368   6.706  0.00  0.00    +0.000 C 
ATOM     12  N   UNL     1      48.361   1.628   5.464  0.00  0.00    +0.000 NA
ATOM     13  C   UNL     1      47.286   0.669   5.784  0.00  0.00    +0.000 C 
ATOM     14  H   UNL     1      49.291   1.208   5.449  0.00  0.00    +0.000 HD
ENDBRANCH   9  10
ENDBRANCH   7   9
ENDBRANCH   1   3
BRANCH   1  15
ATOM     15  C   UNL     1      44.133   3.273  12.547  0.00  0.00    +0.000 C 
BRANCH  15  16
ATOM     16  O   UNL     1      45.546   3.232  12.303  0.00  0.00    +0.000 OA
BRANCH  16  21
ATOM     17  C   UNL     1      48.569   6.530  15.650  0.00  0.00    +0.000 C 
ATOM     18  C   UNL     1      47.751   5.635  14.781  0.00  0.00    +0.000 A 
ATOM     19  C   UNL     1      47.292   6.064  13.554  0.00  0.00    +0.000 A 
ATOM     20  N   UNL     1      46.560   5.309  12.712  0.00  0.00    +0.000 NA
ATOM     21  C   UNL     1      46.272   4.068  13.119  0.00  0.00    +0.000 A 
ATOM     22  N   UNL     1      46.646   3.528  14.285  0.00  0.00    +0.000 NA
ATOM     23  CA  UNL     1      47.386   4.337  15.094  0.00  0.00    +0.000 A 
BRANCH  23  24
ATOM     24  C   UNL     1      47.781   3.682  16.388  0.00  0.00    +0.000 C 
ATOM     25  O   UNL     1      48.909   3.361  16.714  0.00  0.00    +0.000 OA
BRANCH  24  26
ATOM     26  OXT UNL     1      46.692   3.488  17.172  0.00  0.00    +0.000 OA
ATOM     27  HXT UNL     1      46.893   2.789  17.840  0.00  0.00    +0.000 HD
ENDBRANCH  24  26
ENDBRANCH  23  24
ENDBRANCH  16  21
ENDBRANCH  15  16
ENDBRANCH   1  15
TORSDOF 8
ENDMDL
MODEL 4
REMARK VINA RESULT:    -7.135      2.139      8.004
REMARK INTER + INTRA:         -10.528
REMARK INTER:                  -9.988
REMARK INTRA:                  -0.540
REMARK UNBOUND:                -0.264
REMARK  Name = 
REMARK  10 active torsions:
REMARK  status: ('A' for Active; 'I' for Inactive)
REMARK    1  A    between atoms: C_1  and  C_2
REMARK    2  A    between atoms: C_5  and  O_6
REMARK    3  A    between atoms: O_6  and  C_7
REMARK    4  A    between atoms: C_7  and  C_8
REMARK    5  A    between atoms: C_8  and  C_9
REMARK    6  A    between atoms: C_8  and  C_10
REMARK    7  A    between atoms: C_14  and  O_15
REMARK    8  A    between atoms: O_15  and  C_16
REMARK    9  A    between atoms: CA_22  and  C_23
REMARK   10  A    between atoms: C_23  and  OXT_25
REMARK                            x       y       z     vdW  Elec       q    Type
REMARK                         _______ _______ _______ _____ _____    ______ ____
ROOT
ATOM      1  C   UNL     1      46.261   6.295  12.849  0.00  0.00    +0.000 C 
ATOM      2  C   UNL     1      46.293   7.575  12.001  0.00  0.00    +0.000 C 
ENDROOT
BRANCH   1   3
ATOM      3  C   UNL     1      45.381   5.246  12.187  0.00  0.00    +0.000 A 
ATOM      4  C   UNL     1      44.599   4.387  12.972  0.00  0.00    +0.000 A 
ATOM      5  C   UNL     1      43.712   3.487  12.373  0.00  0.00    +0.000 A 
ATOM      6  C   UNL     1      43.597   3.422  10.982  0.00  0.00    +0.000 A 
ATOM      7  C   UNL     1      44.389   4.247  10.190  0.00  0.00    +0.000 A 
ATOM      8  C   UNL     1      45.274   5.150  10.791  0.00  0.00    +0.000 A 
BRANCH   7   9
ATOM      9  O   UNL     1      44.345   4.306   8.821  0.00  0.00    +0.000 OA
BRANCH   9  10
ATOM     10  C   UNL     1      44.821   3.184   8.046  0.00  0.00    +0.000 C 
ATOM     11  C   UNL     1      45.629   2.089   8.776  0.00  0.00    +0.000 C 
ATOM     12  N   UNL     1      46.648   2.129   7.708  0.00  0.00    +0.000 NA
ATOM     13  C   UNL     1      46.141   3.448   7.286  0.00  0.00    +0.000 C 
ATOM     14  H   UNL     1      46.534   1.403   7.000  0.00  0.00    +0.000 HD
ENDBRANCH   9  10
ENDBRANCH   7   9
ENDBRANCH   1   3
BRANCH   1  15
ATOM     15  C   UNL     1      47.686   5.792  13.152  0.00  0.00    +0.000 C 
BRANCH  15  16
ATOM     16  O   UNL     1      48.334   6.754  13.995  0.00  0.00    +0.000 OA
BRANCH  16  21
ATOM     17  C   UNL     1      48.712   5.081  19.311  0.00  0.00    +0.000 C 
ATOM     18  C   UNL     1      48.589   5.507  17.887  0.00  0.00    +0.000 A 
ATOM     19  C   UNL     1      48.879   6.799  17.506  0.00  0.00    +0.000 A 
ATOM     20  N   UNL     1      48.803   7.252  16.240  0.00  0.00    +0.000 NA
ATOM     21  C   UNL     1      48.415   6.369  15.312  0.00  0.00    +0.000 A 
ATOM     22  N   UNL     1      48.097   5.091  15.544  0.00  0.00    +0.000 NA
ATOM     23  CA  UNL     1      48.195   4.689  16.842  0.00  0.00    +0.000 A 
BRANCH  23  24
ATOM     24  C   UNL     1      47.829   3.246  17.047  0.00  0.00    +0.000 C 
ATOM     25  O   UNL     1      48.559   2.289  16.867  0.00  0.00    +0.000 OA
BRANCH  24  26
ATOM     26  OXT UNL     1      46.545   3.139  17.472  0.00  0.00    +0.000 OA
ATOM     27  HXT UNL     1      46.490   2.438  18.165  0.00  0.00    +0.000 HD
ENDBRANCH  24  26
ENDBRANCH  23  24
ENDBRANCH  16  21
ENDBRANCH  15  16
ENDBRANCH   1  15
TORSDOF 8
ENDMDL
MODEL 5
REMARK VINA RESULT:    -7.021      2.299      4.301
REMARK INTER + INTRA:         -10.364
REMARK INTER:                  -9.397
REMARK INTRA:                  -0.966
REMARK UNBOUND:                -0.264
REMARK  Name = 
REMARK  10 active torsions:
REMARK  status: ('A' for Active; 'I' for Inactive)
REMARK    1  A    between atoms: C_1  and  C_2
REMARK    2  A    between atoms: C_5  and  O_6
REMARK    3  A    between atoms: O_6  and  C_7
REMARK    4  A    between atoms: C_7  and  C_8
REMARK    5  A    between atoms: C_8  and  C_9
REMARK    6  A    between atoms: C_8  and  C_10
REMARK    7  A    between atoms: C_14  and  O_15
REMARK    8  A    between atoms: O_15  and  C_16
REMARK    9  A    between atoms: CA_22  and  C_23
REMARK   10  A    between atoms: C_23  and  OXT_25
REMARK                            x       y       z     vdW  Elec       q    Type
REMARK                         _______ _______ _______ _____ _____    ______ ____
ROOT
ATOM      1  C   UNL     1      48.354   8.441  12.493  0.00  0.00    +0.000 C 
ATOM      2  C   UNL     1      47.538   9.730  12.321  0.00  0.00    +0.000 C 
ENDROOT
BRANCH   1   3
ATOM      3  C   UNL     1      48.606   8.167  13.967  0.00  0.00    +0.000 A 
ATOM      4  C   UNL     1      48.641   9.228  14.883  0.00  0.00    +0.000 A 
ATOM      5  C   UNL     1      48.772   8.981  16.254  0.00  0.00    +0.000 A 
ATOM      6  C   UNL     1      48.878   7.672  16.731  0.00  0.00    +0.000 A 
ATOM      7  C   UNL     1      48.874   6.611  15.831  0.00  0.00    +0.000 A 
ATOM      8  C   UNL     1      48.740   6.860  14.460  0.00  0.00    +0.000 A 
BRANCH   7   9
ATOM      9  O   UNL     1      48.934   5.285  16.173  0.00  0.00    +0.000 OA
BRANCH   9  10
ATOM     10  C   UNL     1      47.710   4.532  16.317  0.00  0.00    +0.000 C 
ATOM     11  C   UNL     1      47.046   4.484  17.710  0.00  0.00    +0.000 C 
ATOM     12  N   UNL     1      46.896   3.020  17.589  0.00  0.00    +0.000 NA
ATOM     13  C   UNL     1      47.915   3.014  16.522  0.00  0.00    +0.000 C 
ATOM     14  H   UNL     1      45.972   2.724  17.273  0.00  0.00    +0.000 HD
ENDBRANCH   9  10
ENDBRANCH   7   9
ENDBRANCH   1   3
BRANCH   1  15
ATOM     15  C   UNL     1      47.689   7.260  11.760  0.00  0.00    +0.000 C 
BRANCH  15  16
ATOM     16  O   UNL     1      46.272   7.480  11.742  0.00  0.00    +0.000 OA
BRANCH  16  21
ATOM     17  C   UNL     1      43.353   2.719  11.905  0.00  0.00    +0.000 C 
ATOM     18  C   UNL     1      44.126   3.992  11.832  0.00  0.00    +0.000 A 
ATOM     19  C   UNL     1      44.222   4.828  12.923  0.00  0.00    +0.000 A 
ATOM     20  N   UNL     1      44.912   5.984  12.935  0.00  0.00    +0.000 NA
ATOM     21  C   UNL     1      45.532   6.322  11.799  0.00  0.00    +0.000 A 
ATOM     22  N   UNL     1      45.515   5.611  10.666  0.00  0.00    +0.000 NA
ATOM     23  CA  UNL     1      44.804   4.449  10.715  0.00  0.00    +0.000 A 
BRANCH  23  24
ATOM     24  C   UNL     1      44.819   3.688   9.418  0.00  0.00    +0.000 C 
ATOM     25  O   UNL     1      45.461   2.681   9.186  0.00  0.00    +0.000 OA
BRANCH  24  26
ATOM     26  OXT UNL     1      44.003   4.282   8.512  0.00  0.00    +0.000 OA
ATOM     27  HXT UNL     1      43.589   5.079   8.921  0.00  0.00    +0.000 HD
ENDBRANCH  24  26
ENDBRANCH  23  24
ENDBRANCH  16  21
ENDBRANCH  15  16
ENDBRANCH   1  15
TORSDOF 8
ENDMDL
MODEL 6
REMARK VINA RESULT:    -6.970      3.086      7.795
REMARK INTER + INTRA:         -10.289
REMARK INTER:                  -9.383
REMARK INTRA:                  -0.906
REMARK UNBOUND:                -0.264
REMARK  Name = 
REMARK  10 active torsions:
REMARK  status: ('A' for Active; 'I' for Inactive)
REMARK    1  A    between atoms: C_1  and  C_2
REMARK    2  A    between atoms: C_5  and  O_6
REMARK    3  A    between atoms: O_6  and  C_7
REMARK    4  A    between atoms: C_7  and  C_8
REMARK    5  A    between atoms: C_8  and  C_9
REMARK    6  A    between atoms: C_8  and  C_10
REMARK    7  A    between atoms: C_14  and  O_15
REMARK    8  A    between atoms: O_15  and  C_16
REMARK    9  A    between atoms: CA_22  and  C_23
REMARK   10  A    between atoms: C_23  and  OXT_25
REMARK                            x       y       z     vdW  Elec       q    Type
REMARK                         _______ _______ _______ _____ _____    ______ ____
ROOT
ATOM      1  C   UNL     1      48.398   8.201  13.011  0.00  0.00    +0.000 C 
ATOM      2  C   UNL     1      49.485   7.368  12.316  0.00  0.00    +0.000 C 
ENDROOT
BRANCH   1   3
ATOM      3  C   UNL     1      47.020   7.782  12.523  0.00  0.00    +0.000 A 
ATOM      4  C   UNL     1      46.031   8.749  12.293  0.00  0.00    +0.000 A 
ATOM      5  C   UNL     1      44.794   8.387  11.750  0.00  0.00    +0.000 A 
ATOM      6  C   UNL     1      44.521   7.054  11.434  0.00  0.00    +0.000 A 
ATOM      7  C   UNL     1      45.481   6.080  11.683  0.00  0.00    +0.000 A 
ATOM      8  C   UNL     1      46.720   6.444  12.225  0.00  0.00    +0.000 A 
BRANCH   7   9
ATOM      9  O   UNL     1      45.351   4.748  11.386  0.00  0.00    +0.000 OA
BRANCH   9  10
ATOM     10  C   UNL     1      44.032   4.167  11.289  0.00  0.00    +0.000 C 
ATOM     11  C   UNL     1      43.487   3.397  12.512  0.00  0.00    +0.000 C 
ATOM     12  N   UNL     1      43.079   2.285  11.630  0.00  0.00    +0.000 NA
ATOM     13  C   UNL     1      43.991   2.791  10.587  0.00  0.00    +0.000 C 
ATOM     14  H   UNL     1      42.096   2.310  11.359  0.00  0.00    +0.000 HD
ENDBRANCH   9  10
ENDBRANCH   7   9
ENDBRANCH   1   3
BRANCH   1  15
ATOM     15  C   UNL     1      48.545   8.140  14.544  0.00  0.00    +0.000 C 
BRANCH  15  16
ATOM     16  O   UNL     1      49.617   7.241  14.859  0.00  0.00    +0.000 OA
BRANCH  16  21
ATOM     17  C   UNL     1      48.785   4.169  19.451  0.00  0.00    +0.000 C 
ATOM     18  C   UNL     1      48.981   4.978  18.213  0.00  0.00    +0.000 A 
ATOM     19  C   UNL     1      49.668   6.172  18.248  0.00  0.00    +0.000 A 
ATOM     20  N   UNL     1      49.895   6.949  17.172  0.00  0.00    +0.000 NA
ATOM     21  C   UNL     1      49.407   6.510  16.005  0.00  0.00    +0.000 A 
ATOM     22  N   UNL     1      48.717   5.378  15.831  0.00  0.00    +0.000 NA
ATOM     23  CA  UNL     1      48.522   4.632  16.954  0.00  0.00    +0.000 A 
BRANCH  23  24
ATOM     24  C   UNL     1      47.744   3.371  16.703  0.00  0.00    +0.000 C 
ATOM     25  O   UNL     1      46.596   3.156  17.046  0.00  0.00    +0.000 OA
BRANCH  24  26
ATOM     26  OXT UNL     1      48.502   2.475  16.023  0.00  0.00    +0.000 OA
ATOM     27  HXT UNL     1      48.830   1.786  16.651  0.00  0.00    +0.000 HD
ENDBRANCH  24  26
ENDBRANCH  23  24
ENDBRANCH  16  21
ENDBRANCH  15  16
ENDBRANCH   1  15
TORSDOF 8
ENDMDL
MODEL 7
REMARK VINA RESULT:    -6.894      4.026      6.346
REMARK INTER + INTRA:         -10.180
REMARK INTER:                  -9.102
REMARK INTRA:                  -1.079
REMARK UNBOUND:                -0.264
REMARK  Name = 
REMARK  10 active torsions:
REMARK  status: ('A' for Active; 'I' for Inactive)
REMARK    1  A    between atoms: C_1  and  C_2
REMARK    2  A    between atoms: C_5  and  O_6
REMARK    3  A    between atoms: O_6  and  C_7
REMARK    4  A    between atoms: C_7  and  C_8
REMARK    5  A    between atoms: C_8  and  C_9
REMARK    6  A    between atoms: C_8  and  C_10
REMARK    7  A    between atoms: C_14  and  O_15
REMARK    8  A    between atoms: O_15  and  C_16
REMARK    9  A    between atoms: CA_22  and  C_23
REMARK   10  A    between atoms: C_23  and  OXT_25
REMARK                            x       y       z     vdW  Elec       q    Type
REMARK                         _______ _______ _______ _____ _____    ______ ____
ROOT
ATOM      1  C   UNL     1      48.539   3.328  17.264  0.00  0.00    +0.000 C 
ATOM      2  C   UNL     1      48.998   2.020  16.603  0.00  0.00    +0.000 C 
ENDROOT
BRANCH   1   3
ATOM      3  C   UNL     1      49.700   4.304  17.366  0.00  0.00    +0.000 A 
ATOM      4  C   UNL     1      50.993   3.835  17.637  0.00  0.00    +0.000 A 
ATOM      5  C   UNL     1      52.083   4.711  17.634  0.00  0.00    +0.000 A 
ATOM      6  C   UNL     1      51.901   6.070  17.368  0.00  0.00    +0.000 A 
ATOM      7  C   UNL     1      50.620   6.555  17.126  0.00  0.00    +0.000 A 
ATOM      8  C   UNL     1      49.530   5.677  17.126  0.00  0.00    +0.000 A 
BRANCH   7   9
ATOM      9  O   UNL     1      50.312   7.855  16.817  0.00  0.00    +0.000 OA
BRANCH   9  10
ATOM     10  C   UNL     1      48.930   8.272  16.793  0.00  0.00    +0.000 C 
ATOM     11  C   UNL     1      48.451   9.129  15.601  0.00  0.00    +0.000 C 
ATOM     12  N   UNL     1      47.800  10.067  16.538  0.00  0.00    +0.000 NA
ATOM     13  C   UNL     1      48.629   9.533  17.635  0.00  0.00    +0.000 C 
ATOM     14  H   UNL     1      46.801   9.901  16.663  0.00  0.00    +0.000 HD
ENDBRANCH   9  10
ENDBRANCH   7   9
ENDBRANCH   1   3
BRANCH   1  15
ATOM     15  C   UNL     1      47.311   3.915  16.542  0.00  0.00    +0.000 C 
BRANCH  15  16
ATOM     16  O   UNL     1      47.342   3.485  15.175  0.00  0.00    +0.000 OA
BRANCH  16  21
ATOM     17  C   UNL     1      45.280   7.286  11.638  0.00  0.00    +0.000 C 
ATOM     18  C   UNL     1      45.812   6.251  12.570  0.00  0.00    +0.000 A 
ATOM     19  C   UNL     1      47.107   6.313  13.036  0.00  0.00    +0.000 A 
ATOM     20  N   UNL     1      47.651   5.423  13.887  0.00  0.00    +0.000 NA
ATOM     21  C   UNL     1      46.862   4.421  14.289  0.00  0.00    +0.000 A 
ATOM     22  N   UNL     1      45.592   4.235  13.910  0.00  0.00    +0.000 NA
ATOM     23  CA  UNL     1      45.095   5.168  13.051  0.00  0.00    +0.000 A 
BRANCH  23  24
ATOM     24  C   UNL     1      43.666   4.915  12.660  0.00  0.00    +0.000 C 
ATOM     25  O   UNL     1      43.287   4.165  11.779  0.00  0.00    +0.000 OA
BRANCH  24  26
ATOM     26  OXT UNL     1      42.826   5.645  13.435  0.00  0.00    +0.000 OA
ATOM     27  HXT UNL     1      42.089   5.992  12.877  0.00  0.00    +0.000 HD
ENDBRANCH  24  26
ENDBRANCH  23  24
ENDBRANCH  16  21
ENDBRANCH  15  16
ENDBRANCH   1  15
TORSDOF 8
ENDMDL
MODEL 8
REMARK VINA RESULT:    -6.836      2.099      8.320
REMARK INTER + INTRA:         -10.096
REMARK INTER:                  -9.368
REMARK INTRA:                  -0.729
REMARK UNBOUND:                -0.264
REMARK  Name = 
REMARK  10 active torsions:
REMARK  status: ('A' for Active; 'I' for Inactive)
REMARK    1  A    between atoms: C_1  and  C_2
REMARK    2  A    between atoms: C_5  and  O_6
REMARK    3  A    between atoms: O_6  and  C_7
REMARK    4  A    between atoms: C_7  and  C_8
REMARK    5  A    between atoms: C_8  and  C_9
REMARK    6  A    between atoms: C_8  and  C_10
REMARK    7  A    between atoms: C_14  and  O_15
REMARK    8  A    between atoms: O_15  and  C_16
REMARK    9  A    between atoms: CA_22  and  C_23
REMARK   10  A    between atoms: C_23  and  OXT_25
REMARK                            x       y       z     vdW  Elec       q    Type
REMARK                         _______ _______ _______ _____ _____    ______ ____
ROOT
ATOM      1  C   UNL     1      46.251   5.083  13.967  0.00  0.00    +0.000 C 
ATOM      2  C   UNL     1      47.023   6.321  13.490  0.00  0.00    +0.000 C 
ENDROOT
BRANCH   1   3
ATOM      3  C   UNL     1      45.182   4.704  12.955  0.00  0.00    +0.000 A 
ATOM      4  C   UNL     1      43.889   5.236  13.063  0.00  0.00    +0.000 A 
ATOM      5  C   UNL     1      42.927   4.975  12.083  0.00  0.00    +0.000 A 
ATOM      6  C   UNL     1      43.236   4.171  10.983  0.00  0.00    +0.000 A 
ATOM      7  C   UNL     1      44.505   3.612  10.876  0.00  0.00    +0.000 A 
ATOM      8  C   UNL     1      45.468   3.877  11.857  0.00  0.00    +0.000 A 
BRANCH   7   9
ATOM      9  O   UNL     1      44.943   2.839   9.832  0.00  0.00    +0.000 OA
BRANCH   9  10
ATOM     10  C   UNL     1      45.070   3.426   8.519  0.00  0.00    +0.000 C 
ATOM     11  C   UNL     1      46.168   2.876   7.582  0.00  0.00    +0.000 C 
ATOM     12  N   UNL     1      46.596   4.255   7.274  0.00  0.00    +0.000 NA
ATOM     13  C   UNL     1      45.895   4.732   8.481  0.00  0.00    +0.000 C 
ATOM     14  H   UNL     1      46.209   4.624   6.404  0.00  0.00    +0.000 HD
ENDBRANCH   9  10
ENDBRANCH   7   9
ENDBRANCH   1   3
BRANCH   1  15
ATOM     15  C   UNL     1      47.210   3.924  14.302  0.00  0.00    +0.000 C 
BRANCH  15  16
ATOM     16  O   UNL     1      46.925   3.472  15.632  0.00  0.00    +0.000 OA
BRANCH  16  21
ATOM     17  C   UNL     1      49.481   6.556  19.527  0.00  0.00    +0.000 C 
ATOM     18  C   UNL     1      48.826   5.720  18.480  0.00  0.00    +0.000 A 
ATOM     19  C   UNL     1      47.514   5.320  18.611  0.00  0.00    +0.000 A 
ATOM     20  N   UNL     1      46.853   4.577  17.702  0.00  0.00    +0.000 NA
ATOM     21  C   UNL     1      47.541   4.214  16.613  0.00  0.00    +0.000 A 
ATOM     22  N   UNL     1      48.817   4.525  16.363  0.00  0.00    +0.000 NA
ATOM     23  CA  UNL     1      49.433   5.281  17.316  0.00  0.00    +0.000 A 
BRANCH  23  24
ATOM     24  C   UNL     1      50.863   5.603  16.985  0.00  0.00    +0.000 C 
ATOM     25  O   UNL     1      51.263   6.617  16.443  0.00  0.00    +0.000 OA
BRANCH  24  26
ATOM     26  OXT UNL     1      51.679   4.595  17.381  0.00  0.00    +0.000 OA
ATOM     27  HXT UNL     1      51.142   3.900  17.832  0.00  0.00    +0.000 HD
ENDBRANCH  24  26
ENDBRANCH  23  24
ENDBRANCH  16  21
ENDBRANCH  15  16
ENDBRANCH   1  15
TORSDOF 8
ENDMDL
MODEL 9
REMARK VINA RESULT:    -6.483      3.894      6.740
REMARK INTER + INTRA:          -9.589
REMARK INTER:                  -8.912
REMARK INTRA:                  -0.677
REMARK UNBOUND:                -0.264
REMARK  Name = 
REMARK  10 active torsions:
REMARK  status: ('A' for Active; 'I' for Inactive)
REMARK    1  A    between atoms: C_1  and  C_2
REMARK    2  A    between atoms: C_5  and  O_6
REMARK    3  A    between atoms: O_6  and  C_7
REMARK    4  A    between atoms: C_7  and  C_8
REMARK    5  A    between atoms: C_8  and  C_9
REMARK    6  A    between atoms: C_8  and  C_10
REMARK    7  A    between atoms: C_14  and  O_15
REMARK    8  A    between atoms: O_15  and  C_16
REMARK    9  A    between atoms: CA_22  and  C_23
REMARK   10  A    between atoms: C_23  and  OXT_25
REMARK                            x       y       z     vdW  Elec       q    Type
REMARK                         _______ _______ _______ _____ _____    ______ ____
ROOT
ATOM      1  C   UNL     1      48.066   3.183  17.404  0.00  0.00    +0.000 C 
ATOM      2  C   UNL     1      48.880   2.125  16.645  0.00  0.00    +0.000 C 
ENDROOT
BRANCH   1   3
ATOM      3  C   UNL     1      48.954   3.927  18.388  0.00  0.00    +0.000 A 
ATOM      4  C   UNL     1      48.417   4.422  19.585  0.00  0.00    +0.000 A 
ATOM      5  C   UNL     1      49.243   5.019  20.543  0.00  0.00    +0.000 A 
ATOM      6  C   UNL     1      50.617   5.139  20.319  0.00  0.00    +0.000 A 
ATOM      7  C   UNL     1      51.159   4.678  19.123  0.00  0.00    +0.000 A 
ATOM      8  C   UNL     1      50.332   4.079  18.167  0.00  0.00    +0.000 A 
BRANCH   7   9
ATOM      9  O   UNL     1      52.491   4.704  18.798  0.00  0.00    +0.000 OA
BRANCH   9  10
ATOM     10  C   UNL     1      53.044   3.646  17.986  0.00  0.00    +0.000 C 
ATOM     11  C   UNL     1      53.675   2.433  18.705  0.00  0.00    +0.000 C 
ATOM     12  N   UNL     1      54.858   2.528  17.826  0.00  0.00    +0.000 NA
ATOM     13  C   UNL     1      54.481   3.912  17.483  0.00  0.00    +0.000 C 
ATOM     14  H   UNL     1      54.835   1.890  17.030  0.00  0.00    +0.000 HD
ENDBRANCH   9  10
ENDBRANCH   7   9
ENDBRANCH   1   3
BRANCH   1  15
ATOM     15  C   UNL     1      47.322   4.117  16.429  0.00  0.00    +0.000 C 
BRANCH  15  16
ATOM     16  O   UNL     1      47.488   3.607  15.099  0.00  0.00    +0.000 OA
BRANCH  16  21
ATOM     17  C   UNL     1      45.135   6.864  11.218  0.00  0.00    +0.000 C 
ATOM     18  C   UNL     1      45.743   5.973  12.247  0.00  0.00    +0.000 A 
ATOM     19  C   UNL     1      47.075   6.085  12.585  0.00  0.00    +0.000 A 
ATOM     20  N   UNL     1      47.689   5.325  13.512  0.00  0.00    +0.000 NA
ATOM     21  C   UNL     1      46.935   4.406  14.127  0.00  0.00    +0.000 A 
ATOM     22  N   UNL     1      45.637   4.185  13.890  0.00  0.00    +0.000 NA
ATOM     23  CA  UNL     1      45.069   4.986  12.946  0.00  0.00    +0.000 A 
BRANCH  23  24
ATOM     24  C   UNL     1      43.611   4.698  12.721  0.00  0.00    +0.000 C 
ATOM     25  O   UNL     1      43.155   3.803  12.034  0.00  0.00    +0.000 OA
BRANCH  24  26
ATOM     26  OXT UNL     1      42.843   5.586  13.400  0.00  0.00    +0.000 OA
ATOM     27  HXT UNL     1      42.565   5.184  14.258  0.00  0.00    +0.000 HD
ENDBRANCH  24  26
ENDBRANCH  23  24
ENDBRANCH  16  21
ENDBRANCH  15  16
ENDBRANCH   1  15
TORSDOF 8
ENDMDL
