MODEL 1
REMARK VINA RESULT:    -6.884      0.000      0.000
REMARK INTER + INTRA:          -9.939
REMARK INTER:                  -8.896
REMARK INTRA:                  -1.043
REMARK UNBOUND:                -1.043
REMARK  Name = 
REMARK  5 active torsions:
REMARK  status: ('A' for Active; 'I' for Inactive)
REMARK    1  A    between atoms: C_2  and  C_4
REMARK    2  A    between atoms: C_10  and  O_11
REMARK    3  A    between atoms: O_11  and  C_12
REMARK    4  A    between atoms: C_12  and  C_13
REMARK    5  A    between atoms: C_17  and  N_18
REMARK                            x       y       z     vdW  Elec       q    Type
REMARK                         _______ _______ _______ _____ _____    ______ ____
ROOT
ATOM      1  C   UNL     1      46.856   6.606  11.257  0.00  0.00    +0.000 C 
ENDROOT
BRANCH   1   2
ATOM      2  C   UNL     1      47.619   6.861  12.530  0.00  0.00    +0.000 A 
ATOM      3  C   UNL     1      48.578   7.858  12.640  0.00  0.00    +0.000 A 
ATOM      4  N   UNL     1      49.299   8.089  13.755  0.00  0.00    +0.000 NA
ATOM      5  C   UNL     1      49.055   7.271  14.810  0.00  0.00    +0.000 A 
ATOM      6  C   UNL     1      48.143   6.210  14.823  0.00  0.00    +0.000 A 
ATOM      7  C   UNL     1      47.437   6.019  13.634  0.00  0.00    +0.000 A 
BRANCH   6   8
ATOM      8  N   UNL     1      47.940   5.417  15.932  0.00  0.00    +0.000 N 
ATOM      9  C   UNL     1      48.577   5.669  17.230  0.00  0.00    +0.000 C 
ATOM     10  C   UNL     1      49.363   4.431  17.716  0.00  0.00    +0.000 C 
ATOM     11  N   UNL     1      48.575   3.181  17.694  0.00  0.00    +0.000 NA
ATOM     12  C   UNL     1      48.043   2.980  16.328  0.00  0.00    +0.000 C 
ATOM     13  C   UNL     1      47.190   4.160  15.813  0.00  0.00    +0.000 C 
ATOM     14  H   UNL     1      47.781   3.297  18.323  0.00  0.00    +0.000 HD
ENDBRANCH   6   8
ENDBRANCH   1   2
BRANCH   1  15
ATOM     15  O   UNL     1      45.443   6.347  11.487  0.00  0.00    +0.000 OA
BRANCH  15  22
ATOM     16  C   UNL     1      44.138   4.266  11.505  0.00  0.00    +0.000 A 
ATOM     17  C   UNL     1      43.792   3.096  10.808  0.00  0.00    +0.000 A 
ATOM     18  C   UNL     1      44.342   2.836   9.560  0.00  0.00    +0.000 A 
ATOM     19  C   UNL     1      45.202   3.777   9.032  0.00  0.00    +0.000 A 
ATOM     20 BR   UNL     1      45.956   3.495   7.318  0.00  0.00    +0.000 Br
ATOM     21  N   UNL     1      45.545   4.916   9.664  0.00  0.00    +0.000 NA
ATOM     22  C   UNL     1      45.029   5.160  10.888  0.00  0.00    +0.000 A 
BRANCH  16  24
ATOM     23  N   UNL     1      42.832   5.603  13.079  0.00  0.00    +0.000 N 
ATOM     24  C   UNL     1      43.472   4.437  12.829  0.00  0.00    +0.000 C 
ATOM     25  O   UNL     1      43.488   3.542  13.673  0.00  0.00    +0.000 OA
ATOM     26  H   UNL     1      42.343   5.700  13.959  0.00  0.00    +0.000 HD
ATOM     27  H   UNL     1      42.814   6.362  12.412  0.00  0.00    +0.000 HD
ENDBRANCH  16  24
ENDBRANCH  15  22
ENDBRANCH   1  15
TORSDOF 5
ENDMDL
MODEL 2
REMARK VINA RESULT:    -6.862      3.494      6.942
REMARK INTER + INTRA:          -9.911
REMARK INTER:                  -8.904
REMARK INTRA:                  -1.006
REMARK UNBOUND:                -1.043
REMARK  Name = 
REMARK  5 active torsions:
REMARK  status: ('A' for Active; 'I' for Inactive)
REMARK    1  A    between atoms: C_2  and  C_4
REMARK    2  A    between atoms: C_10  and  O_11
REMARK    3  A    between atoms: O_11  and  C_12
REMARK    4  A    between atoms: C_12  and  C_13
REMARK    5  A    between atoms: C_17  and  N_18
REMARK                            x       y       z     vdW  Elec       q    Type
REMARK                         _______ _______ _______ _____ _____    ______ ____
ROOT
ATOM      1  C   UNL     1      49.072   6.841  14.822  0.00  0.00    +0.000 C 
ENDROOT
BRANCH   1   2
ATOM      2  C   UNL     1      48.192   6.667  13.612  0.00  0.00    +0.000 A 
ATOM      3  C   UNL     1      48.393   7.370  12.433  0.00  0.00    +0.000 A 
ATOM      4  N   UNL     1      47.604   7.260  11.346  0.00  0.00    +0.000 NA
ATOM      5  C   UNL     1      46.552   6.408  11.450  0.00  0.00    +0.000 A 
ATOM      6  C   UNL     1      46.215   5.666  12.587  0.00  0.00    +0.000 A 
ATOM      7  C   UNL     1      47.067   5.835  13.681  0.00  0.00    +0.000 A 
BRANCH   6   8
ATOM      8  N   UNL     1      45.132   4.815  12.627  0.00  0.00    +0.000 N 
ATOM      9  C   UNL     1      45.199   3.408  12.215  0.00  0.00    +0.000 C 
ATOM     10  C   UNL     1      44.150   3.093  11.126  0.00  0.00    +0.000 C 
ATOM     11  N   UNL     1      42.781   3.528  11.476  0.00  0.00    +0.000 NA
ATOM     12  C   UNL     1      42.809   4.971  11.796  0.00  0.00    +0.000 C 
ATOM     13  C   UNL     1      43.793   5.337  12.930  0.00  0.00    +0.000 C 
ATOM     14  H   UNL     1      42.497   3.027  12.317  0.00  0.00    +0.000 HD
ENDBRANCH   6   8
ENDBRANCH   1   2
BRANCH   1  15
ATOM     15  O   UNL     1      49.076   5.675  15.690  0.00  0.00    +0.000 OA
BRANCH  15  22
ATOM     16  C   UNL     1      47.801   4.991  17.675  0.00  0.00    +0.000 A 
ATOM     17  C   UNL     1      47.269   5.381  18.916  0.00  0.00    +0.000 A 
ATOM     18  C   UNL     1      47.427   6.685  19.365  0.00  0.00    +0.000 A 
ATOM     19  C   UNL     1      48.145   7.554  18.570  0.00  0.00    +0.000 A 
ATOM     20 BR   UNL     1      48.425   9.335  19.147  0.00  0.00    +0.000 Br
ATOM     21  N   UNL     1      48.683   7.211  17.383  0.00  0.00    +0.000 NA
ATOM     22  C   UNL     1      48.510   5.950  16.932  0.00  0.00    +0.000 A 
BRANCH  16  24
ATOM     23  N   UNL     1      48.639   2.825  16.914  0.00  0.00    +0.000 N 
ATOM     24  C   UNL     1      47.575   3.562  17.308  0.00  0.00    +0.000 C 
ATOM     25  O   UNL     1      46.456   3.055  17.371  0.00  0.00    +0.000 OA
ATOM     26  H   UNL     1      48.492   1.846  16.709  0.00  0.00    +0.000 HD
ATOM     27  H   UNL     1      49.568   3.217  16.837  0.00  0.00    +0.000 HD
ENDBRANCH  16  24
ENDBRANCH  15  22
ENDBRANCH   1  15
TORSDOF 5
ENDMDL
MODEL 3
REMARK VINA RESULT:    -6.692      3.364      6.835
REMARK INTER + INTRA:          -9.692
REMARK INTER:                  -8.832
REMARK INTRA:                  -0.860
REMARK UNBOUND:                -1.043
REMARK  Name = 
REMARK  5 active torsions:
REMARK  status: ('A' for Active; 'I' for Inactive)
REMARK    1  A    between atoms: C_2  and  C_4
REMARK    2  A    between atoms: C_10  and  O_11
REMARK    3  A    between atoms: O_11  and  C_12
REMARK    4  A    between atoms: C_12  and  C_13
REMARK    5  A    between atoms: C_17  and  N_18
REMARK                            x       y       z     vdW  Elec       q    Type
REMARK                         _______ _______ _______ _____ _____    ______ ____
ROOT
ATOM      1  C   UNL     1      48.937   6.905  15.101  0.00  0.00    +0.000 C 
ENDROOT
BRANCH   1   2
ATOM      2  C   UNL     1      48.142   6.703  13.837  0.00  0.00    +0.000 A 
ATOM      3  C   UNL     1      48.430   7.374  12.658  0.00  0.00    +0.000 A 
ATOM      4  N   UNL     1      47.717   7.239  11.522  0.00  0.00    +0.000 NA
ATOM      5  C   UNL     1      46.655   6.396  11.574  0.00  0.00    +0.000 A 
ATOM      6  C   UNL     1      46.236   5.685  12.704  0.00  0.00    +0.000 A 
ATOM      7  C   UNL     1      47.011   5.878  13.849  0.00  0.00    +0.000 A 
BRANCH   6   8
ATOM      8  N   UNL     1      45.146   4.840  12.690  0.00  0.00    +0.000 N 
ATOM      9  C   UNL     1      45.222   3.437  12.267  0.00  0.00    +0.000 C 
ATOM     10  C   UNL     1      44.217   3.140  11.132  0.00  0.00    +0.000 C 
ATOM     11  N   UNL     1      42.837   3.580  11.429  0.00  0.00    +0.000 NA
ATOM     12  C   UNL     1      42.860   5.019  11.767  0.00  0.00    +0.000 C 
ATOM     13  C   UNL     1      43.800   5.367  12.943  0.00  0.00    +0.000 C 
ATOM     14  H   UNL     1      42.516   3.072  12.253  0.00  0.00    +0.000 HD
ENDBRANCH   6   8
ENDBRANCH   1   2
BRANCH   1  15
ATOM     15  O   UNL     1      48.401   6.161  16.230  0.00  0.00    +0.000 OA
BRANCH  15  22
ATOM     16  C   UNL     1      48.984   3.885  16.950  0.00  0.00    +0.000 A 
ATOM     17  C   UNL     1      49.985   3.037  17.450  0.00  0.00    +0.000 A 
ATOM     18  C   UNL     1      51.252   3.536  17.724  0.00  0.00    +0.000 A 
ATOM     19  C   UNL     1      51.486   4.869  17.459  0.00  0.00    +0.000 A 
ATOM     20 BR   UNL     1      53.203   5.598  17.780  0.00  0.00    +0.000 Br
ATOM     21  N   UNL     1      50.555   5.709  16.966  0.00  0.00    +0.000 NA
ATOM     22  C   UNL     1      49.315   5.232  16.720  0.00  0.00    +0.000 A 
BRANCH  16  24
ATOM     23  N   UNL     1      46.947   2.791  17.739  0.00  0.00    +0.000 N 
ATOM     24  C   UNL     1      47.670   3.230  16.683  0.00  0.00    +0.000 C 
ATOM     25  O   UNL     1      47.241   3.100  15.537  0.00  0.00    +0.000 OA
ATOM     26  H   UNL     1      46.036   2.387  17.559  0.00  0.00    +0.000 HD
ATOM     27  H   UNL     1      47.279   2.869  18.690  0.00  0.00    +0.000 HD
ENDBRANCH  16  24
ENDBRANCH  15  22
ENDBRANCH   1  15
TORSDOF 5
ENDMDL
MODEL 4
REMARK VINA RESULT:    -6.595      1.819      2.886
REMARK INTER + INTRA:          -9.565
REMARK INTER:                  -8.836
REMARK INTRA:                  -0.729
REMARK UNBOUND:                -1.043
REMARK  Name = 
REMARK  5 active torsions:
REMARK  status: ('A' for Active; 'I' for Inactive)
REMARK    1  A    between atoms: C_2  and  C_4
REMARK    2  A    between atoms: C_10  and  O_11
REMARK    3  A    between atoms: O_11  and  C_12
REMARK    4  A    between atoms: C_12  and  C_13
REMARK    5  A    between atoms: C_17  and  N_18
REMARK                            x       y       z     vdW  Elec       q    Type
REMARK                         _______ _______ _______ _____ _____    ______ ____
ROOT
ATOM      1  C   UNL     1      46.087   6.216  10.770  0.00  0.00    +0.000 C 
ENDROOT
BRANCH   1   2
ATOM      2  C   UNL     1      46.548   5.885  12.165  0.00  0.00    +0.000 A 
ATOM      3  C   UNL     1      46.045   4.811  12.884  0.00  0.00    +0.000 A 
ATOM      4  N   UNL     1      46.415   4.510  14.144  0.00  0.00    +0.000 NA
ATOM      5  C   UNL     1      47.327   5.335  14.718  0.00  0.00    +0.000 A 
ATOM      6  C   UNL     1      47.888   6.468  14.120  0.00  0.00    +0.000 A 
ATOM      7  C   UNL     1      47.455   6.729  12.818  0.00  0.00    +0.000 A 
BRANCH   6   8
ATOM      8  N   UNL     1      48.815   7.265  14.758  0.00  0.00    +0.000 N 
ATOM      9  C   UNL     1      49.535   8.354  14.090  0.00  0.00    +0.000 C 
ATOM     10  C   UNL     1      51.064   8.178  14.222  0.00  0.00    +0.000 C 
ATOM     11  N   UNL     1      51.519   7.952  15.611  0.00  0.00    +0.000 NA
ATOM     12  C   UNL     1      50.792   6.790  16.164  0.00  0.00    +0.000 C 
ATOM     13  C   UNL     1      49.254   6.939  16.121  0.00  0.00    +0.000 C 
ATOM     14  H   UNL     1      51.263   8.771  16.162  0.00  0.00    +0.000 HD
ENDBRANCH   6   8
ENDBRANCH   1   2
BRANCH   1  15
ATOM     15  O   UNL     1      44.771   5.675  10.466  0.00  0.00    +0.000 OA
BRANCH  15  22
ATOM     16  C   UNL     1      44.195   3.300  10.220  0.00  0.00    +0.000 A 
ATOM     17  C   UNL     1      44.352   2.131   9.457  0.00  0.00    +0.000 A 
ATOM     18  C   UNL     1      45.155   2.137   8.325  0.00  0.00    +0.000 A 
ATOM     19  C   UNL     1      45.755   3.329   7.973  0.00  0.00    +0.000 A 
ATOM     20 BR   UNL     1      46.834   3.408   6.418  0.00  0.00    +0.000 Br
ATOM     21  N   UNL     1      45.615   4.473   8.671  0.00  0.00    +0.000 NA
ATOM     22  C   UNL     1      44.853   4.463   9.786  0.00  0.00    +0.000 A 
BRANCH  16  24
ATOM     23  N   UNL     1      42.599   4.257  11.804  0.00  0.00    +0.000 N 
ATOM     24  C   UNL     1      43.298   3.169  11.406  0.00  0.00    +0.000 C 
ATOM     25  O   UNL     1      43.181   2.100  12.004  0.00  0.00    +0.000 OA
ATOM     26  H   UNL     1      41.958   4.155  12.580  0.00  0.00    +0.000 HD
ATOM     27  H   UNL     1      42.686   5.152  11.343  0.00  0.00    +0.000 HD
ENDBRANCH  16  24
ENDBRANCH  15  22
ENDBRANCH   1  15
TORSDOF 5
ENDMDL
MODEL 5
REMARK VINA RESULT:    -6.469      3.621      7.268
REMARK INTER + INTRA:          -9.403
REMARK INTER:                  -8.651
REMARK INTRA:                  -0.752
REMARK UNBOUND:                -1.043
REMARK  Name = 
REMARK  5 active torsions:
REMARK  status: ('A' for Active; 'I' for Inactive)
REMARK    1  A    between atoms: C_2  and  C_4
REMARK    2  A    between atoms: C_10  and  O_11
REMARK    3  A    between atoms: O_11  and  C_12
REMARK    4  A    between atoms: C_12  and  C_13
REMARK    5  A    between atoms: C_17  and  N_18
REMARK                            x       y       z     vdW  Elec       q    Type
REMARK                         _______ _______ _______ _____ _____    ______ ____
ROOT
ATOM      1  C   UNL     1      48.890   6.763  15.247  0.00  0.00    +0.000 C 
ENDROOT
BRANCH   1   2
ATOM      2  C   UNL     1      48.071   6.641  13.988  0.00  0.00    +0.000 A 
ATOM      3  C   UNL     1      48.320   7.406  12.858  0.00  0.00    +0.000 A 
ATOM      4  N   UNL     1      47.585   7.343  11.730  0.00  0.00    +0.000 NA
ATOM      5  C   UNL     1      46.540   6.476  11.739  0.00  0.00    +0.000 A 
ATOM      6  C   UNL     1      46.159   5.674  12.820  0.00  0.00    +0.000 A 
ATOM      7  C   UNL     1      46.956   5.795  13.960  0.00  0.00    +0.000 A 
BRANCH   6   8
ATOM      8  N   UNL     1      45.086   4.810  12.763  0.00  0.00    +0.000 N 
ATOM      9  C   UNL     1      45.208   3.400  12.376  0.00  0.00    +0.000 C 
ATOM     10  C   UNL     1      44.273   3.062  11.194  0.00  0.00    +0.000 C 
ATOM     11  N   UNL     1      42.871   3.484  11.404  0.00  0.00    +0.000 NA
ATOM     12  C   UNL     1      42.853   4.931  11.711  0.00  0.00    +0.000 C 
ATOM     13  C   UNL     1      43.719   5.320  12.930  0.00  0.00    +0.000 C 
ATOM     14  H   UNL     1      42.513   2.989  12.220  0.00  0.00    +0.000 HD
ENDBRANCH   6   8
ENDBRANCH   1   2
BRANCH   1  15
ATOM     15  O   UNL     1      49.287   5.473  15.789  0.00  0.00    +0.000 OA
BRANCH  15  22
ATOM     16  C   UNL     1      49.017   4.132  17.830  0.00  0.00    +0.000 A 
ATOM     17  C   UNL     1      48.657   4.128  19.188  0.00  0.00    +0.000 A 
ATOM     18  C   UNL     1      48.236   5.300  19.803  0.00  0.00    +0.000 A 
ATOM     19  C   UNL     1      48.219   6.451  19.043  0.00  0.00    +0.000 A 
ATOM     20 BR   UNL     1      47.688   8.086  19.838  0.00  0.00    +0.000 Br
ATOM     21  N   UNL     1      48.570   6.496  17.744  0.00  0.00    +0.000 NA
ATOM     22  C   UNL     1      48.958   5.354  17.136  0.00  0.00    +0.000 A 
BRANCH  16  24
ATOM     23  N   UNL     1      50.547   2.227  17.841  0.00  0.00    +0.000 N 
ATOM     24  C   UNL     1      49.463   2.816  17.286  0.00  0.00    +0.000 C 
ATOM     25  O   UNL     1      48.858   2.266  16.366  0.00  0.00    +0.000 OA
ATOM     26  H   UNL     1      50.821   1.315  17.502  0.00  0.00    +0.000 HD
ATOM     27  H   UNL     1      51.073   2.661  18.587  0.00  0.00    +0.000 HD
ENDBRANCH  16  24
ENDBRANCH  15  22
ENDBRANCH   1  15
TORSDOF 5
ENDMDL
MODEL 6
REMARK VINA RESULT:    -6.321      3.500      4.529
REMARK INTER + INTRA:          -9.212
REMARK INTER:                  -8.422
REMARK INTRA:                  -0.790
REMARK UNBOUND:                -1.043
REMARK  Name = 
REMARK  5 active torsions:
REMARK  status: ('A' for Active; 'I' for Inactive)
REMARK    1  A    between atoms: C_2  and  C_4
REMARK    2  A    between atoms: C_10  and  O_11
REMARK    3  A    between atoms: O_11  and  C_12
REMARK    4  A    between atoms: C_12  and  C_13
REMARK    5  A    between atoms: C_17  and  N_18
REMARK                            x       y       z     vdW  Elec       q    Type
REMARK                         _______ _______ _______ _____ _____    ______ ____
ROOT
ATOM      1  C   UNL     1      46.125   6.028  11.640  0.00  0.00    +0.000 C 
ENDROOT
BRANCH   1   2
ATOM      2  C   UNL     1      46.673   7.413  11.864  0.00  0.00    +0.000 A 
ATOM      3  C   UNL     1      45.860   8.508  12.112  0.00  0.00    +0.000 A 
ATOM      4  N   UNL     1      46.319   9.763  12.284  0.00  0.00    +0.000 NA
ATOM      5  C   UNL     1      47.662   9.931  12.191  0.00  0.00    +0.000 A 
ATOM      6  C   UNL     1      48.590   8.922  11.914  0.00  0.00    +0.000 A 
ATOM      7  C   UNL     1      48.048   7.647  11.737  0.00  0.00    +0.000 A 
BRANCH   6   8
ATOM      8  N   UNL     1      49.946   9.159  11.836  0.00  0.00    +0.000 N 
ATOM      9  C   UNL     1      50.519  10.489  11.606  0.00  0.00    +0.000 C 
ATOM     10  C   UNL     1      51.453  10.491  10.375  0.00  0.00    +0.000 C 
ATOM     11  N   UNL     1      52.472   9.421  10.401  0.00  0.00    +0.000 NA
ATOM     12  C   UNL     1      51.789   8.119  10.558  0.00  0.00    +0.000 C 
ATOM     13  C   UNL     1      50.891   8.035  11.813  0.00  0.00    +0.000 C 
ATOM     14  H   UNL     1      53.060   9.565  11.222  0.00  0.00    +0.000 HD
ENDBRANCH   6   8
ENDBRANCH   1   2
BRANCH   1  15
ATOM     15  O   UNL     1      45.073   5.992  10.636  0.00  0.00    +0.000 OA
BRANCH  15  22
ATOM     16  C   UNL     1      44.293   3.665  10.531  0.00  0.00    +0.000 A 
ATOM     17  C   UNL     1      44.295   2.461   9.806  0.00  0.00    +0.000 A 
ATOM     18  C   UNL     1      45.005   2.364   8.616  0.00  0.00    +0.000 A 
ATOM     19  C   UNL     1      45.667   3.489   8.171  0.00  0.00    +0.000 A 
ATOM     20 BR   UNL     1      46.622   3.427   6.537  0.00  0.00    +0.000 Br
ATOM     21  N   UNL     1      45.674   4.663   8.832  0.00  0.00    +0.000 NA
ATOM     22  C   UNL     1      45.005   4.755  10.001  0.00  0.00    +0.000 A 
BRANCH  16  24
ATOM     23  N   UNL     1      42.561   4.621  11.966  0.00  0.00    +0.000 N 
ATOM     24  C   UNL     1      43.485   3.649  11.786  0.00  0.00    +0.000 C 
ATOM     25  O   UNL     1      43.640   2.771  12.634  0.00  0.00    +0.000 OA
ATOM     26  H   UNL     1      41.984   4.582  12.796  0.00  0.00    +0.000 HD
ATOM     27  H   UNL     1      42.422   5.363  11.295  0.00  0.00    +0.000 HD
ENDBRANCH  16  24
ENDBRANCH  15  22
ENDBRANCH   1  15
TORSDOF 5
ENDMDL
MODEL 7
REMARK VINA RESULT:    -6.227      3.520      5.932
REMARK INTER + INTRA:          -9.090
REMARK INTER:                  -8.564
REMARK INTRA:                  -0.526
REMARK UNBOUND:                -1.043
REMARK  Name = 
REMARK  5 active torsions:
REMARK  status: ('A' for Active; 'I' for Inactive)
REMARK    1  A    between atoms: C_2  and  C_4
REMARK    2  A    between atoms: C_10  and  O_11
REMARK    3  A    between atoms: O_11  and  C_12
REMARK    4  A    between atoms: C_12  and  C_13
REMARK    5  A    between atoms: C_17  and  N_18
REMARK                            x       y       z     vdW  Elec       q    Type
REMARK                         _______ _______ _______ _____ _____    ______ ____
ROOT
ATOM      1  C   UNL     1      45.855   5.773  11.312  0.00  0.00    +0.000 C 
ENDROOT
BRANCH   1   2
ATOM      2  C   UNL     1      46.012   7.218  11.709  0.00  0.00    +0.000 A 
ATOM      3  C   UNL     1      47.071   7.670  12.482  0.00  0.00    +0.000 A 
ATOM      4  N   UNL     1      47.220   8.949  12.879  0.00  0.00    +0.000 NA
ATOM      5  C   UNL     1      46.252   9.817  12.490  0.00  0.00    +0.000 A 
ATOM      6  C   UNL     1      45.118   9.488  11.740  0.00  0.00    +0.000 A 
ATOM      7  C   UNL     1      45.019   8.146  11.370  0.00  0.00    +0.000 A 
BRANCH   6   8
ATOM      8  N   UNL     1      44.171  10.421  11.375  0.00  0.00    +0.000 N 
ATOM      9  C   UNL     1      42.872  10.064  10.796  0.00  0.00    +0.000 C 
ATOM     10  C   UNL     1      42.651  10.768   9.438  0.00  0.00    +0.000 C 
ATOM     11  N   UNL     1      42.883  12.227   9.480  0.00  0.00    +0.000 NA
ATOM     12  C   UNL     1      44.244  12.477  10.003  0.00  0.00    +0.000 C 
ATOM     13  C   UNL     1      44.500  11.852  11.393  0.00  0.00    +0.000 C 
ATOM     14  H   UNL     1      42.217  12.632  10.139  0.00  0.00    +0.000 HD
ENDBRANCH   6   8
ENDBRANCH   1   2
BRANCH   1  15
ATOM     15  O   UNL     1      44.942   5.589  10.195  0.00  0.00    +0.000 OA
BRANCH  15  22
ATOM     16  C   UNL     1      44.725   3.144  10.105  0.00  0.00    +0.000 A 
ATOM     17  C   UNL     1      44.984   1.972   9.374  0.00  0.00    +0.000 A 
ATOM     18  C   UNL     1      45.654   2.040   8.160  0.00  0.00    +0.000 A 
ATOM     19  C   UNL     1      46.018   3.288   7.698  0.00  0.00    +0.000 A 
ATOM     20 BR   UNL     1      46.903   3.446   6.031  0.00  0.00    +0.000 Br
ATOM     21  N   UNL     1      45.773   4.433   8.364  0.00  0.00    +0.000 NA
ATOM     22  C   UNL     1      45.143   4.369   9.556  0.00  0.00    +0.000 A 
BRANCH  16  24
ATOM     23  N   UNL     1      44.708   2.731  12.513  0.00  0.00    +0.000 N 
ATOM     24  C   UNL     1      43.989   2.943  11.387  0.00  0.00    +0.000 C 
ATOM     25  O   UNL     1      42.759   2.981  11.431  0.00  0.00    +0.000 OA
ATOM     26  H   UNL     1      44.208   2.640  13.389  0.00  0.00    +0.000 HD
ATOM     27  H   UNL     1      45.717   2.679  12.507  0.00  0.00    +0.000 HD
ENDBRANCH  16  24
ENDBRANCH  15  22
ENDBRANCH   1  15
TORSDOF 5
ENDMDL
MODEL 8
REMARK VINA RESULT:    -6.130      1.757      2.180
REMARK INTER + INTRA:          -8.965
REMARK INTER:                  -8.383
REMARK INTRA:                  -0.582
REMARK UNBOUND:                -1.043
REMARK  Name = 
REMARK  5 active torsions:
REMARK  status: ('A' for Active; 'I' for Inactive)
REMARK    1  A    between atoms: C_2  and  C_4
REMARK    2  A    between atoms: C_10  and  O_11
REMARK    3  A    between atoms: O_11  and  C_12
REMARK    4  A    between atoms: C_12  and  C_13
REMARK    5  A    between atoms: C_17  and  N_18
REMARK                            x       y       z     vdW  Elec       q    Type
REMARK                         _______ _______ _______ _____ _____    ______ ____
ROOT
ATOM      1  C   UNL     1      46.104   6.092  12.755  0.00  0.00    +0.000 C 
ENDROOT
BRANCH   1   2
ATOM      2  C   UNL     1      47.436   6.794  12.814  0.00  0.00    +0.000 A 
ATOM      3  C   UNL     1      48.013   7.397  11.707  0.00  0.00    +0.000 A 
ATOM      4  N   UNL     1      49.216   8.003  11.721  0.00  0.00    +0.000 NA
ATOM      5  C   UNL     1      49.881   7.994  12.905  0.00  0.00    +0.000 A 
ATOM      6  C   UNL     1      49.431   7.394  14.085  0.00  0.00    +0.000 A 
ATOM      7  C   UNL     1      48.182   6.775  13.999  0.00  0.00    +0.000 A 
BRANCH   6   8
ATOM      8  N   UNL     1      50.155   7.423  15.258  0.00  0.00    +0.000 N 
ATOM      9  C   UNL     1      51.528   7.932  15.344  0.00  0.00    +0.000 C 
ATOM     10  C   UNL     1      52.481   6.874  15.943  0.00  0.00    +0.000 C 
ATOM     11  N   UNL     1      52.000   6.294  17.215  0.00  0.00    +0.000 NA
ATOM     12  C   UNL     1      50.645   5.741  17.002  0.00  0.00    +0.000 C 
ATOM     13  C   UNL     1      49.629   6.775  16.466  0.00  0.00    +0.000 C 
ATOM     14  H   UNL     1      51.925   7.049  17.896  0.00  0.00    +0.000 HD
ENDBRANCH   6   8
ENDBRANCH   1   2
BRANCH   1  15
ATOM     15  O   UNL     1      45.386   6.347  11.516  0.00  0.00    +0.000 OA
BRANCH  15  22
ATOM     16  C   UNL     1      44.142   4.231  11.416  0.00  0.00    +0.000 A 
ATOM     17  C   UNL     1      43.864   3.071  10.674  0.00  0.00    +0.000 A 
ATOM     18  C   UNL     1      44.481   2.861   9.448  0.00  0.00    +0.000 A 
ATOM     19  C   UNL     1      45.338   3.839   8.987  0.00  0.00    +0.000 A 
ATOM     20 BR   UNL     1      46.181   3.625   7.305  0.00  0.00    +0.000 Br
ATOM     21  N   UNL     1      45.616   4.970   9.663  0.00  0.00    +0.000 NA
ATOM     22  C   UNL     1      45.036   5.166  10.867  0.00  0.00    +0.000 A 
BRANCH  16  24
ATOM     23  N   UNL     1      42.670   5.460  12.931  0.00  0.00    +0.000 N 
ATOM     24  C   UNL     1      43.409   4.348  12.711  0.00  0.00    +0.000 C 
ATOM     25  O   UNL     1      43.458   3.455  13.557  0.00  0.00    +0.000 OA
ATOM     26  H   UNL     1      42.138   5.517  13.790  0.00  0.00    +0.000 HD
ATOM     27  H   UNL     1      42.622   6.216  12.263  0.00  0.00    +0.000 HD
ENDBRANCH  16  24
ENDBRANCH  15  22
ENDBRANCH   1  15
TORSDOF 5
ENDMDL
MODEL 9
REMARK VINA RESULT:    -5.975      2.852      3.455
REMARK INTER + INTRA:          -8.765
REMARK INTER:                  -7.793
REMARK INTRA:                  -0.972
REMARK UNBOUND:                -1.043
REMARK  Name = 
REMARK  5 active torsions:
REMARK  status: ('A' for Active; 'I' for Inactive)
REMARK    1  A    between atoms: C_2  and  C_4
REMARK    2  A    between atoms: C_10  and  O_11
REMARK    3  A    between atoms: O_11  and  C_12
REMARK    4  A    between atoms: C_12  and  C_13
REMARK    5  A    between atoms: C_17  and  N_18
REMARK                            x       y       z     vdW  Elec       q    Type
REMARK                         _______ _______ _______ _____ _____    ______ ____
ROOT
ATOM      1  C   UNL     1      49.006   6.997  13.512  0.00  0.00    +0.000 C 
ENDROOT
BRANCH   1   2
ATOM      2  C   UNL     1      49.197   7.278  14.980  0.00  0.00    +0.000 A 
ATOM      3  C   UNL     1      49.934   8.357  15.445  0.00  0.00    +0.000 A 
ATOM      4  N   UNL     1      50.149   8.615  16.750  0.00  0.00    +0.000 NA
ATOM      5  C   UNL     1      49.607   7.740  17.634  0.00  0.00    +0.000 A 
ATOM      6  C   UNL     1      48.873   6.596  17.301  0.00  0.00    +0.000 A 
ATOM      7  C   UNL     1      48.696   6.382  15.932  0.00  0.00    +0.000 A 
BRANCH   6   8
ATOM      8  N   UNL     1      48.346   5.747  18.250  0.00  0.00    +0.000 N 
ATOM      9  C   UNL     1      48.510   5.953  19.694  0.00  0.00    +0.000 C 
ATOM     10  C   UNL     1      49.138   4.713  20.367  0.00  0.00    +0.000 C 
ATOM     11  N   UNL     1      48.450   3.445  20.040  0.00  0.00    +0.000 NA
ATOM     12  C   UNL     1      48.407   3.296  18.569  0.00  0.00    +0.000 C 
ATOM     13  C   UNL     1      47.726   4.479  17.844  0.00  0.00    +0.000 C 
ATOM     14  H   UNL     1      47.489   3.513  20.374  0.00  0.00    +0.000 HD
ENDBRANCH   6   8
ENDBRANCH   1   2
BRANCH   1  15
ATOM     15  O   UNL     1      48.213   5.803  13.264  0.00  0.00    +0.000 OA
BRANCH  15  22
ATOM     16  C   UNL     1      45.904   5.152  12.732  0.00  0.00    +0.000 A 
ATOM     17  C   UNL     1      44.636   5.581  12.304  0.00  0.00    +0.000 A 
ATOM     18  C   UNL     1      44.419   6.916  11.990  0.00  0.00    +0.000 A 
ATOM     19  C   UNL     1      45.475   7.790  12.146  0.00  0.00    +0.000 A 
ATOM     20 BR   UNL     1      45.229   9.629  11.768  0.00  0.00    +0.000 Br
ATOM     21  N   UNL     1      46.699   7.418  12.569  0.00  0.00    +0.000 NA
ATOM     22  C   UNL     1      46.920   6.116  12.852  0.00  0.00    +0.000 A 
BRANCH  16  24
ATOM     23  N   UNL     1      47.036   3.284  13.829  0.00  0.00    +0.000 N 
ATOM     24  C   UNL     1      46.009   3.698  13.050  0.00  0.00    +0.000 C 
ATOM     25  O   UNL     1      45.181   2.890  12.631  0.00  0.00    +0.000 OA
ATOM     26  H   UNL     1      47.080   2.305  14.080  0.00  0.00    +0.000 HD
ATOM     27  H   UNL     1      47.740   3.921  14.175  0.00  0.00    +0.000 HD
ENDBRANCH  16  24
ENDBRANCH  15  22
ENDBRANCH   1  15
TORSDOF 5
ENDMDL
