MODEL 1
REMARK VINA RESULT:    -8.367      0.000      0.000
REMARK INTER + INTRA:         -11.761
REMARK INTER:                 -10.813
REMARK INTRA:                  -0.948
REMARK UNBOUND:                -0.948
REMARK  Name = 
REMARK  6 active torsions:
REMARK  status: ('A' for Active; 'I' for Inactive)
REMARK    1  A    between atoms: C_1  and  C_2
REMARK    2  A    between atoms: C_2  and  N_3
REMARK    3  A    between atoms: C_2  and  C_16
REMARK    4  A    between atoms: C_4  and  C_6
REMARK    5  A    between atoms: C_19  and  O_20
REMARK    6  A    between atoms: O_20  and  C_21
REMARK                            x       y       z     vdW  Elec       q    Type
REMARK                         _______ _______ _______ _____ _____    ______ ____
ROOT
ATOM      1  C   UNL     1      43.608   2.943  11.235  0.00  0.00    +0.000 C 
ATOM      2  C   UNL     1      44.045   3.962  10.174  0.00  0.00    +0.000 C 
ENDROOT
BRANCH   2   3
ATOM      3  C   UNL     1      44.943   3.298   9.150  0.00  0.00    +0.000 A 
ATOM      4  C   UNL     1      45.622   4.020   8.158  0.00  0.00    +0.000 A 
ATOM      5  C   UNL     1      46.492   3.360   7.291  0.00  0.00    +0.000 A 
ATOM      6  C   UNL     1      46.651   1.992   7.448  0.00  0.00    +0.000 A 
ATOM      7  N   UNL     1      45.956   1.256   8.338  0.00  0.00    +0.000 NA
ATOM      8  C   UNL     1      45.128   1.921   9.171  0.00  0.00    +0.000 A 
BRANCH   6   9
ATOM      9  O   UNL     1      47.593   1.369   6.638  0.00  0.00    +0.000 OA
BRANCH   9  10
ATOM     10  C   UNL     1      47.164   0.887   5.418  0.00  0.00    +0.000 A 
ATOM     11  C   UNL     1      46.694   1.705   4.382  0.00  0.00    +0.000 A 
ATOM     12  C   UNL     1      46.275   1.146   3.175  0.00  0.00    +0.000 A 
ATOM     13  C   UNL     1      46.285  -0.238   3.013  0.00  0.00    +0.000 A 
ATOM     14  C   UNL     1      46.712  -1.054   4.061  0.00  0.00    +0.000 A 
ATOM     15 CL   UNL     1      46.698  -2.764   3.861  0.00  0.00    +0.000 Cl
ATOM     16  C   UNL     1      47.148  -0.500   5.264  0.00  0.00    +0.000 A 
ENDBRANCH   9  10
ENDBRANCH   6   9
ENDBRANCH   2   3
BRANCH   2  17
ATOM     17  N   UNL     1      44.726   5.106  10.749  0.00  0.00    +0.000 N 
ATOM     18  C   UNL     1      44.052   6.166  11.301  0.00  0.00    +0.000 C 
ATOM     19  O   UNL     1      42.831   6.195  11.407  0.00  0.00    +0.000 OA
ATOM     20  H   UNL     1      45.670   5.276  10.414  0.00  0.00    +0.000 HD
BRANCH  18  21
ATOM     21  C   UNL     1      44.887   7.245  11.834  0.00  0.00    +0.000 A 
ATOM     22  C   UNL     1      44.688   8.549  11.402  0.00  0.00    +0.000 A 
ATOM     23  S   UNL     1      45.724   9.678  12.152  0.00  0.00    +0.000 S 
ATOM     24  C   UNL     1      46.506   8.454  13.039  0.00  0.00    +0.000 A 
ATOM     25  N   UNL     1      47.540   8.743  13.874  0.00  0.00    +0.000 NA
ATOM     26  C   UNL     1      48.064   7.714  14.450  0.00  0.00    +0.000 A 
ATOM     27  N   UNL     1      47.641   6.420  14.277  0.00  0.00    +0.000 N 
ATOM     28  C   UNL     1      46.569   6.085  13.486  0.00  0.00    +0.000 A 
ATOM     29  O   UNL     1      46.154   4.932  13.413  0.00  0.00    +0.000 OA
ATOM     30  C   UNL     1      45.965   7.205  12.789  0.00  0.00    +0.000 A 
ATOM     31  H   UNL     1      48.085   5.661  14.773  0.00  0.00    +0.000 HD
ENDBRANCH  18  21
ENDBRANCH   2  17
TORSDOF 5
ENDMDL
MODEL 2
REMARK VINA RESULT:    -7.965      1.653      2.028
REMARK INTER + INTRA:         -11.242
REMARK INTER:                 -10.560
REMARK INTRA:                  -0.682
REMARK UNBOUND:                -0.948
REMARK  Name = 
REMARK  6 active torsions:
REMARK  status: ('A' for Active; 'I' for Inactive)
REMARK    1  A    between atoms: C_1  and  C_2
REMARK    2  A    between atoms: C_2  and  N_3
REMARK    3  A    between atoms: C_2  and  C_16
REMARK    4  A    between atoms: C_4  and  C_6
REMARK    5  A    between atoms: C_19  and  O_20
REMARK    6  A    between atoms: O_20  and  C_21
REMARK                            x       y       z     vdW  Elec       q    Type
REMARK                         _______ _______ _______ _____ _____    ______ ____
ROOT
ATOM      1  C   UNL     1      43.937   3.317   9.736  0.00  0.00    +0.000 C 
ATOM      2  C   UNL     1      45.106   4.110   9.138  0.00  0.00    +0.000 C 
ENDROOT
BRANCH   2   3
ATOM      3  C   UNL     1      45.913   3.230   8.206  0.00  0.00    +0.000 A 
ATOM      4  C   UNL     1      46.060   1.850   8.406  0.00  0.00    +0.000 A 
ATOM      5  C   UNL     1      46.754   1.082   7.472  0.00  0.00    +0.000 A 
ATOM      6  C   UNL     1      47.280   1.727   6.364  0.00  0.00    +0.000 A 
ATOM      7  N   UNL     1      47.226   3.062   6.180  0.00  0.00    +0.000 NA
ATOM      8  C   UNL     1      46.540   3.780   7.095  0.00  0.00    +0.000 A 
BRANCH   6   9
ATOM      9  O   UNL     1      47.885   0.932   5.398  0.00  0.00    +0.000 OA
BRANCH   9  10
ATOM     10  C   UNL     1      47.099   0.490   4.353  0.00  0.00    +0.000 A 
ATOM     11  C   UNL     1      46.304   1.336   3.569  0.00  0.00    +0.000 A 
ATOM     12  C   UNL     1      45.533   0.817   2.529  0.00  0.00    +0.000 A 
ATOM     13  C   UNL     1      45.521  -0.556   2.295  0.00  0.00    +0.000 A 
ATOM     14  C   UNL     1      46.278  -1.402   3.106  0.00  0.00    +0.000 A 
ATOM     15 CL   UNL     1      46.238  -3.101   2.826  0.00  0.00    +0.000 Cl
ATOM     16  C   UNL     1      47.064  -0.888   4.136  0.00  0.00    +0.000 A 
ENDBRANCH   9  10
ENDBRANCH   6   9
ENDBRANCH   2   3
BRANCH   2  17
ATOM     17  N   UNL     1      45.976   4.669  10.155  0.00  0.00    +0.000 N 
ATOM     18  C   UNL     1      45.591   5.703  10.970  0.00  0.00    +0.000 C 
ATOM     19  O   UNL     1      44.465   6.187  10.944  0.00  0.00    +0.000 OA
ATOM     20  H   UNL     1      46.973   4.536  10.009  0.00  0.00    +0.000 HD
BRANCH  18  21
ATOM     21  C   UNL     1      46.589   6.156  11.941  0.00  0.00    +0.000 A 
ATOM     22  C   UNL     1      47.462   7.181  11.607  0.00  0.00    +0.000 A 
ATOM     23  S   UNL     1      48.532   7.601  12.867  0.00  0.00    +0.000 S 
ATOM     24  C   UNL     1      47.898   6.391  13.883  0.00  0.00    +0.000 A 
ATOM     25  N   UNL     1      48.402   6.184  15.128  0.00  0.00    +0.000 NA
ATOM     26  C   UNL     1      47.854   5.208  15.770  0.00  0.00    +0.000 A 
ATOM     27  N   UNL     1      46.837   4.425  15.285  0.00  0.00    +0.000 N 
ATOM     28  C   UNL     1      46.260   4.630  14.054  0.00  0.00    +0.000 A 
ATOM     29  O   UNL     1      45.295   3.973  13.675  0.00  0.00    +0.000 OA
ATOM     30  C   UNL     1      46.865   5.696  13.279  0.00  0.00    +0.000 A 
ATOM     31  H   UNL     1      46.440   3.687  15.847  0.00  0.00    +0.000 HD
ENDBRANCH  18  21
ENDBRANCH   2  17
TORSDOF 5
ENDMDL
MODEL 3
REMARK VINA RESULT:    -7.450      3.359      6.006
REMARK INTER + INTRA:         -10.576
REMARK INTER:                  -9.579
REMARK INTRA:                  -0.997
REMARK UNBOUND:                -0.948
REMARK  Name = 
REMARK  6 active torsions:
REMARK  status: ('A' for Active; 'I' for Inactive)
REMARK    1  A    between atoms: C_1  and  C_2
REMARK    2  A    between atoms: C_2  and  N_3
REMARK    3  A    between atoms: C_2  and  C_16
REMARK    4  A    between atoms: C_4  and  C_6
REMARK    5  A    between atoms: C_19  and  O_20
REMARK    6  A    between atoms: O_20  and  C_21
REMARK                            x       y       z     vdW  Elec       q    Type
REMARK                         _______ _______ _______ _____ _____    ______ ____
ROOT
ATOM      1  C   UNL     1      46.986   9.322  13.365  0.00  0.00    +0.000 C 
ATOM      2  C   UNL     1      47.441   7.860  13.260  0.00  0.00    +0.000 C 
ENDROOT
BRANCH   2   3
ATOM      3  C   UNL     1      46.394   7.038  12.538  0.00  0.00    +0.000 A 
ATOM      4  C   UNL     1      45.304   7.616  11.870  0.00  0.00    +0.000 A 
ATOM      5  C   UNL     1      44.416   6.810  11.161  0.00  0.00    +0.000 A 
ATOM      6  C   UNL     1      44.650   5.443  11.145  0.00  0.00    +0.000 A 
ATOM      7  N   UNL     1      45.641   4.847  11.839  0.00  0.00    +0.000 NA
ATOM      8  C   UNL     1      46.491   5.652  12.509  0.00  0.00    +0.000 A 
BRANCH   6   9
ATOM      9  O   UNL     1      43.810   4.667  10.355  0.00  0.00    +0.000 OA
BRANCH   9  10
ATOM     10  C   UNL     1      44.395   3.706   9.556  0.00  0.00    +0.000 A 
ATOM     11  C   UNL     1      44.267   2.329   9.780  0.00  0.00    +0.000 A 
ATOM     12  C   UNL     1      44.889   1.415   8.930  0.00  0.00    +0.000 A 
ATOM     13  C   UNL     1      45.677   1.874   7.876  0.00  0.00    +0.000 A 
ATOM     14  C   UNL     1      45.839   3.246   7.682  0.00  0.00    +0.000 A 
ATOM     15 CL   UNL     1      46.834   3.806   6.393  0.00  0.00    +0.000 Cl
ATOM     16  C   UNL     1      45.206   4.166   8.518  0.00  0.00    +0.000 A 
ENDBRANCH   9  10
ENDBRANCH   6   9
ENDBRANCH   2   3
BRANCH   2  17
ATOM     17  N   UNL     1      47.714   7.269  14.556  0.00  0.00    +0.000 N 
ATOM     18  C   UNL     1      48.980   6.921  14.957  0.00  0.00    +0.000 C 
ATOM     19  O   UNL     1      49.977   7.143  14.279  0.00  0.00    +0.000 OA
ATOM     20  H   UNL     1      46.936   6.789  14.999  0.00  0.00    +0.000 HD
BRANCH  18  21
ATOM     21  C   UNL     1      49.086   6.330  16.292  0.00  0.00    +0.000 A 
ATOM     22  C   UNL     1      49.829   6.970  17.274  0.00  0.00    +0.000 A 
ATOM     23  S   UNL     1      49.815   6.159  18.774  0.00  0.00    +0.000 S 
ATOM     24  C   UNL     1      48.858   4.899  18.146  0.00  0.00    +0.000 A 
ATOM     25  N   UNL     1      48.502   3.838  18.917  0.00  0.00    +0.000 NA
ATOM     26  C   UNL     1      47.811   2.938  18.300  0.00  0.00    +0.000 A 
ATOM     27  N   UNL     1      47.433   3.009  16.983  0.00  0.00    +0.000 N 
ATOM     28  C   UNL     1      47.725   4.085  16.180  0.00  0.00    +0.000 A 
ATOM     29  O   UNL     1      47.304   4.167  15.030  0.00  0.00    +0.000 OA
ATOM     30  C   UNL     1      48.530   5.109  16.819  0.00  0.00    +0.000 A 
ATOM     31  H   UNL     1      46.877   2.277  16.566  0.00  0.00    +0.000 HD
ENDBRANCH  18  21
ENDBRANCH   2  17
TORSDOF 5
ENDMDL
MODEL 4
REMARK VINA RESULT:    -7.419      3.868      6.606
REMARK INTER + INTRA:         -10.536
REMARK INTER:                  -9.372
REMARK INTRA:                  -1.164
REMARK UNBOUND:                -0.948
REMARK  Name = 
REMARK  6 active torsions:
REMARK  status: ('A' for Active; 'I' for Inactive)
REMARK    1  A    between atoms: C_1  and  C_2
REMARK    2  A    between atoms: C_2  and  N_3
REMARK    3  A    between atoms: C_2  and  C_16
REMARK    4  A    between atoms: C_4  and  C_6
REMARK    5  A    between atoms: C_19  and  O_20
REMARK    6  A    between atoms: O_20  and  C_21
REMARK                            x       y       z     vdW  Elec       q    Type
REMARK                         _______ _______ _______ _____ _____    ______ ____
ROOT
ATOM      1  C   UNL     1      48.144   9.044  13.741  0.00  0.00    +0.000 C 
ATOM      2  C   UNL     1      48.125   7.513  13.838  0.00  0.00    +0.000 C 
ENDROOT
BRANCH   2   3
ATOM      3  C   UNL     1      46.976   6.952  13.026  0.00  0.00    +0.000 A 
ATOM      4  C   UNL     1      46.157   7.755  12.218  0.00  0.00    +0.000 A 
ATOM      5  C   UNL     1      45.162   7.169  11.437  0.00  0.00    +0.000 A 
ATOM      6  C   UNL     1      45.021   5.791  11.492  0.00  0.00    +0.000 A 
ATOM      7  N   UNL     1      45.737   4.998  12.315  0.00  0.00    +0.000 NA
ATOM      8  C   UNL     1      46.699   5.591  13.053  0.00  0.00    +0.000 A 
BRANCH   6   9
ATOM      9  O   UNL     1      44.089   5.216  10.636  0.00  0.00    +0.000 OA
BRANCH   9  10
ATOM     10  C   UNL     1      44.509   4.161   9.853  0.00  0.00    +0.000 A 
ATOM     11  C   UNL     1      44.187   2.823  10.116  0.00  0.00    +0.000 A 
ATOM     12  C   UNL     1      44.650   1.807   9.281  0.00  0.00    +0.000 A 
ATOM     13  C   UNL     1      45.473   2.120   8.200  0.00  0.00    +0.000 A 
ATOM     14  C   UNL     1      45.829   3.448   7.965  0.00  0.00    +0.000 A 
ATOM     15 CL   UNL     1      46.865   3.824   6.643  0.00  0.00    +0.000 Cl
ATOM     16  C   UNL     1      45.356   4.471   8.787  0.00  0.00    +0.000 A 
ENDBRANCH   9  10
ENDBRANCH   6   9
ENDBRANCH   2   3
BRANCH   2  17
ATOM     17  N   UNL     1      48.027   7.043  15.207  0.00  0.00    +0.000 N 
ATOM     18  C   UNL     1      49.108   6.564  15.902  0.00  0.00    +0.000 C 
ATOM     19  O   UNL     1      50.245   6.558  15.443  0.00  0.00    +0.000 OA
ATOM     20  H   UNL     1      47.106   6.737  15.507  0.00  0.00    +0.000 HD
BRANCH  18  21
ATOM     21  C   UNL     1      48.841   6.124  17.273  0.00  0.00    +0.000 A 
ATOM     22  C   UNL     1      49.053   4.799  17.626  0.00  0.00    +0.000 A 
ATOM     23  S   UNL     1      48.723   4.472  19.267  0.00  0.00    +0.000 S 
ATOM     24  C   UNL     1      48.236   6.079  19.547  0.00  0.00    +0.000 A 
ATOM     25  N   UNL     1      47.791   6.475  20.768  0.00  0.00    +0.000 NA
ATOM     26  C   UNL     1      47.416   7.709  20.825  0.00  0.00    +0.000 A 
ATOM     27  N   UNL     1      47.458   8.589  19.773  0.00  0.00    +0.000 N 
ATOM     28  C   UNL     1      47.949   8.248  18.536  0.00  0.00    +0.000 A 
ATOM     29  O   UNL     1      48.056   9.074  17.633  0.00  0.00    +0.000 OA
ATOM     30  C   UNL     1      48.351   6.860  18.411  0.00  0.00    +0.000 A 
ATOM     31  H   UNL     1      47.166   9.548  19.890  0.00  0.00    +0.000 HD
ENDBRANCH  18  21
ENDBRANCH   2  17
TORSDOF 5
ENDMDL
MODEL 5
REMARK VINA RESULT:    -7.404      6.096     11.810
REMARK INTER + INTRA:         -10.516
REMARK INTER:                  -9.362
REMARK INTRA:                  -1.154
REMARK UNBOUND:                -0.948
REMARK  Name = 
REMARK  6 active torsions:
REMARK  status: ('A' for Active; 'I' for Inactive)
REMARK    1  A    between atoms: C_1  and  C_2
REMARK    2  A    between atoms: C_2  and  N_3
REMARK    3  A    between atoms: C_2  and  C_16
REMARK    4  A    between atoms: C_4  and  C_6
REMARK    5  A    between atoms: C_19  and  O_20
REMARK    6  A    between atoms: O_20  and  C_21
REMARK                            x       y       z     vdW  Elec       q    Type
REMARK                         _______ _______ _______ _____ _____    ______ ____
ROOT
ATOM      1  C   UNL     1      47.752   3.091  16.920  0.00  0.00    +0.000 C 
ATOM      2  C   UNL     1      48.068   4.461  16.304  0.00  0.00    +0.000 C 
ENDROOT
BRANCH   2   3
ATOM      3  C   UNL     1      48.088   5.525  17.380  0.00  0.00    +0.000 A 
ATOM      4  C   UNL     1      47.172   5.546  18.443  0.00  0.00    +0.000 A 
ATOM      5  C   UNL     1      47.288   6.510  19.442  0.00  0.00    +0.000 A 
ATOM      6  C   UNL     1      48.323   7.427  19.343  0.00  0.00    +0.000 A 
ATOM      7  N   UNL     1      49.172   7.486  18.297  0.00  0.00    +0.000 NA
ATOM      8  C   UNL     1      49.043   6.534  17.348  0.00  0.00    +0.000 A 
BRANCH   6   9
ATOM      9  O   UNL     1      48.480   8.320  20.397  0.00  0.00    +0.000 OA
BRANCH   9  10
ATOM     10  C   UNL     1      47.590   9.371  20.479  0.00  0.00    +0.000 A 
ATOM     11  C   UNL     1      46.592   9.468  21.458  0.00  0.00    +0.000 A 
ATOM     12  C   UNL     1      45.725  10.560  21.478  0.00  0.00    +0.000 A 
ATOM     13  C   UNL     1      45.825  11.541  20.493  0.00  0.00    +0.000 A 
ATOM     14  C   UNL     1      46.790  11.420  19.493  0.00  0.00    +0.000 A 
ATOM     15 CL   UNL     1      46.891  12.623  18.265  0.00  0.00    +0.000 Cl
ATOM     16  C   UNL     1      47.670  10.338  19.477  0.00  0.00    +0.000 A 
ENDBRANCH   9  10
ENDBRANCH   6   9
ENDBRANCH   2   3
BRANCH   2  17
ATOM     17  N   UNL     1      47.126   4.834  15.267  0.00  0.00    +0.000 N 
ATOM     18  C   UNL     1      47.486   5.590  14.179  0.00  0.00    +0.000 C 
ATOM     19  O   UNL     1      48.640   5.948  13.970  0.00  0.00    +0.000 OA
ATOM     20  H   UNL     1      46.147   4.843  15.537  0.00  0.00    +0.000 HD
BRANCH  18  21
ATOM     21  C   UNL     1      46.415   5.885  13.225  0.00  0.00    +0.000 A 
ATOM     22  C   UNL     1      46.122   7.203  12.903  0.00  0.00    +0.000 A 
ATOM     23  S   UNL     1      44.872   7.360  11.753  0.00  0.00    +0.000 S 
ATOM     24  C   UNL     1      44.646   5.673  11.687  0.00  0.00    +0.000 A 
ATOM     25  N   UNL     1      43.683   5.124  10.901  0.00  0.00    +0.000 NA
ATOM     26  C   UNL     1      43.598   3.839  10.981  0.00  0.00    +0.000 A 
ATOM     27  N   UNL     1      44.397   3.049  11.768  0.00  0.00    +0.000 N 
ATOM     28  C   UNL     1      45.417   3.554  12.539  0.00  0.00    +0.000 A 
ATOM     29  O   UNL     1      46.174   2.822  13.169  0.00  0.00    +0.000 OA
ATOM     30  C   UNL     1      45.532   4.999  12.509  0.00  0.00    +0.000 A 
ATOM     31  H   UNL     1      44.290   2.045  11.771  0.00  0.00    +0.000 HD
ENDBRANCH  18  21
ENDBRANCH   2  17
TORSDOF 5
ENDMDL
MODEL 6
REMARK VINA RESULT:    -7.379      3.983      6.690
REMARK INTER + INTRA:         -10.484
REMARK INTER:                  -9.642
REMARK INTRA:                  -0.842
REMARK UNBOUND:                -0.948
REMARK  Name = 
REMARK  6 active torsions:
REMARK  status: ('A' for Active; 'I' for Inactive)
REMARK    1  A    between atoms: C_1  and  C_2
REMARK    2  A    between atoms: C_2  and  N_3
REMARK    3  A    between atoms: C_2  and  C_16
REMARK    4  A    between atoms: C_4  and  C_6
REMARK    5  A    between atoms: C_19  and  O_20
REMARK    6  A    between atoms: O_20  and  C_21
REMARK                            x       y       z     vdW  Elec       q    Type
REMARK                         _______ _______ _______ _____ _____    ______ ____
ROOT
ATOM      1  C   UNL     1      49.427   8.137  13.358  0.00  0.00    +0.000 C 
ATOM      2  C   UNL     1      48.762   6.888  13.951  0.00  0.00    +0.000 C 
ENDROOT
BRANCH   2   3
ATOM      3  C   UNL     1      47.524   6.528  13.158  0.00  0.00    +0.000 A 
ATOM      4  C   UNL     1      46.957   7.389  12.206  0.00  0.00    +0.000 A 
ATOM      5  C   UNL     1      45.859   6.971  11.456  0.00  0.00    +0.000 A 
ATOM      6  C   UNL     1      45.363   5.697  11.686  0.00  0.00    +0.000 A 
ATOM      7  N   UNL     1      45.833   4.874  12.646  0.00  0.00    +0.000 NA
ATOM      8  C   UNL     1      46.901   5.301  13.351  0.00  0.00    +0.000 A 
BRANCH   6   9
ATOM      9  O   UNL     1      44.331   5.263  10.863  0.00  0.00    +0.000 OA
BRANCH   9  10
ATOM     10  C   UNL     1      44.596   4.211  10.010  0.00  0.00    +0.000 A 
ATOM     11  C   UNL     1      44.171   2.897  10.243  0.00  0.00    +0.000 A 
ATOM     12  C   UNL     1      44.478   1.883   9.336  0.00  0.00    +0.000 A 
ATOM     13  C   UNL     1      45.248   2.172   8.210  0.00  0.00    +0.000 A 
ATOM     14  C   UNL     1      45.707   3.472   8.002  0.00  0.00    +0.000 A 
ATOM     15 CL   UNL     1      46.678   3.816   6.622  0.00  0.00    +0.000 Cl
ATOM     16  C   UNL     1      45.390   4.494   8.897  0.00  0.00    +0.000 A 
ENDBRANCH   9  10
ENDBRANCH   6   9
ENDBRANCH   2   3
BRANCH   2  17
ATOM     17  N   UNL     1      48.414   7.054  15.349  0.00  0.00    +0.000 N 
ATOM     18  C   UNL     1      49.235   6.645  16.369  0.00  0.00    +0.000 C 
ATOM     19  O   UNL     1      50.350   6.171  16.177  0.00  0.00    +0.000 OA
ATOM     20  H   UNL     1      47.422   7.136  15.553  0.00  0.00    +0.000 HD
BRANCH  18  21
ATOM     21  C   UNL     1      48.734   6.880  17.725  0.00  0.00    +0.000 A 
ATOM     22  C   UNL     1      48.324   8.152  18.099  0.00  0.00    +0.000 A 
ATOM     23  S   UNL     1      47.739   8.235  19.699  0.00  0.00    +0.000 S 
ATOM     24  C   UNL     1      48.064   6.584  19.961  0.00  0.00    +0.000 A 
ATOM     25  N   UNL     1      47.820   6.003  21.166  0.00  0.00    +0.000 NA
ATOM     26  C   UNL     1      48.152   4.758  21.234  0.00  0.00    +0.000 A 
ATOM     27  N   UNL     1      48.694   4.034  20.203  0.00  0.00    +0.000 N 
ATOM     28  C   UNL     1      48.909   4.564  18.953  0.00  0.00    +0.000 A 
ATOM     29  O   UNL     1      49.315   3.877  18.020  0.00  0.00    +0.000 OA
ATOM     30  C   UNL     1      48.583   5.972  18.834  0.00  0.00    +0.000 A 
ATOM     31  H   UNL     1      48.915   3.056  20.317  0.00  0.00    +0.000 HD
ENDBRANCH  18  21
ENDBRANCH   2  17
TORSDOF 5
ENDMDL
MODEL 7
REMARK VINA RESULT:    -7.285      5.505      9.574
REMARK INTER + INTRA:         -10.363
REMARK INTER:                  -9.359
REMARK INTRA:                  -1.004
REMARK UNBOUND:                -0.948
REMARK  Name = 
REMARK  6 active torsions:
REMARK  status: ('A' for Active; 'I' for Inactive)
REMARK    1  A    between atoms: C_1  and  C_2
REMARK    2  A    between atoms: C_2  and  N_3
REMARK    3  A    between atoms: C_2  and  C_16
REMARK    4  A    between atoms: C_4  and  C_6
REMARK    5  A    between atoms: C_19  and  O_20
REMARK    6  A    between atoms: O_20  and  C_21
REMARK                            x       y       z     vdW  Elec       q    Type
REMARK                         _______ _______ _______ _____ _____    ______ ____
ROOT
ATOM      1  C   UNL     1      49.125   8.278  12.365  0.00  0.00    +0.000 C 
ATOM      2  C   UNL     1      48.071   7.537  13.200  0.00  0.00    +0.000 C 
ENDROOT
BRANCH   2   3
ATOM      3  C   UNL     1      48.722   6.883  14.400  0.00  0.00    +0.000 A 
ATOM      4  C   UNL     1      49.957   7.301  14.915  0.00  0.00    +0.000 A 
ATOM      5  C   UNL     1      50.468   6.706  16.067  0.00  0.00    +0.000 A 
ATOM      6  C   UNL     1      49.720   5.706  16.668  0.00  0.00    +0.000 A 
ATOM      7  N   UNL     1      48.568   5.225  16.157  0.00  0.00    +0.000 NA
ATOM      8  C   UNL     1      48.092   5.825  15.046  0.00  0.00    +0.000 A 
BRANCH   6   9
ATOM      9  O   UNL     1      50.199   5.192  17.867  0.00  0.00    +0.000 OA
BRANCH   9  10
ATOM     10  C   UNL     1      50.929   4.022  17.812  0.00  0.00    +0.000 A 
ATOM     11  C   UNL     1      50.386   2.785  17.439  0.00  0.00    +0.000 A 
ATOM     12  C   UNL     1      51.185   1.643  17.408  0.00  0.00    +0.000 A 
ATOM     13  C   UNL     1      52.522   1.723  17.791  0.00  0.00    +0.000 A 
ATOM     14  C   UNL     1      53.050   2.946  18.204  0.00  0.00    +0.000 A 
ATOM     15 CL   UNL     1      54.698   3.033  18.698  0.00  0.00    +0.000 Cl
ATOM     16  C   UNL     1      52.261   4.096  18.221  0.00  0.00    +0.000 A 
ENDBRANCH   9  10
ENDBRANCH   6   9
ENDBRANCH   2   3
BRANCH   2  17
ATOM     17  N   UNL     1      47.354   6.539  12.430  0.00  0.00    +0.000 N 
ATOM     18  C   UNL     1      46.208   6.827  11.733  0.00  0.00    +0.000 C 
ATOM     19  O   UNL     1      45.742   7.959  11.655  0.00  0.00    +0.000 OA
ATOM     20  H   UNL     1      47.500   5.573  12.708  0.00  0.00    +0.000 HD
BRANCH  18  21
ATOM     21  C   UNL     1      45.601   5.706  11.012  0.00  0.00    +0.000 A 
ATOM     22  C   UNL     1      45.697   5.642   9.629  0.00  0.00    +0.000 A 
ATOM     23  S   UNL     1      44.965   4.254   8.960  0.00  0.00    +0.000 S 
ATOM     24  C   UNL     1      44.451   3.720  10.493  0.00  0.00    +0.000 A 
ATOM     25  N   UNL     1      43.723   2.580  10.631  0.00  0.00    +0.000 NA
ATOM     26  C   UNL     1      43.367   2.319  11.843  0.00  0.00    +0.000 A 
ATOM     27  N   UNL     1      43.682   3.087  12.935  0.00  0.00    +0.000 N 
ATOM     28  C   UNL     1      44.459   4.218  12.851  0.00  0.00    +0.000 A 
ATOM     29  O   UNL     1      44.801   4.843  13.851  0.00  0.00    +0.000 OA
ATOM     30  C   UNL     1      44.857   4.573  11.503  0.00  0.00    +0.000 A 
ATOM     31  H   UNL     1      43.386   2.816  13.861  0.00  0.00    +0.000 HD
ENDBRANCH  18  21
ENDBRANCH   2  17
TORSDOF 5
ENDMDL
MODEL 8
REMARK VINA RESULT:    -7.009      5.723     10.340
REMARK INTER + INTRA:         -10.006
REMARK INTER:                  -8.959
REMARK INTRA:                  -1.047
REMARK UNBOUND:                -0.948
REMARK  Name = 
REMARK  6 active torsions:
REMARK  status: ('A' for Active; 'I' for Inactive)
REMARK    1  A    between atoms: C_1  and  C_2
REMARK    2  A    between atoms: C_2  and  N_3
REMARK    3  A    between atoms: C_2  and  C_16
REMARK    4  A    between atoms: C_4  and  C_6
REMARK    5  A    between atoms: C_19  and  O_20
REMARK    6  A    between atoms: O_20  and  C_21
REMARK                            x       y       z     vdW  Elec       q    Type
REMARK                         _______ _______ _______ _____ _____    ______ ____
ROOT
ATOM      1  C   UNL     1      49.280   8.309  11.563  0.00  0.00    +0.000 C 
ATOM      2  C   UNL     1      48.173   7.745  12.464  0.00  0.00    +0.000 C 
ENDROOT
BRANCH   2   3
ATOM      3  C   UNL     1      48.762   7.254  13.770  0.00  0.00    +0.000 A 
ATOM      4  C   UNL     1      49.943   7.780  14.314  0.00  0.00    +0.000 A 
ATOM      5  C   UNL     1      50.394   7.337  15.556  0.00  0.00    +0.000 A 
ATOM      6  C   UNL     1      49.642   6.377  16.215  0.00  0.00    +0.000 A 
ATOM      7  N   UNL     1      48.547   5.793  15.688  0.00  0.00    +0.000 NA
ATOM      8  C   UNL     1      48.128   6.248  14.488  0.00  0.00    +0.000 A 
BRANCH   6   9
ATOM      9  O   UNL     1      50.056   6.018  17.493  0.00  0.00    +0.000 OA
BRANCH   9  10
ATOM     10  C   UNL     1      49.183   6.258  18.535  0.00  0.00    +0.000 A 
ATOM     11  C   UNL     1      48.786   5.279  19.455  0.00  0.00    +0.000 A 
ATOM     12  C   UNL     1      47.898   5.594  20.483  0.00  0.00    +0.000 A 
ATOM     13  C   UNL     1      47.371   6.880  20.572  0.00  0.00    +0.000 A 
ATOM     14  C   UNL     1      47.733   7.842  19.629  0.00  0.00    +0.000 A 
ATOM     15 CL   UNL     1      47.058   9.423  19.731  0.00  0.00    +0.000 Cl
ATOM     16  C   UNL     1      48.633   7.538  18.608  0.00  0.00    +0.000 A 
ENDBRANCH   9  10
ENDBRANCH   6   9
ENDBRANCH   2   3
BRANCH   2  17
ATOM     17  N   UNL     1      47.433   6.671  11.830  0.00  0.00    +0.000 N 
ATOM     18  C   UNL     1      46.126   6.807  11.436  0.00  0.00    +0.000 C 
ATOM     19  O   UNL     1      45.508   7.862  11.531  0.00  0.00    +0.000 OA
ATOM     20  H   UNL     1      47.770   5.730  12.013  0.00  0.00    +0.000 HD
BRANCH  18  21
ATOM     21  C   UNL     1      45.521   5.626  10.816  0.00  0.00    +0.000 A 
ATOM     22  C   UNL     1      45.609   5.446   9.443  0.00  0.00    +0.000 A 
ATOM     23  S   UNL     1      44.880   4.003   8.899  0.00  0.00    +0.000 S 
ATOM     24  C   UNL     1      44.377   3.598  10.474  0.00  0.00    +0.000 A 
ATOM     25  N   UNL     1      43.655   2.471  10.713  0.00  0.00    +0.000 NA
ATOM     26  C   UNL     1      43.307   2.312  11.946  0.00  0.00    +0.000 A 
ATOM     27  N   UNL     1      43.626   3.171  12.966  0.00  0.00    +0.000 N 
ATOM     28  C   UNL     1      44.397   4.294  12.782  0.00  0.00    +0.000 A 
ATOM     29  O   UNL     1      44.741   5.003  13.723  0.00  0.00    +0.000 OA
ATOM     30  C   UNL     1      44.785   4.536  11.406  0.00  0.00    +0.000 A 
ATOM     31  H   UNL     1      43.337   2.978  13.914  0.00  0.00    +0.000 HD
ENDBRANCH  18  21
ENDBRANCH   2  17
TORSDOF 5
ENDMDL
MODEL 9
REMARK VINA RESULT:    -6.877      6.749     11.817
REMARK INTER + INTRA:          -9.835
REMARK INTER:                  -8.702
REMARK INTRA:                  -1.134
REMARK UNBOUND:                -0.948
REMARK  Name = 
REMARK  6 active torsions:
REMARK  status: ('A' for Active; 'I' for Inactive)
REMARK    1  A    between atoms: C_1  and  C_2
REMARK    2  A    between atoms: C_2  and  N_3
REMARK    3  A    between atoms: C_2  and  C_16
REMARK    4  A    between atoms: C_4  and  C_6
REMARK    5  A    between atoms: C_19  and  O_20
REMARK    6  A    between atoms: O_20  and  C_21
REMARK                            x       y       z     vdW  Elec       q    Type
REMARK                         _______ _______ _______ _____ _____    ______ ____
ROOT
ATOM      1  C   UNL     1      47.357   2.922  17.197  0.00  0.00    +0.000 C 
ATOM      2  C   UNL     1      47.755   4.225  16.492  0.00  0.00    +0.000 C 
ENDROOT
BRANCH   2   3
ATOM      3  C   UNL     1      47.920   5.338  17.505  0.00  0.00    +0.000 A 
ATOM      4  C   UNL     1      47.095   5.465  18.633  0.00  0.00    +0.000 A 
ATOM      5  C   UNL     1      47.343   6.468  19.567  0.00  0.00    +0.000 A 
ATOM      6  C   UNL     1      48.416   7.316  19.340  0.00  0.00    +0.000 A 
ATOM      7  N   UNL     1      49.180   7.273  18.230  0.00  0.00    +0.000 NA
ATOM      8  C   UNL     1      48.923   6.286  17.346  0.00  0.00    +0.000 A 
BRANCH   6   9
ATOM      9  O   UNL     1      48.705   8.248  20.329  0.00  0.00    +0.000 OA
BRANCH   9  10
ATOM     10  C   UNL     1      47.773   9.238  20.565  0.00  0.00    +0.000 A 
ATOM     11  C   UNL     1      46.880   9.222  21.645  0.00  0.00    +0.000 A 
ATOM     12  C   UNL     1      45.962  10.257  21.818  0.00  0.00    +0.000 A 
ATOM     13  C   UNL     1      45.904  11.293  20.889  0.00  0.00    +0.000 A 
ATOM     14  C   UNL     1      46.764  11.285  19.790  0.00  0.00    +0.000 A 
ATOM     15 CL   UNL     1      46.669  12.557  18.633  0.00  0.00    +0.000 Cl
ATOM     16  C   UNL     1      47.695  10.261  19.619  0.00  0.00    +0.000 A 
ENDBRANCH   9  10
ENDBRANCH   6   9
ENDBRANCH   2   3
BRANCH   2  17
ATOM     17  N   UNL     1      46.796   4.626  15.481  0.00  0.00    +0.000 N 
ATOM     18  C   UNL     1      46.867   4.190  14.181  0.00  0.00    +0.000 C 
ATOM     19  O   UNL     1      47.704   3.381  13.796  0.00  0.00    +0.000 OA
ATOM     20  H   UNL     1      46.306   5.498  15.653  0.00  0.00    +0.000 HD
BRANCH  18  21
ATOM     21  C   UNL     1      45.826   4.691  13.282  0.00  0.00    +0.000 A 
ATOM     22  C   UNL     1      44.863   3.823  12.788  0.00  0.00    +0.000 A 
ATOM     23  S   UNL     1      43.712   4.583  11.786  0.00  0.00    +0.000 S 
ATOM     24  C   UNL     1      44.492   6.088  11.938  0.00  0.00    +0.000 A 
ATOM     25  N   UNL     1      44.029   7.188  11.287  0.00  0.00    +0.000 NA
ATOM     26  C   UNL     1      44.742   8.250  11.460  0.00  0.00    +0.000 A 
ATOM     27  N   UNL     1      45.872   8.316  12.236  0.00  0.00    +0.000 N 
ATOM     28  C   UNL     1      46.348   7.245  12.953  0.00  0.00    +0.000 A 
ATOM     29  O   UNL     1      47.311   7.348  13.707  0.00  0.00    +0.000 OA
ATOM     30  C   UNL     1      45.599   6.017  12.765  0.00  0.00    +0.000 A 
ATOM     31  H   UNL     1      46.375   9.185  12.343  0.00  0.00    +0.000 HD
ENDBRANCH  18  21
ENDBRANCH   2  17
TORSDOF 5
ENDMDL
